data_str_m3_o1_o2_pcu_sym.104
_audit_creation_date              2020-01-03
_audit_creation_method            'Materials Studio'
_symmetry_space_group_name_H-M    'P1'
_symmetry_Int_Tables_number       1
_symmetry_cell_setting            triclinic
loop_
_symmetry_equiv_pos_as_xyz
  x,y,z
_cell_length_a                    32.4288
_cell_length_b                    29.4174
_cell_length_c                    30.1041
_cell_angle_alpha                 90.0380
_cell_angle_beta                  90.3738
_cell_angle_gamma                 89.4888
loop_
_atom_site_label
_atom_site_type_symbol
_atom_site_fract_x
_atom_site_fract_y
_atom_site_fract_z
_atom_site_U_iso_or_equiv
_atom_site_adp_type
_atom_site_occupancy
C1     C     0.08650   0.16708   0.24791   0.00000  Uiso   1.00
C2     C     0.24678   0.16647   0.24916   0.00000  Uiso   1.00
C3     C     0.16567   0.16666   0.16367   0.00000  Uiso   1.00
C4     C     0.16633   0.16670   0.33608   0.00000  Uiso   1.00
C5     C     0.18710   0.02379   0.28234   0.00000  Uiso   1.00
C6     C     0.14598   0.30950   0.21783   0.00000  Uiso   1.00
C7     C     0.14642   0.02409   0.21761   0.00000  Uiso   1.00
C8     C     0.18750   0.30912   0.28211   0.00000  Uiso   1.00
C9     C     0.02118   0.12666   0.23767   0.00000  Uiso   1.00
C10    C     0.31108   0.20648   0.23112   0.00000  Uiso   1.00
C11    C     0.31415   0.12613   0.25186   0.00000  Uiso   1.00
C12    C     0.01922   0.20966   0.24276   0.00000  Uiso   1.00
C13    C     0.15934   0.20772   0.04617   0.00000  Uiso   1.00
C14    C     0.18035   0.13239   0.45399   0.00000  Uiso   1.00
C15    C     0.13652   0.19977   0.45083   0.00000  Uiso   1.00
C16    C     0.15326   0.12561   0.04678   0.00000  Uiso   1.00
C17    C     0.16192   0.20802   0.09197   0.00000  Uiso   1.00
C18    C     0.18325   0.13239   0.40832   0.00000  Uiso   1.00
C19    C     0.14034   0.20066   0.40515   0.00000  Uiso   1.00
C20    C     0.15727   0.12541   0.09240   0.00000  Uiso   1.00
C21    C     0.16195   0.16668   0.11551   0.00000  Uiso   1.00
C22    C     0.16360   0.16679   0.38378   0.00000  Uiso   1.00
C23    C     0.15545   0.16653   0.02347   0.00000  Uiso   1.00
C24    C     0.15683   0.16588   0.47538   0.00000  Uiso   1.00
C25    C     0.29081   0.16629   0.24449   0.00000  Uiso   1.00
C26    C     0.04223   0.16813   0.24283   0.00000  Uiso   1.00
H27    H     0.16156   0.23964   0.02848   0.00000  Uiso   1.00
H28    H     0.19715   0.10666   0.47262   0.00000  Uiso   1.00
H29    H     0.11780   0.22552   0.46698   0.00000  Uiso   1.00
H30    H     0.14938   0.09356   0.02955   0.00000  Uiso   1.00
N31    N     0.16667   0.28573   0.25000   0.00000  Uiso   1.00
N32    N     0.16667   0.04760   0.25000   0.00000  Uiso   1.00
O33    O     0.10559   0.20487   0.24999   0.00000  Uiso   1.00
O34    O     0.22774   0.12846   0.25000   0.00000  Uiso   1.00
O35    O     0.22774   0.20487   0.25000   0.00000  Uiso   1.00
O36    O     0.10559   0.12846   0.24999   0.00000  Uiso   1.00
O37    O     0.16666   0.20489   0.18453   0.00000  Uiso   1.00
O38    O     0.16667   0.12845   0.31547   0.00000  Uiso   1.00
O39    O     0.16667   0.20489   0.31547   0.00000  Uiso   1.00
O40    O     0.16666   0.12845   0.18453   0.00000  Uiso   1.00
Zn41   Zn    0.16667   0.21771   0.25000   0.00000  Uiso   1.00
Zn42   Zn    0.16667   0.11563   0.25000   0.00000  Uiso   1.00
F43    F     0.20708   0.04632   0.31494   0.00000  Uiso   1.00
F44    F     0.12474   0.28704   0.18589   0.00000  Uiso   1.00
F45    F     0.12678   0.04685   0.18482   0.00000  Uiso   1.00
F46    F     0.20874   0.28621   0.31403   0.00000  Uiso   1.00
F47    F     0.16508   0.24880   0.11272   0.00000  Uiso   1.00
F48    F     0.20611   0.09952   0.38842   0.00000  Uiso   1.00
F49    F     0.12061   0.23392   0.38191   0.00000  Uiso   1.00
F50    F     0.15706   0.08464   0.11335   0.00000  Uiso   1.00
C51    C     0.03669   0.08671   0.21001   0.00000  Uiso   1.00
C52    C     0.04796   0.10229   0.16280   0.00000  Uiso   1.00
C53    C     0.04591   0.06332   0.12926   0.00000  Uiso   1.00
H54    H     0.06421   0.03352   0.14078   0.00000  Uiso   1.00
H55    H     0.01341   0.05270   0.12437   0.00000  Uiso   1.00
H56    H     0.05820   0.07482   0.09684   0.00000  Uiso   1.00
H57    H     0.02619   0.12937   0.15138   0.00000  Uiso   1.00
H58    H     0.07946   0.11678   0.16295   0.00000  Uiso   1.00
H59    H     0.06264   0.06867   0.22653   0.00000  Uiso   1.00
H60    H     0.01191   0.06098   0.20670   0.00000  Uiso   1.00
C61    C     0.29162   0.24273   0.20097   0.00000  Uiso   1.00
C62    C     0.27539   0.22201   0.15748   0.00000  Uiso   1.00
C63    C     0.26104   0.25899   0.12524   0.00000  Uiso   1.00
H64    H     0.23639   0.28012   0.14057   0.00000  Uiso   1.00
H65    H     0.28723   0.28115   0.11615   0.00000  Uiso   1.00
H66    H     0.24880   0.24309   0.09447   0.00000  Uiso   1.00
H67    H     0.30032   0.20173   0.14149   0.00000  Uiso   1.00
H68    H     0.24925   0.19903   0.16406   0.00000  Uiso   1.00
H69    H     0.26733   0.26253   0.21831   0.00000  Uiso   1.00
H70    H     0.31513   0.26781   0.19078   0.00000  Uiso   1.00
C71    C     0.30055   0.08541   0.27922   0.00000  Uiso   1.00
C72    C     0.29280   0.09947   0.32767   0.00000  Uiso   1.00
C73    C     0.29616   0.05894   0.35929   0.00000  Uiso   1.00
H74    H     0.27598   0.03082   0.34823   0.00000  Uiso   1.00
H75    H     0.32850   0.04626   0.36071   0.00000  Uiso   1.00
H76    H     0.28698   0.06961   0.39322   0.00000  Uiso   1.00
H77    H     0.31591   0.12504   0.33841   0.00000  Uiso   1.00
H78    H     0.26178   0.11536   0.33046   0.00000  Uiso   1.00
H79    H     0.27352   0.06818   0.26440   0.00000  Uiso   1.00
H80    H     0.32541   0.05912   0.27965   0.00000  Uiso   1.00
C81    C     0.03565   0.25601   0.25720   0.00000  Uiso   1.00
C82    C     0.04568   0.25704   0.30713   0.00000  Uiso   1.00
C83    C     0.06465   0.30241   0.32049   0.00000  Uiso   1.00
H84    H     0.09475   0.30687   0.30380   0.00000  Uiso   1.00
H85    H     0.04376   0.33103   0.31121   0.00000  Uiso   1.00
H86    H     0.06969   0.30325   0.35699   0.00000  Uiso   1.00
H87    H     0.01675   0.25224   0.32614   0.00000  Uiso   1.00
H88    H     0.06716   0.22914   0.31662   0.00000  Uiso   1.00
H89    H     0.06200   0.26652   0.23650   0.00000  Uiso   1.00
H90    H     0.01213   0.28322   0.25242   0.00000  Uiso   1.00
C91    C     0.41984   0.16708   0.24791   0.00000  Uiso   1.00
C92    C     0.58011   0.16647   0.24916   0.00000  Uiso   1.00
C93    C     0.49900   0.16666   0.16367   0.00000  Uiso   1.00
C94    C     0.49966   0.16670   0.33608   0.00000  Uiso   1.00
C95    C     0.52043   0.02379   0.28234   0.00000  Uiso   1.00
C96    C     0.47931   0.30950   0.21783   0.00000  Uiso   1.00
C97    C     0.47975   0.02409   0.21761   0.00000  Uiso   1.00
C98    C     0.52084   0.30912   0.28211   0.00000  Uiso   1.00
C99    C     0.35451   0.12666   0.23767   0.00000  Uiso   1.00
C100   C     0.64441   0.20648   0.23112   0.00000  Uiso   1.00
C101   C     0.64749   0.12613   0.25186   0.00000  Uiso   1.00
C102   C     0.35255   0.20966   0.24276   0.00000  Uiso   1.00
C103   C     0.49267   0.20772   0.04617   0.00000  Uiso   1.00
C104   C     0.51369   0.13239   0.45399   0.00000  Uiso   1.00
C105   C     0.46985   0.19977   0.45083   0.00000  Uiso   1.00
C106   C     0.48659   0.12561   0.04678   0.00000  Uiso   1.00
C107   C     0.49525   0.20802   0.09197   0.00000  Uiso   1.00
C108   C     0.51658   0.13239   0.40832   0.00000  Uiso   1.00
C109   C     0.47367   0.20066   0.40515   0.00000  Uiso   1.00
C110   C     0.49061   0.12541   0.09240   0.00000  Uiso   1.00
C111   C     0.49529   0.16668   0.11551   0.00000  Uiso   1.00
C112   C     0.49694   0.16679   0.38378   0.00000  Uiso   1.00
C113   C     0.48878   0.16653   0.02347   0.00000  Uiso   1.00
C114   C     0.49016   0.16588   0.47538   0.00000  Uiso   1.00
C115   C     0.62415   0.16629   0.24449   0.00000  Uiso   1.00
C116   C     0.37557   0.16813   0.24283   0.00000  Uiso   1.00
H117   H     0.49489   0.23964   0.02848   0.00000  Uiso   1.00
H118   H     0.53048   0.10666   0.47262   0.00000  Uiso   1.00
H119   H     0.45114   0.22552   0.46698   0.00000  Uiso   1.00
H120   H     0.48272   0.09356   0.02955   0.00000  Uiso   1.00
N121   N     0.50000   0.28573   0.25000   0.00000  Uiso   1.00
N122   N     0.50000   0.04760   0.25000   0.00000  Uiso   1.00
O123   O     0.43892   0.20487   0.24999   0.00000  Uiso   1.00
O124   O     0.56108   0.12846   0.25000   0.00000  Uiso   1.00
O125   O     0.56108   0.20487   0.25000   0.00000  Uiso   1.00
O126   O     0.43892   0.12846   0.24999   0.00000  Uiso   1.00
O127   O     0.50000   0.20489   0.18453   0.00000  Uiso   1.00
O128   O     0.50000   0.12845   0.31547   0.00000  Uiso   1.00
O129   O     0.50000   0.20489   0.31547   0.00000  Uiso   1.00
O130   O     0.50000   0.12845   0.18453   0.00000  Uiso   1.00
Zn131  Zn    0.50000   0.21771   0.25000   0.00000  Uiso   1.00
Zn132  Zn    0.50000   0.11563   0.25000   0.00000  Uiso   1.00
F133   F     0.54041   0.04632   0.31494   0.00000  Uiso   1.00
F134   F     0.45808   0.28704   0.18589   0.00000  Uiso   1.00
F135   F     0.46011   0.04685   0.18482   0.00000  Uiso   1.00
F136   F     0.54208   0.28621   0.31403   0.00000  Uiso   1.00
F137   F     0.49841   0.24880   0.11272   0.00000  Uiso   1.00
F138   F     0.53944   0.09952   0.38842   0.00000  Uiso   1.00
F139   F     0.45394   0.23392   0.38191   0.00000  Uiso   1.00
F140   F     0.49039   0.08464   0.11335   0.00000  Uiso   1.00
C141   C     0.37002   0.08671   0.21001   0.00000  Uiso   1.00
C142   C     0.38130   0.10229   0.16280   0.00000  Uiso   1.00
C143   C     0.37925   0.06332   0.12926   0.00000  Uiso   1.00
H144   H     0.39754   0.03352   0.14078   0.00000  Uiso   1.00
H145   H     0.34674   0.05270   0.12437   0.00000  Uiso   1.00
H146   H     0.39153   0.07482   0.09684   0.00000  Uiso   1.00
H147   H     0.35953   0.12937   0.15138   0.00000  Uiso   1.00
H148   H     0.41279   0.11678   0.16295   0.00000  Uiso   1.00
H149   H     0.39597   0.06867   0.22653   0.00000  Uiso   1.00
H150   H     0.34524   0.06098   0.20670   0.00000  Uiso   1.00
C151   C     0.62496   0.24273   0.20097   0.00000  Uiso   1.00
C152   C     0.60873   0.22201   0.15748   0.00000  Uiso   1.00
C153   C     0.59437   0.25899   0.12524   0.00000  Uiso   1.00
H154   H     0.56973   0.28012   0.14057   0.00000  Uiso   1.00
H155   H     0.62056   0.28115   0.11615   0.00000  Uiso   1.00
H156   H     0.58213   0.24309   0.09447   0.00000  Uiso   1.00
H157   H     0.63365   0.20173   0.14149   0.00000  Uiso   1.00
H158   H     0.58259   0.19903   0.16406   0.00000  Uiso   1.00
H159   H     0.60066   0.26253   0.21831   0.00000  Uiso   1.00
H160   H     0.64846   0.26781   0.19078   0.00000  Uiso   1.00
C161   C     0.63388   0.08541   0.27922   0.00000  Uiso   1.00
C162   C     0.62614   0.09947   0.32767   0.00000  Uiso   1.00
C163   C     0.62949   0.05894   0.35929   0.00000  Uiso   1.00
H164   H     0.60931   0.03082   0.34823   0.00000  Uiso   1.00
H165   H     0.66184   0.04626   0.36071   0.00000  Uiso   1.00
H166   H     0.62031   0.06961   0.39322   0.00000  Uiso   1.00
H167   H     0.64924   0.12504   0.33841   0.00000  Uiso   1.00
H168   H     0.59512   0.11536   0.33046   0.00000  Uiso   1.00
H169   H     0.60686   0.06818   0.26440   0.00000  Uiso   1.00
H170   H     0.65875   0.05912   0.27965   0.00000  Uiso   1.00
C171   C     0.36898   0.25601   0.25720   0.00000  Uiso   1.00
C172   C     0.37901   0.25704   0.30713   0.00000  Uiso   1.00
C173   C     0.39798   0.30241   0.32049   0.00000  Uiso   1.00
H174   H     0.42809   0.30687   0.30380   0.00000  Uiso   1.00
H175   H     0.37709   0.33103   0.31121   0.00000  Uiso   1.00
H176   H     0.40302   0.30325   0.35699   0.00000  Uiso   1.00
H177   H     0.35008   0.25224   0.32614   0.00000  Uiso   1.00
H178   H     0.40050   0.22914   0.31662   0.00000  Uiso   1.00
H179   H     0.39533   0.26652   0.23650   0.00000  Uiso   1.00
H180   H     0.34547   0.28322   0.25242   0.00000  Uiso   1.00
C181   C     0.75317   0.16708   0.24791   0.00000  Uiso   1.00
C182   C     0.91344   0.16647   0.24916   0.00000  Uiso   1.00
C183   C     0.83233   0.16666   0.16367   0.00000  Uiso   1.00
C184   C     0.83299   0.16670   0.33608   0.00000  Uiso   1.00
C185   C     0.85376   0.02379   0.28234   0.00000  Uiso   1.00
C186   C     0.81265   0.30950   0.21783   0.00000  Uiso   1.00
C187   C     0.81308   0.02409   0.21761   0.00000  Uiso   1.00
C188   C     0.85417   0.30912   0.28211   0.00000  Uiso   1.00
C189   C     0.68784   0.12666   0.23767   0.00000  Uiso   1.00
C190   C     0.97775   0.20648   0.23112   0.00000  Uiso   1.00
C191   C     0.98082   0.12613   0.25186   0.00000  Uiso   1.00
C192   C     0.68588   0.20966   0.24276   0.00000  Uiso   1.00
C193   C     0.82601   0.20772   0.04617   0.00000  Uiso   1.00
C194   C     0.84702   0.13239   0.45399   0.00000  Uiso   1.00
C195   C     0.80318   0.19977   0.45083   0.00000  Uiso   1.00
C196   C     0.81992   0.12561   0.04678   0.00000  Uiso   1.00
C197   C     0.82858   0.20802   0.09197   0.00000  Uiso   1.00
C198   C     0.84992   0.13239   0.40832   0.00000  Uiso   1.00
C199   C     0.80701   0.20066   0.40515   0.00000  Uiso   1.00
C200   C     0.82394   0.12541   0.09240   0.00000  Uiso   1.00
C201   C     0.82862   0.16668   0.11551   0.00000  Uiso   1.00
C202   C     0.83027   0.16679   0.38378   0.00000  Uiso   1.00
C203   C     0.82211   0.16653   0.02347   0.00000  Uiso   1.00
C204   C     0.82349   0.16588   0.47538   0.00000  Uiso   1.00
C205   C     0.95748   0.16629   0.24449   0.00000  Uiso   1.00
C206   C     0.70890   0.16813   0.24283   0.00000  Uiso   1.00
H207   H     0.82822   0.23964   0.02848   0.00000  Uiso   1.00
H208   H     0.86382   0.10666   0.47262   0.00000  Uiso   1.00
H209   H     0.78447   0.22552   0.46698   0.00000  Uiso   1.00
H210   H     0.81605   0.09356   0.02955   0.00000  Uiso   1.00
N211   N     0.83333   0.28573   0.25000   0.00000  Uiso   1.00
N212   N     0.83333   0.04760   0.25000   0.00000  Uiso   1.00
O213   O     0.77226   0.20487   0.24999   0.00000  Uiso   1.00
O214   O     0.89441   0.12846   0.25000   0.00000  Uiso   1.00
O215   O     0.89441   0.20487   0.25000   0.00000  Uiso   1.00
O216   O     0.77226   0.12846   0.24999   0.00000  Uiso   1.00
O217   O     0.83333   0.20489   0.18453   0.00000  Uiso   1.00
O218   O     0.83334   0.12845   0.31547   0.00000  Uiso   1.00
O219   O     0.83334   0.20489   0.31547   0.00000  Uiso   1.00
O220   O     0.83333   0.12845   0.18453   0.00000  Uiso   1.00
Zn221  Zn    0.83333   0.21771   0.25000   0.00000  Uiso   1.00
Zn222  Zn    0.83333   0.11563   0.25000   0.00000  Uiso   1.00
F223   F     0.87374   0.04632   0.31494   0.00000  Uiso   1.00
F224   F     0.79141   0.28704   0.18589   0.00000  Uiso   1.00
F225   F     0.79344   0.04685   0.18482   0.00000  Uiso   1.00
F226   F     0.87541   0.28621   0.31403   0.00000  Uiso   1.00
F227   F     0.83174   0.24880   0.11272   0.00000  Uiso   1.00
F228   F     0.87277   0.09952   0.38842   0.00000  Uiso   1.00
F229   F     0.78728   0.23392   0.38191   0.00000  Uiso   1.00
F230   F     0.82373   0.08464   0.11335   0.00000  Uiso   1.00
C231   C     0.70336   0.08671   0.21001   0.00000  Uiso   1.00
C232   C     0.71463   0.10229   0.16280   0.00000  Uiso   1.00
C233   C     0.71258   0.06332   0.12926   0.00000  Uiso   1.00
H234   H     0.73088   0.03352   0.14078   0.00000  Uiso   1.00
H235   H     0.68008   0.05270   0.12437   0.00000  Uiso   1.00
H236   H     0.72487   0.07482   0.09684   0.00000  Uiso   1.00
H237   H     0.69286   0.12937   0.15138   0.00000  Uiso   1.00
H238   H     0.74613   0.11678   0.16295   0.00000  Uiso   1.00
H239   H     0.72930   0.06867   0.22653   0.00000  Uiso   1.00
H240   H     0.67858   0.06098   0.20670   0.00000  Uiso   1.00
C241   C     0.95829   0.24273   0.20097   0.00000  Uiso   1.00
C242   C     0.94206   0.22201   0.15748   0.00000  Uiso   1.00
C243   C     0.92771   0.25899   0.12524   0.00000  Uiso   1.00
H244   H     0.90306   0.28012   0.14057   0.00000  Uiso   1.00
H245   H     0.95389   0.28115   0.11615   0.00000  Uiso   1.00
H246   H     0.91546   0.24309   0.09447   0.00000  Uiso   1.00
H247   H     0.96698   0.20173   0.14149   0.00000  Uiso   1.00
H248   H     0.91592   0.19903   0.16406   0.00000  Uiso   1.00
H249   H     0.93399   0.26253   0.21831   0.00000  Uiso   1.00
H250   H     0.98179   0.26781   0.19078   0.00000  Uiso   1.00
C251   C     0.96722   0.08541   0.27922   0.00000  Uiso   1.00
C252   C     0.95947   0.09947   0.32767   0.00000  Uiso   1.00
C253   C     0.96283   0.05894   0.35929   0.00000  Uiso   1.00
H254   H     0.94264   0.03082   0.34823   0.00000  Uiso   1.00
H255   H     0.99517   0.04626   0.36071   0.00000  Uiso   1.00
H256   H     0.95364   0.06961   0.39322   0.00000  Uiso   1.00
H257   H     0.98258   0.12504   0.33841   0.00000  Uiso   1.00
H258   H     0.92845   0.11536   0.33046   0.00000  Uiso   1.00
H259   H     0.94019   0.06818   0.26440   0.00000  Uiso   1.00
H260   H     0.99208   0.05912   0.27965   0.00000  Uiso   1.00
C261   C     0.70232   0.25601   0.25720   0.00000  Uiso   1.00
C262   C     0.71234   0.25704   0.30713   0.00000  Uiso   1.00
C263   C     0.73131   0.30241   0.32049   0.00000  Uiso   1.00
H264   H     0.76142   0.30687   0.30380   0.00000  Uiso   1.00
H265   H     0.71042   0.33103   0.31121   0.00000  Uiso   1.00
H266   H     0.73636   0.30325   0.35699   0.00000  Uiso   1.00
H267   H     0.68341   0.25224   0.32614   0.00000  Uiso   1.00
H268   H     0.73383   0.22914   0.31662   0.00000  Uiso   1.00
H269   H     0.72866   0.26652   0.23650   0.00000  Uiso   1.00
H270   H     0.67880   0.28322   0.25242   0.00000  Uiso   1.00
C271   C     0.08650   0.50041   0.24791   0.00000  Uiso   1.00
C272   C     0.24678   0.49980   0.24916   0.00000  Uiso   1.00
C273   C     0.16567   0.50000   0.16367   0.00000  Uiso   1.00
C274   C     0.16633   0.50004   0.33608   0.00000  Uiso   1.00
C275   C     0.18710   0.35712   0.28234   0.00000  Uiso   1.00
C276   C     0.14598   0.64283   0.21783   0.00000  Uiso   1.00
C277   C     0.14642   0.35743   0.21761   0.00000  Uiso   1.00
C278   C     0.18750   0.64246   0.28211   0.00000  Uiso   1.00
C279   C     0.02118   0.46000   0.23767   0.00000  Uiso   1.00
C280   C     0.31108   0.53982   0.23112   0.00000  Uiso   1.00
C281   C     0.31415   0.45946   0.25186   0.00000  Uiso   1.00
C282   C     0.01922   0.54299   0.24276   0.00000  Uiso   1.00
C283   C     0.15934   0.54105   0.04617   0.00000  Uiso   1.00
C284   C     0.18035   0.46572   0.45399   0.00000  Uiso   1.00
C285   C     0.13652   0.53310   0.45083   0.00000  Uiso   1.00
C286   C     0.15326   0.45894   0.04678   0.00000  Uiso   1.00
C287   C     0.16192   0.54135   0.09197   0.00000  Uiso   1.00
C288   C     0.18325   0.46572   0.40832   0.00000  Uiso   1.00
C289   C     0.14034   0.53400   0.40515   0.00000  Uiso   1.00
C290   C     0.15727   0.45874   0.09240   0.00000  Uiso   1.00
C291   C     0.16195   0.50001   0.11551   0.00000  Uiso   1.00
C292   C     0.16360   0.50013   0.38378   0.00000  Uiso   1.00
C293   C     0.15545   0.49986   0.02347   0.00000  Uiso   1.00
C294   C     0.15683   0.49922   0.47538   0.00000  Uiso   1.00
C295   C     0.29081   0.49963   0.24449   0.00000  Uiso   1.00
C296   C     0.04223   0.50147   0.24283   0.00000  Uiso   1.00
H297   H     0.16156   0.57298   0.02848   0.00000  Uiso   1.00
H298   H     0.19715   0.44000   0.47262   0.00000  Uiso   1.00
H299   H     0.11780   0.55885   0.46698   0.00000  Uiso   1.00
H300   H     0.14938   0.42690   0.02955   0.00000  Uiso   1.00
N301   N     0.16667   0.61907   0.25000   0.00000  Uiso   1.00
N302   N     0.16667   0.38093   0.25000   0.00000  Uiso   1.00
O303   O     0.10559   0.53821   0.24999   0.00000  Uiso   1.00
O304   O     0.22774   0.46179   0.25000   0.00000  Uiso   1.00
O305   O     0.22774   0.53821   0.25000   0.00000  Uiso   1.00
O306   O     0.10559   0.46179   0.24999   0.00000  Uiso   1.00
O307   O     0.16666   0.53822   0.18453   0.00000  Uiso   1.00
O308   O     0.16667   0.46178   0.31547   0.00000  Uiso   1.00
O309   O     0.16667   0.53822   0.31547   0.00000  Uiso   1.00
O310   O     0.16666   0.46178   0.18453   0.00000  Uiso   1.00
Zn311  Zn    0.16667   0.55104   0.25000   0.00000  Uiso   1.00
Zn312  Zn    0.16667   0.44896   0.25000   0.00000  Uiso   1.00
F313   F     0.20708   0.37965   0.31494   0.00000  Uiso   1.00
F314   F     0.12474   0.62037   0.18589   0.00000  Uiso   1.00
F315   F     0.12678   0.38019   0.18482   0.00000  Uiso   1.00
F316   F     0.20874   0.61954   0.31403   0.00000  Uiso   1.00
F317   F     0.16508   0.58213   0.11272   0.00000  Uiso   1.00
F318   F     0.20611   0.43286   0.38842   0.00000  Uiso   1.00
F319   F     0.12061   0.56726   0.38191   0.00000  Uiso   1.00
F320   F     0.15706   0.41798   0.11335   0.00000  Uiso   1.00
C321   C     0.03669   0.42005   0.21001   0.00000  Uiso   1.00
C322   C     0.04796   0.43562   0.16280   0.00000  Uiso   1.00
C323   C     0.04591   0.39666   0.12926   0.00000  Uiso   1.00
H324   H     0.06421   0.36685   0.14078   0.00000  Uiso   1.00
H325   H     0.01341   0.38603   0.12437   0.00000  Uiso   1.00
H326   H     0.05820   0.40816   0.09684   0.00000  Uiso   1.00
H327   H     0.02619   0.46270   0.15138   0.00000  Uiso   1.00
H328   H     0.07946   0.45012   0.16295   0.00000  Uiso   1.00
H329   H     0.06264   0.40201   0.22653   0.00000  Uiso   1.00
H330   H     0.01191   0.39432   0.20670   0.00000  Uiso   1.00
C331   C     0.29162   0.57607   0.20097   0.00000  Uiso   1.00
C332   C     0.27539   0.55534   0.15748   0.00000  Uiso   1.00
C333   C     0.26104   0.59232   0.12524   0.00000  Uiso   1.00
H334   H     0.23639   0.61346   0.14057   0.00000  Uiso   1.00
H335   H     0.28723   0.61448   0.11615   0.00000  Uiso   1.00
H336   H     0.24880   0.57642   0.09447   0.00000  Uiso   1.00
H337   H     0.30032   0.53506   0.14149   0.00000  Uiso   1.00
H338   H     0.24925   0.53236   0.16406   0.00000  Uiso   1.00
H339   H     0.26733   0.59587   0.21831   0.00000  Uiso   1.00
H340   H     0.31513   0.60114   0.19078   0.00000  Uiso   1.00
C341   C     0.30055   0.41874   0.27922   0.00000  Uiso   1.00
C342   C     0.29280   0.43281   0.32767   0.00000  Uiso   1.00
C343   C     0.29616   0.39228   0.35929   0.00000  Uiso   1.00
H344   H     0.27598   0.36416   0.34823   0.00000  Uiso   1.00
H345   H     0.32850   0.37959   0.36071   0.00000  Uiso   1.00
H346   H     0.28698   0.40294   0.39322   0.00000  Uiso   1.00
H347   H     0.31591   0.45837   0.33841   0.00000  Uiso   1.00
H348   H     0.26178   0.44870   0.33046   0.00000  Uiso   1.00
H349   H     0.27352   0.40151   0.26440   0.00000  Uiso   1.00
H350   H     0.32541   0.39245   0.27965   0.00000  Uiso   1.00
C351   C     0.03565   0.58935   0.25720   0.00000  Uiso   1.00
C352   C     0.04568   0.59037   0.30713   0.00000  Uiso   1.00
C353   C     0.06465   0.63574   0.32049   0.00000  Uiso   1.00
H354   H     0.09475   0.64020   0.30380   0.00000  Uiso   1.00
H355   H     0.04376   0.66436   0.31121   0.00000  Uiso   1.00
H356   H     0.06969   0.63659   0.35699   0.00000  Uiso   1.00
H357   H     0.01675   0.58558   0.32614   0.00000  Uiso   1.00
H358   H     0.06716   0.56248   0.31662   0.00000  Uiso   1.00
H359   H     0.06200   0.59985   0.23650   0.00000  Uiso   1.00
H360   H     0.01213   0.61655   0.25242   0.00000  Uiso   1.00
C361   C     0.41984   0.50041   0.24791   0.00000  Uiso   1.00
C362   C     0.58011   0.49980   0.24916   0.00000  Uiso   1.00
C363   C     0.49900   0.50000   0.16367   0.00000  Uiso   1.00
C364   C     0.49966   0.50004   0.33608   0.00000  Uiso   1.00
C365   C     0.52043   0.35712   0.28234   0.00000  Uiso   1.00
C366   C     0.47931   0.64283   0.21783   0.00000  Uiso   1.00
C367   C     0.47975   0.35743   0.21761   0.00000  Uiso   1.00
C368   C     0.52084   0.64246   0.28211   0.00000  Uiso   1.00
C369   C     0.35451   0.46000   0.23767   0.00000  Uiso   1.00
C370   C     0.64441   0.53982   0.23112   0.00000  Uiso   1.00
C371   C     0.64749   0.45946   0.25186   0.00000  Uiso   1.00
C372   C     0.35255   0.54299   0.24276   0.00000  Uiso   1.00
C373   C     0.49267   0.54105   0.04617   0.00000  Uiso   1.00
C374   C     0.51369   0.46572   0.45399   0.00000  Uiso   1.00
C375   C     0.46985   0.53310   0.45083   0.00000  Uiso   1.00
C376   C     0.48659   0.45894   0.04678   0.00000  Uiso   1.00
C377   C     0.49525   0.54135   0.09197   0.00000  Uiso   1.00
C378   C     0.51658   0.46572   0.40832   0.00000  Uiso   1.00
C379   C     0.47367   0.53400   0.40515   0.00000  Uiso   1.00
C380   C     0.49061   0.45874   0.09240   0.00000  Uiso   1.00
C381   C     0.49529   0.50001   0.11551   0.00000  Uiso   1.00
C382   C     0.49694   0.50013   0.38378   0.00000  Uiso   1.00
C383   C     0.48878   0.49986   0.02347   0.00000  Uiso   1.00
C384   C     0.49016   0.49922   0.47538   0.00000  Uiso   1.00
C385   C     0.62415   0.49963   0.24449   0.00000  Uiso   1.00
C386   C     0.37557   0.50147   0.24283   0.00000  Uiso   1.00
H387   H     0.49489   0.57298   0.02848   0.00000  Uiso   1.00
H388   H     0.53048   0.44000   0.47262   0.00000  Uiso   1.00
H389   H     0.45114   0.55885   0.46698   0.00000  Uiso   1.00
H390   H     0.48272   0.42690   0.02955   0.00000  Uiso   1.00
N391   N     0.50000   0.61907   0.25000   0.00000  Uiso   1.00
N392   N     0.50000   0.38093   0.25000   0.00000  Uiso   1.00
O393   O     0.43892   0.53821   0.24999   0.00000  Uiso   1.00
O394   O     0.56108   0.46179   0.25000   0.00000  Uiso   1.00
O395   O     0.56108   0.53821   0.25000   0.00000  Uiso   1.00
O396   O     0.43892   0.46179   0.24999   0.00000  Uiso   1.00
O397   O     0.50000   0.53822   0.18453   0.00000  Uiso   1.00
O398   O     0.50000   0.46178   0.31547   0.00000  Uiso   1.00
O399   O     0.50000   0.53822   0.31547   0.00000  Uiso   1.00
O400   O     0.50000   0.46178   0.18453   0.00000  Uiso   1.00
Zn401  Zn    0.50000   0.55104   0.25000   0.00000  Uiso   1.00
Zn402  Zn    0.50000   0.44896   0.25000   0.00000  Uiso   1.00
F403   F     0.54041   0.37965   0.31494   0.00000  Uiso   1.00
F404   F     0.45808   0.62037   0.18589   0.00000  Uiso   1.00
F405   F     0.46011   0.38019   0.18482   0.00000  Uiso   1.00
F406   F     0.54208   0.61954   0.31403   0.00000  Uiso   1.00
F407   F     0.49841   0.58213   0.11272   0.00000  Uiso   1.00
F408   F     0.53944   0.43286   0.38842   0.00000  Uiso   1.00
F409   F     0.45394   0.56726   0.38191   0.00000  Uiso   1.00
F410   F     0.49039   0.41798   0.11335   0.00000  Uiso   1.00
C411   C     0.37002   0.42005   0.21001   0.00000  Uiso   1.00
C412   C     0.38130   0.43562   0.16280   0.00000  Uiso   1.00
C413   C     0.37925   0.39666   0.12926   0.00000  Uiso   1.00
H414   H     0.39754   0.36685   0.14078   0.00000  Uiso   1.00
H415   H     0.34674   0.38603   0.12437   0.00000  Uiso   1.00
H416   H     0.39153   0.40816   0.09684   0.00000  Uiso   1.00
H417   H     0.35953   0.46270   0.15138   0.00000  Uiso   1.00
H418   H     0.41279   0.45012   0.16295   0.00000  Uiso   1.00
H419   H     0.39597   0.40201   0.22653   0.00000  Uiso   1.00
H420   H     0.34524   0.39432   0.20670   0.00000  Uiso   1.00
C421   C     0.62496   0.57607   0.20097   0.00000  Uiso   1.00
C422   C     0.60873   0.55534   0.15748   0.00000  Uiso   1.00
C423   C     0.59437   0.59232   0.12524   0.00000  Uiso   1.00
H424   H     0.56973   0.61346   0.14057   0.00000  Uiso   1.00
H425   H     0.62056   0.61448   0.11615   0.00000  Uiso   1.00
H426   H     0.58213   0.57642   0.09447   0.00000  Uiso   1.00
H427   H     0.63365   0.53506   0.14149   0.00000  Uiso   1.00
H428   H     0.58259   0.53236   0.16406   0.00000  Uiso   1.00
H429   H     0.60066   0.59587   0.21831   0.00000  Uiso   1.00
H430   H     0.64846   0.60114   0.19078   0.00000  Uiso   1.00
C431   C     0.63388   0.41874   0.27922   0.00000  Uiso   1.00
C432   C     0.62614   0.43281   0.32767   0.00000  Uiso   1.00
C433   C     0.62949   0.39228   0.35929   0.00000  Uiso   1.00
H434   H     0.60931   0.36416   0.34823   0.00000  Uiso   1.00
H435   H     0.66184   0.37959   0.36071   0.00000  Uiso   1.00
H436   H     0.62031   0.40294   0.39322   0.00000  Uiso   1.00
H437   H     0.64924   0.45837   0.33841   0.00000  Uiso   1.00
H438   H     0.59512   0.44870   0.33046   0.00000  Uiso   1.00
H439   H     0.60686   0.40151   0.26440   0.00000  Uiso   1.00
H440   H     0.65875   0.39245   0.27965   0.00000  Uiso   1.00
C441   C     0.36898   0.58935   0.25720   0.00000  Uiso   1.00
C442   C     0.37901   0.59037   0.30713   0.00000  Uiso   1.00
C443   C     0.39798   0.63574   0.32049   0.00000  Uiso   1.00
H444   H     0.42809   0.64020   0.30380   0.00000  Uiso   1.00
H445   H     0.37709   0.66436   0.31121   0.00000  Uiso   1.00
H446   H     0.40302   0.63659   0.35699   0.00000  Uiso   1.00
H447   H     0.35008   0.58558   0.32614   0.00000  Uiso   1.00
H448   H     0.40050   0.56248   0.31662   0.00000  Uiso   1.00
H449   H     0.39533   0.59985   0.23650   0.00000  Uiso   1.00
H450   H     0.34547   0.61655   0.25242   0.00000  Uiso   1.00
C451   C     0.75317   0.50041   0.24791   0.00000  Uiso   1.00
C452   C     0.91344   0.49980   0.24916   0.00000  Uiso   1.00
C453   C     0.83233   0.50000   0.16367   0.00000  Uiso   1.00
C454   C     0.83299   0.50004   0.33608   0.00000  Uiso   1.00
C455   C     0.85376   0.35712   0.28234   0.00000  Uiso   1.00
C456   C     0.81265   0.64283   0.21783   0.00000  Uiso   1.00
C457   C     0.81308   0.35743   0.21761   0.00000  Uiso   1.00
C458   C     0.85417   0.64246   0.28211   0.00000  Uiso   1.00
C459   C     0.68784   0.46000   0.23767   0.00000  Uiso   1.00
C460   C     0.97775   0.53982   0.23112   0.00000  Uiso   1.00
C461   C     0.98082   0.45946   0.25186   0.00000  Uiso   1.00
C462   C     0.68588   0.54299   0.24276   0.00000  Uiso   1.00
C463   C     0.82601   0.54105   0.04617   0.00000  Uiso   1.00
C464   C     0.84702   0.46572   0.45399   0.00000  Uiso   1.00
C465   C     0.80318   0.53310   0.45083   0.00000  Uiso   1.00
C466   C     0.81992   0.45894   0.04678   0.00000  Uiso   1.00
C467   C     0.82858   0.54135   0.09197   0.00000  Uiso   1.00
C468   C     0.84992   0.46572   0.40832   0.00000  Uiso   1.00
C469   C     0.80701   0.53400   0.40515   0.00000  Uiso   1.00
C470   C     0.82394   0.45874   0.09240   0.00000  Uiso   1.00
C471   C     0.82862   0.50001   0.11551   0.00000  Uiso   1.00
C472   C     0.83027   0.50013   0.38378   0.00000  Uiso   1.00
C473   C     0.82211   0.49986   0.02347   0.00000  Uiso   1.00
C474   C     0.82349   0.49922   0.47538   0.00000  Uiso   1.00
C475   C     0.95748   0.49963   0.24449   0.00000  Uiso   1.00
C476   C     0.70890   0.50147   0.24283   0.00000  Uiso   1.00
H477   H     0.82822   0.57298   0.02848   0.00000  Uiso   1.00
H478   H     0.86382   0.44000   0.47262   0.00000  Uiso   1.00
H479   H     0.78447   0.55885   0.46698   0.00000  Uiso   1.00
H480   H     0.81605   0.42690   0.02955   0.00000  Uiso   1.00
N481   N     0.83333   0.61907   0.25000   0.00000  Uiso   1.00
N482   N     0.83333   0.38093   0.25000   0.00000  Uiso   1.00
O483   O     0.77226   0.53821   0.24999   0.00000  Uiso   1.00
O484   O     0.89441   0.46179   0.25000   0.00000  Uiso   1.00
O485   O     0.89441   0.53821   0.25000   0.00000  Uiso   1.00
O486   O     0.77226   0.46179   0.24999   0.00000  Uiso   1.00
O487   O     0.83333   0.53822   0.18453   0.00000  Uiso   1.00
O488   O     0.83334   0.46178   0.31547   0.00000  Uiso   1.00
O489   O     0.83334   0.53822   0.31547   0.00000  Uiso   1.00
O490   O     0.83333   0.46178   0.18453   0.00000  Uiso   1.00
Zn491  Zn    0.83333   0.55104   0.25000   0.00000  Uiso   1.00
Zn492  Zn    0.83333   0.44896   0.25000   0.00000  Uiso   1.00
F493   F     0.87374   0.37965   0.31494   0.00000  Uiso   1.00
F494   F     0.79141   0.62037   0.18589   0.00000  Uiso   1.00
F495   F     0.79344   0.38019   0.18482   0.00000  Uiso   1.00
F496   F     0.87541   0.61954   0.31403   0.00000  Uiso   1.00
F497   F     0.83174   0.58213   0.11272   0.00000  Uiso   1.00
F498   F     0.87277   0.43286   0.38842   0.00000  Uiso   1.00
F499   F     0.78728   0.56726   0.38191   0.00000  Uiso   1.00
F500   F     0.82373   0.41798   0.11335   0.00000  Uiso   1.00
C501   C     0.70336   0.42005   0.21001   0.00000  Uiso   1.00
C502   C     0.71463   0.43562   0.16280   0.00000  Uiso   1.00
C503   C     0.71258   0.39666   0.12926   0.00000  Uiso   1.00
H504   H     0.73088   0.36685   0.14078   0.00000  Uiso   1.00
H505   H     0.68008   0.38603   0.12437   0.00000  Uiso   1.00
H506   H     0.72487   0.40816   0.09684   0.00000  Uiso   1.00
H507   H     0.69286   0.46270   0.15138   0.00000  Uiso   1.00
H508   H     0.74613   0.45012   0.16295   0.00000  Uiso   1.00
H509   H     0.72930   0.40201   0.22653   0.00000  Uiso   1.00
H510   H     0.67858   0.39432   0.20670   0.00000  Uiso   1.00
C511   C     0.95829   0.57607   0.20097   0.00000  Uiso   1.00
C512   C     0.94206   0.55534   0.15748   0.00000  Uiso   1.00
C513   C     0.92771   0.59232   0.12524   0.00000  Uiso   1.00
H514   H     0.90306   0.61346   0.14057   0.00000  Uiso   1.00
H515   H     0.95389   0.61448   0.11615   0.00000  Uiso   1.00
H516   H     0.91546   0.57642   0.09447   0.00000  Uiso   1.00
H517   H     0.96698   0.53506   0.14149   0.00000  Uiso   1.00
H518   H     0.91592   0.53236   0.16406   0.00000  Uiso   1.00
H519   H     0.93399   0.59587   0.21831   0.00000  Uiso   1.00
H520   H     0.98179   0.60114   0.19078   0.00000  Uiso   1.00
C521   C     0.96722   0.41874   0.27922   0.00000  Uiso   1.00
C522   C     0.95947   0.43281   0.32767   0.00000  Uiso   1.00
C523   C     0.96283   0.39228   0.35929   0.00000  Uiso   1.00
H524   H     0.94264   0.36416   0.34823   0.00000  Uiso   1.00
H525   H     0.99517   0.37959   0.36071   0.00000  Uiso   1.00
H526   H     0.95364   0.40294   0.39322   0.00000  Uiso   1.00
H527   H     0.98258   0.45837   0.33841   0.00000  Uiso   1.00
H528   H     0.92845   0.44870   0.33046   0.00000  Uiso   1.00
H529   H     0.94019   0.40151   0.26440   0.00000  Uiso   1.00
H530   H     0.99208   0.39245   0.27965   0.00000  Uiso   1.00
C531   C     0.70232   0.58935   0.25720   0.00000  Uiso   1.00
C532   C     0.71234   0.59037   0.30713   0.00000  Uiso   1.00
C533   C     0.73131   0.63574   0.32049   0.00000  Uiso   1.00
H534   H     0.76142   0.64020   0.30380   0.00000  Uiso   1.00
H535   H     0.71042   0.66436   0.31121   0.00000  Uiso   1.00
H536   H     0.73636   0.63659   0.35699   0.00000  Uiso   1.00
H537   H     0.68341   0.58558   0.32614   0.00000  Uiso   1.00
H538   H     0.73383   0.56248   0.31662   0.00000  Uiso   1.00
H539   H     0.72866   0.59985   0.23650   0.00000  Uiso   1.00
H540   H     0.67880   0.61655   0.25242   0.00000  Uiso   1.00
C541   C     0.08650   0.83374   0.24791   0.00000  Uiso   1.00
C542   C     0.24678   0.83314   0.24916   0.00000  Uiso   1.00
C543   C     0.16567   0.83333   0.16367   0.00000  Uiso   1.00
C544   C     0.16633   0.83337   0.33608   0.00000  Uiso   1.00
C545   C     0.18710   0.69045   0.28234   0.00000  Uiso   1.00
C546   C     0.14598   0.97616   0.21783   0.00000  Uiso   1.00
C547   C     0.14642   0.69076   0.21761   0.00000  Uiso   1.00
C548   C     0.18750   0.97579   0.28211   0.00000  Uiso   1.00
C549   C     0.02118   0.79333   0.23767   0.00000  Uiso   1.00
C550   C     0.31108   0.87315   0.23112   0.00000  Uiso   1.00
C551   C     0.31415   0.79280   0.25186   0.00000  Uiso   1.00
C552   C     0.01922   0.87633   0.24276   0.00000  Uiso   1.00
C553   C     0.15934   0.87438   0.04617   0.00000  Uiso   1.00
C554   C     0.18035   0.79906   0.45399   0.00000  Uiso   1.00
C555   C     0.13652   0.86644   0.45083   0.00000  Uiso   1.00
C556   C     0.15326   0.79228   0.04678   0.00000  Uiso   1.00
C557   C     0.16192   0.87469   0.09197   0.00000  Uiso   1.00
C558   C     0.18325   0.79906   0.40832   0.00000  Uiso   1.00
C559   C     0.14034   0.86733   0.40515   0.00000  Uiso   1.00
C560   C     0.15727   0.79207   0.09240   0.00000  Uiso   1.00
C561   C     0.16195   0.83335   0.11551   0.00000  Uiso   1.00
C562   C     0.16360   0.83346   0.38378   0.00000  Uiso   1.00
C563   C     0.15545   0.83319   0.02347   0.00000  Uiso   1.00
C564   C     0.15683   0.83255   0.47538   0.00000  Uiso   1.00
C565   C     0.29081   0.83296   0.24449   0.00000  Uiso   1.00
C566   C     0.04223   0.83480   0.24283   0.00000  Uiso   1.00
H567   H     0.16156   0.90631   0.02848   0.00000  Uiso   1.00
H568   H     0.19715   0.77333   0.47262   0.00000  Uiso   1.00
H569   H     0.11780   0.89218   0.46698   0.00000  Uiso   1.00
H570   H     0.14938   0.76023   0.02955   0.00000  Uiso   1.00
N571   N     0.16667   0.95240   0.25000   0.00000  Uiso   1.00
N572   N     0.16667   0.71427   0.25000   0.00000  Uiso   1.00
O573   O     0.10559   0.87154   0.24999   0.00000  Uiso   1.00
O574   O     0.22774   0.79513   0.25000   0.00000  Uiso   1.00
O575   O     0.22774   0.87154   0.25000   0.00000  Uiso   1.00
O576   O     0.10559   0.79513   0.24999   0.00000  Uiso   1.00
O577   O     0.16666   0.87155   0.18453   0.00000  Uiso   1.00
O578   O     0.16667   0.79511   0.31547   0.00000  Uiso   1.00
O579   O     0.16667   0.87155   0.31547   0.00000  Uiso   1.00
O580   O     0.16666   0.79511   0.18453   0.00000  Uiso   1.00
Zn581  Zn    0.16667   0.88437   0.25000   0.00000  Uiso   1.00
Zn582  Zn    0.16667   0.78229   0.25000   0.00000  Uiso   1.00
F583   F     0.20708   0.71298   0.31494   0.00000  Uiso   1.00
F584   F     0.12474   0.95370   0.18589   0.00000  Uiso   1.00
F585   F     0.12678   0.71352   0.18482   0.00000  Uiso   1.00
F586   F     0.20874   0.95288   0.31403   0.00000  Uiso   1.00
F587   F     0.16508   0.91546   0.11272   0.00000  Uiso   1.00
F588   F     0.20611   0.76619   0.38842   0.00000  Uiso   1.00
F589   F     0.12061   0.90059   0.38191   0.00000  Uiso   1.00
F590   F     0.15706   0.75131   0.11335   0.00000  Uiso   1.00
C591   C     0.03669   0.75338   0.21001   0.00000  Uiso   1.00
C592   C     0.04796   0.76896   0.16280   0.00000  Uiso   1.00
C593   C     0.04591   0.72999   0.12926   0.00000  Uiso   1.00
H594   H     0.06421   0.70018   0.14078   0.00000  Uiso   1.00
H595   H     0.01341   0.71937   0.12437   0.00000  Uiso   1.00
H596   H     0.05820   0.74149   0.09684   0.00000  Uiso   1.00
H597   H     0.02619   0.79604   0.15138   0.00000  Uiso   1.00
H598   H     0.07946   0.78345   0.16295   0.00000  Uiso   1.00
H599   H     0.06264   0.73534   0.22653   0.00000  Uiso   1.00
H600   H     0.01191   0.72765   0.20670   0.00000  Uiso   1.00
C601   C     0.29162   0.90940   0.20097   0.00000  Uiso   1.00
C602   C     0.27539   0.88867   0.15748   0.00000  Uiso   1.00
C603   C     0.26104   0.92566   0.12524   0.00000  Uiso   1.00
H604   H     0.23639   0.94679   0.14057   0.00000  Uiso   1.00
H605   H     0.28723   0.94781   0.11615   0.00000  Uiso   1.00
H606   H     0.24880   0.90975   0.09447   0.00000  Uiso   1.00
H607   H     0.30032   0.86839   0.14149   0.00000  Uiso   1.00
H608   H     0.24925   0.86570   0.16406   0.00000  Uiso   1.00
H609   H     0.26733   0.92920   0.21831   0.00000  Uiso   1.00
H610   H     0.31513   0.93448   0.19078   0.00000  Uiso   1.00
C611   C     0.30055   0.75208   0.27922   0.00000  Uiso   1.00
C612   C     0.29280   0.76614   0.32767   0.00000  Uiso   1.00
C613   C     0.29616   0.72561   0.35929   0.00000  Uiso   1.00
H614   H     0.27598   0.69749   0.34823   0.00000  Uiso   1.00
H615   H     0.32850   0.71293   0.36071   0.00000  Uiso   1.00
H616   H     0.28698   0.73628   0.39322   0.00000  Uiso   1.00
H617   H     0.31591   0.79171   0.33841   0.00000  Uiso   1.00
H618   H     0.26178   0.78203   0.33046   0.00000  Uiso   1.00
H619   H     0.27352   0.73485   0.26440   0.00000  Uiso   1.00
H620   H     0.32541   0.72579   0.27965   0.00000  Uiso   1.00
C621   C     0.03565   0.92268   0.25720   0.00000  Uiso   1.00
C622   C     0.04568   0.92370   0.30713   0.00000  Uiso   1.00
C623   C     0.06465   0.96907   0.32049   0.00000  Uiso   1.00
H624   H     0.09475   0.97354   0.30380   0.00000  Uiso   1.00
H625   H     0.04376   0.99769   0.31121   0.00000  Uiso   1.00
H626   H     0.06969   0.96992   0.35699   0.00000  Uiso   1.00
H627   H     0.01675   0.91891   0.32614   0.00000  Uiso   1.00
H628   H     0.06716   0.89581   0.31662   0.00000  Uiso   1.00
H629   H     0.06200   0.93318   0.23650   0.00000  Uiso   1.00
H630   H     0.01213   0.94988   0.25242   0.00000  Uiso   1.00
C631   C     0.41984   0.83374   0.24791   0.00000  Uiso   1.00
C632   C     0.58011   0.83314   0.24916   0.00000  Uiso   1.00
C633   C     0.49900   0.83333   0.16367   0.00000  Uiso   1.00
C634   C     0.49966   0.83337   0.33608   0.00000  Uiso   1.00
C635   C     0.52043   0.69045   0.28234   0.00000  Uiso   1.00
C636   C     0.47931   0.97616   0.21783   0.00000  Uiso   1.00
C637   C     0.47975   0.69076   0.21761   0.00000  Uiso   1.00
C638   C     0.52084   0.97579   0.28211   0.00000  Uiso   1.00
C639   C     0.35451   0.79333   0.23767   0.00000  Uiso   1.00
C640   C     0.64441   0.87315   0.23112   0.00000  Uiso   1.00
C641   C     0.64749   0.79280   0.25186   0.00000  Uiso   1.00
C642   C     0.35255   0.87633   0.24276   0.00000  Uiso   1.00
C643   C     0.49267   0.87438   0.04617   0.00000  Uiso   1.00
C644   C     0.51369   0.79906   0.45399   0.00000  Uiso   1.00
C645   C     0.46985   0.86644   0.45083   0.00000  Uiso   1.00
C646   C     0.48659   0.79228   0.04678   0.00000  Uiso   1.00
C647   C     0.49525   0.87469   0.09197   0.00000  Uiso   1.00
C648   C     0.51658   0.79906   0.40832   0.00000  Uiso   1.00
C649   C     0.47367   0.86733   0.40515   0.00000  Uiso   1.00
C650   C     0.49061   0.79207   0.09240   0.00000  Uiso   1.00
C651   C     0.49529   0.83335   0.11551   0.00000  Uiso   1.00
C652   C     0.49694   0.83346   0.38378   0.00000  Uiso   1.00
C653   C     0.48878   0.83319   0.02347   0.00000  Uiso   1.00
C654   C     0.49016   0.83255   0.47538   0.00000  Uiso   1.00
C655   C     0.62415   0.83296   0.24449   0.00000  Uiso   1.00
C656   C     0.37557   0.83480   0.24283   0.00000  Uiso   1.00
H657   H     0.49489   0.90631   0.02848   0.00000  Uiso   1.00
H658   H     0.53048   0.77333   0.47262   0.00000  Uiso   1.00
H659   H     0.45114   0.89218   0.46698   0.00000  Uiso   1.00
H660   H     0.48272   0.76023   0.02955   0.00000  Uiso   1.00
N661   N     0.50000   0.95240   0.25000   0.00000  Uiso   1.00
N662   N     0.50000   0.71427   0.25000   0.00000  Uiso   1.00
O663   O     0.43892   0.87154   0.24999   0.00000  Uiso   1.00
O664   O     0.56108   0.79513   0.25000   0.00000  Uiso   1.00
O665   O     0.56108   0.87154   0.25000   0.00000  Uiso   1.00
O666   O     0.43892   0.79513   0.24999   0.00000  Uiso   1.00
O667   O     0.50000   0.87155   0.18453   0.00000  Uiso   1.00
O668   O     0.50000   0.79511   0.31547   0.00000  Uiso   1.00
O669   O     0.50000   0.87155   0.31547   0.00000  Uiso   1.00
O670   O     0.50000   0.79511   0.18453   0.00000  Uiso   1.00
Zn671  Zn    0.50000   0.88437   0.25000   0.00000  Uiso   1.00
Zn672  Zn    0.50000   0.78229   0.25000   0.00000  Uiso   1.00
F673   F     0.54041   0.71298   0.31494   0.00000  Uiso   1.00
F674   F     0.45808   0.95370   0.18589   0.00000  Uiso   1.00
F675   F     0.46011   0.71352   0.18482   0.00000  Uiso   1.00
F676   F     0.54208   0.95288   0.31403   0.00000  Uiso   1.00
F677   F     0.49841   0.91546   0.11272   0.00000  Uiso   1.00
F678   F     0.53944   0.76619   0.38842   0.00000  Uiso   1.00
F679   F     0.45394   0.90059   0.38191   0.00000  Uiso   1.00
F680   F     0.49039   0.75131   0.11335   0.00000  Uiso   1.00
C681   C     0.37002   0.75338   0.21001   0.00000  Uiso   1.00
C682   C     0.38130   0.76896   0.16280   0.00000  Uiso   1.00
C683   C     0.37925   0.72999   0.12926   0.00000  Uiso   1.00
H684   H     0.39754   0.70018   0.14078   0.00000  Uiso   1.00
H685   H     0.34674   0.71937   0.12437   0.00000  Uiso   1.00
H686   H     0.39153   0.74149   0.09684   0.00000  Uiso   1.00
H687   H     0.35953   0.79604   0.15138   0.00000  Uiso   1.00
H688   H     0.41279   0.78345   0.16295   0.00000  Uiso   1.00
H689   H     0.39597   0.73534   0.22653   0.00000  Uiso   1.00
H690   H     0.34524   0.72765   0.20670   0.00000  Uiso   1.00
C691   C     0.62496   0.90940   0.20097   0.00000  Uiso   1.00
C692   C     0.60873   0.88867   0.15748   0.00000  Uiso   1.00
C693   C     0.59437   0.92566   0.12524   0.00000  Uiso   1.00
H694   H     0.56973   0.94679   0.14057   0.00000  Uiso   1.00
H695   H     0.62056   0.94781   0.11615   0.00000  Uiso   1.00
H696   H     0.58213   0.90975   0.09447   0.00000  Uiso   1.00
H697   H     0.63365   0.86839   0.14149   0.00000  Uiso   1.00
H698   H     0.58259   0.86570   0.16406   0.00000  Uiso   1.00
H699   H     0.60066   0.92920   0.21831   0.00000  Uiso   1.00
H700   H     0.64846   0.93448   0.19078   0.00000  Uiso   1.00
C701   C     0.63388   0.75208   0.27922   0.00000  Uiso   1.00
C702   C     0.62614   0.76614   0.32767   0.00000  Uiso   1.00
C703   C     0.62949   0.72561   0.35929   0.00000  Uiso   1.00
H704   H     0.60931   0.69749   0.34823   0.00000  Uiso   1.00
H705   H     0.66184   0.71293   0.36071   0.00000  Uiso   1.00
H706   H     0.62031   0.73628   0.39322   0.00000  Uiso   1.00
H707   H     0.64924   0.79171   0.33841   0.00000  Uiso   1.00
H708   H     0.59512   0.78203   0.33046   0.00000  Uiso   1.00
H709   H     0.60686   0.73485   0.26440   0.00000  Uiso   1.00
H710   H     0.65875   0.72579   0.27965   0.00000  Uiso   1.00
C711   C     0.36898   0.92268   0.25720   0.00000  Uiso   1.00
C712   C     0.37901   0.92370   0.30713   0.00000  Uiso   1.00
C713   C     0.39798   0.96907   0.32049   0.00000  Uiso   1.00
H714   H     0.42809   0.97354   0.30380   0.00000  Uiso   1.00
H715   H     0.37709   0.99769   0.31121   0.00000  Uiso   1.00
H716   H     0.40302   0.96992   0.35699   0.00000  Uiso   1.00
H717   H     0.35008   0.91891   0.32614   0.00000  Uiso   1.00
H718   H     0.40050   0.89581   0.31662   0.00000  Uiso   1.00
H719   H     0.39533   0.93318   0.23650   0.00000  Uiso   1.00
H720   H     0.34547   0.94988   0.25242   0.00000  Uiso   1.00
C721   C     0.75317   0.83374   0.24791   0.00000  Uiso   1.00
C722   C     0.91344   0.83314   0.24916   0.00000  Uiso   1.00
C723   C     0.83233   0.83333   0.16367   0.00000  Uiso   1.00
C724   C     0.83299   0.83337   0.33608   0.00000  Uiso   1.00
C725   C     0.85376   0.69045   0.28234   0.00000  Uiso   1.00
C726   C     0.81265   0.97616   0.21783   0.00000  Uiso   1.00
C727   C     0.81308   0.69076   0.21761   0.00000  Uiso   1.00
C728   C     0.85417   0.97579   0.28211   0.00000  Uiso   1.00
C729   C     0.68784   0.79333   0.23767   0.00000  Uiso   1.00
C730   C     0.97775   0.87315   0.23112   0.00000  Uiso   1.00
C731   C     0.98082   0.79280   0.25186   0.00000  Uiso   1.00
C732   C     0.68588   0.87633   0.24276   0.00000  Uiso   1.00
C733   C     0.82601   0.87438   0.04617   0.00000  Uiso   1.00
C734   C     0.84702   0.79906   0.45399   0.00000  Uiso   1.00
C735   C     0.80318   0.86644   0.45083   0.00000  Uiso   1.00
C736   C     0.81992   0.79228   0.04678   0.00000  Uiso   1.00
C737   C     0.82858   0.87469   0.09197   0.00000  Uiso   1.00
C738   C     0.84992   0.79906   0.40832   0.00000  Uiso   1.00
C739   C     0.80701   0.86733   0.40515   0.00000  Uiso   1.00
C740   C     0.82394   0.79207   0.09240   0.00000  Uiso   1.00
C741   C     0.82862   0.83335   0.11551   0.00000  Uiso   1.00
C742   C     0.83027   0.83346   0.38378   0.00000  Uiso   1.00
C743   C     0.82211   0.83319   0.02347   0.00000  Uiso   1.00
C744   C     0.82349   0.83255   0.47538   0.00000  Uiso   1.00
C745   C     0.95748   0.83296   0.24449   0.00000  Uiso   1.00
C746   C     0.70890   0.83480   0.24283   0.00000  Uiso   1.00
H747   H     0.82822   0.90631   0.02848   0.00000  Uiso   1.00
H748   H     0.86382   0.77333   0.47262   0.00000  Uiso   1.00
H749   H     0.78447   0.89218   0.46698   0.00000  Uiso   1.00
H750   H     0.81605   0.76023   0.02955   0.00000  Uiso   1.00
N751   N     0.83333   0.95240   0.25000   0.00000  Uiso   1.00
N752   N     0.83333   0.71427   0.25000   0.00000  Uiso   1.00
O753   O     0.77226   0.87154   0.24999   0.00000  Uiso   1.00
O754   O     0.89441   0.79513   0.25000   0.00000  Uiso   1.00
O755   O     0.89441   0.87154   0.25000   0.00000  Uiso   1.00
O756   O     0.77226   0.79513   0.24999   0.00000  Uiso   1.00
O757   O     0.83333   0.87155   0.18453   0.00000  Uiso   1.00
O758   O     0.83334   0.79511   0.31547   0.00000  Uiso   1.00
O759   O     0.83334   0.87155   0.31547   0.00000  Uiso   1.00
O760   O     0.83333   0.79511   0.18453   0.00000  Uiso   1.00
Zn761  Zn    0.83333   0.88437   0.25000   0.00000  Uiso   1.00
Zn762  Zn    0.83333   0.78229   0.25000   0.00000  Uiso   1.00
F763   F     0.87374   0.71298   0.31494   0.00000  Uiso   1.00
F764   F     0.79141   0.95370   0.18589   0.00000  Uiso   1.00
F765   F     0.79344   0.71352   0.18482   0.00000  Uiso   1.00
F766   F     0.87541   0.95288   0.31403   0.00000  Uiso   1.00
F767   F     0.83174   0.91546   0.11272   0.00000  Uiso   1.00
F768   F     0.87277   0.76619   0.38842   0.00000  Uiso   1.00
F769   F     0.78728   0.90059   0.38191   0.00000  Uiso   1.00
F770   F     0.82373   0.75131   0.11335   0.00000  Uiso   1.00
C771   C     0.70336   0.75338   0.21001   0.00000  Uiso   1.00
C772   C     0.71463   0.76896   0.16280   0.00000  Uiso   1.00
C773   C     0.71258   0.72999   0.12926   0.00000  Uiso   1.00
H774   H     0.73088   0.70018   0.14078   0.00000  Uiso   1.00
H775   H     0.68008   0.71937   0.12437   0.00000  Uiso   1.00
H776   H     0.72487   0.74149   0.09684   0.00000  Uiso   1.00
H777   H     0.69286   0.79604   0.15138   0.00000  Uiso   1.00
H778   H     0.74613   0.78345   0.16295   0.00000  Uiso   1.00
H779   H     0.72930   0.73534   0.22653   0.00000  Uiso   1.00
H780   H     0.67858   0.72765   0.20670   0.00000  Uiso   1.00
C781   C     0.95829   0.90940   0.20097   0.00000  Uiso   1.00
C782   C     0.94206   0.88867   0.15748   0.00000  Uiso   1.00
C783   C     0.92771   0.92566   0.12524   0.00000  Uiso   1.00
H784   H     0.90306   0.94679   0.14057   0.00000  Uiso   1.00
H785   H     0.95389   0.94781   0.11615   0.00000  Uiso   1.00
H786   H     0.91546   0.90975   0.09447   0.00000  Uiso   1.00
H787   H     0.96698   0.86839   0.14149   0.00000  Uiso   1.00
H788   H     0.91592   0.86570   0.16406   0.00000  Uiso   1.00
H789   H     0.93399   0.92920   0.21831   0.00000  Uiso   1.00
H790   H     0.98179   0.93448   0.19078   0.00000  Uiso   1.00
C791   C     0.96722   0.75208   0.27922   0.00000  Uiso   1.00
C792   C     0.95947   0.76614   0.32767   0.00000  Uiso   1.00
C793   C     0.96283   0.72561   0.35929   0.00000  Uiso   1.00
H794   H     0.94264   0.69749   0.34823   0.00000  Uiso   1.00
H795   H     0.99517   0.71293   0.36071   0.00000  Uiso   1.00
H796   H     0.95364   0.73628   0.39322   0.00000  Uiso   1.00
H797   H     0.98258   0.79171   0.33841   0.00000  Uiso   1.00
H798   H     0.92845   0.78203   0.33046   0.00000  Uiso   1.00
H799   H     0.94019   0.73485   0.26440   0.00000  Uiso   1.00
H800   H     0.99208   0.72579   0.27965   0.00000  Uiso   1.00
C801   C     0.70232   0.92268   0.25720   0.00000  Uiso   1.00
C802   C     0.71234   0.92370   0.30713   0.00000  Uiso   1.00
C803   C     0.73131   0.96907   0.32049   0.00000  Uiso   1.00
H804   H     0.76142   0.97354   0.30380   0.00000  Uiso   1.00
H805   H     0.71042   0.99769   0.31121   0.00000  Uiso   1.00
H806   H     0.73636   0.96992   0.35699   0.00000  Uiso   1.00
H807   H     0.68341   0.91891   0.32614   0.00000  Uiso   1.00
H808   H     0.73383   0.89581   0.31662   0.00000  Uiso   1.00
H809   H     0.72866   0.93318   0.23650   0.00000  Uiso   1.00
H810   H     0.67880   0.94988   0.25242   0.00000  Uiso   1.00
C811   C     0.08650   0.16708   0.74791   0.00000  Uiso   1.00
C812   C     0.24678   0.16647   0.74916   0.00000  Uiso   1.00
C813   C     0.16567   0.16666   0.66367   0.00000  Uiso   1.00
C814   C     0.16633   0.16670   0.83608   0.00000  Uiso   1.00
C815   C     0.18710   0.02379   0.78234   0.00000  Uiso   1.00
C816   C     0.14598   0.30950   0.71783   0.00000  Uiso   1.00
C817   C     0.14642   0.02409   0.71761   0.00000  Uiso   1.00
C818   C     0.18750   0.30912   0.78211   0.00000  Uiso   1.00
C819   C     0.02118   0.12666   0.73767   0.00000  Uiso   1.00
C820   C     0.31108   0.20648   0.73112   0.00000  Uiso   1.00
C821   C     0.31415   0.12613   0.75186   0.00000  Uiso   1.00
C822   C     0.01922   0.20966   0.74276   0.00000  Uiso   1.00
C823   C     0.15934   0.20772   0.54617   0.00000  Uiso   1.00
C824   C     0.18035   0.13239   0.95399   0.00000  Uiso   1.00
C825   C     0.13652   0.19977   0.95083   0.00000  Uiso   1.00
C826   C     0.15326   0.12561   0.54678   0.00000  Uiso   1.00
C827   C     0.16192   0.20802   0.59197   0.00000  Uiso   1.00
C828   C     0.18325   0.13239   0.90832   0.00000  Uiso   1.00
C829   C     0.14034   0.20066   0.90515   0.00000  Uiso   1.00
C830   C     0.15727   0.12541   0.59240   0.00000  Uiso   1.00
C831   C     0.16195   0.16668   0.61551   0.00000  Uiso   1.00
C832   C     0.16360   0.16679   0.88378   0.00000  Uiso   1.00
C833   C     0.15545   0.16653   0.52347   0.00000  Uiso   1.00
C834   C     0.15683   0.16588   0.97538   0.00000  Uiso   1.00
C835   C     0.29081   0.16629   0.74449   0.00000  Uiso   1.00
C836   C     0.04223   0.16813   0.74283   0.00000  Uiso   1.00
H837   H     0.16156   0.23964   0.52848   0.00000  Uiso   1.00
H838   H     0.19715   0.10666   0.97262   0.00000  Uiso   1.00
H839   H     0.11780   0.22552   0.96698   0.00000  Uiso   1.00
H840   H     0.14938   0.09356   0.52955   0.00000  Uiso   1.00
N841   N     0.16667   0.28573   0.75000   0.00000  Uiso   1.00
N842   N     0.16667   0.04760   0.75000   0.00000  Uiso   1.00
O843   O     0.10559   0.20487   0.74999   0.00000  Uiso   1.00
O844   O     0.22774   0.12846   0.75000   0.00000  Uiso   1.00
O845   O     0.22774   0.20487   0.75000   0.00000  Uiso   1.00
O846   O     0.10559   0.12846   0.74999   0.00000  Uiso   1.00
O847   O     0.16666   0.20489   0.68453   0.00000  Uiso   1.00
O848   O     0.16667   0.12845   0.81547   0.00000  Uiso   1.00
O849   O     0.16667   0.20489   0.81547   0.00000  Uiso   1.00
O850   O     0.16666   0.12845   0.68453   0.00000  Uiso   1.00
Zn851  Zn    0.16667   0.21771   0.75000   0.00000  Uiso   1.00
Zn852  Zn    0.16667   0.11563   0.75000   0.00000  Uiso   1.00
F853   F     0.20708   0.04632   0.81494   0.00000  Uiso   1.00
F854   F     0.12474   0.28704   0.68589   0.00000  Uiso   1.00
F855   F     0.12678   0.04685   0.68482   0.00000  Uiso   1.00
F856   F     0.20874   0.28621   0.81403   0.00000  Uiso   1.00
F857   F     0.16508   0.24880   0.61272   0.00000  Uiso   1.00
F858   F     0.20611   0.09952   0.88842   0.00000  Uiso   1.00
F859   F     0.12061   0.23392   0.88191   0.00000  Uiso   1.00
F860   F     0.15706   0.08464   0.61335   0.00000  Uiso   1.00
C861   C     0.03669   0.08671   0.71001   0.00000  Uiso   1.00
C862   C     0.04796   0.10229   0.66280   0.00000  Uiso   1.00
C863   C     0.04591   0.06332   0.62926   0.00000  Uiso   1.00
H864   H     0.06421   0.03352   0.64078   0.00000  Uiso   1.00
H865   H     0.01341   0.05270   0.62437   0.00000  Uiso   1.00
H866   H     0.05820   0.07482   0.59684   0.00000  Uiso   1.00
H867   H     0.02619   0.12937   0.65138   0.00000  Uiso   1.00
H868   H     0.07946   0.11678   0.66295   0.00000  Uiso   1.00
H869   H     0.06264   0.06867   0.72653   0.00000  Uiso   1.00
H870   H     0.01191   0.06098   0.70670   0.00000  Uiso   1.00
C871   C     0.29162   0.24273   0.70097   0.00000  Uiso   1.00
C872   C     0.27539   0.22201   0.65748   0.00000  Uiso   1.00
C873   C     0.26104   0.25899   0.62524   0.00000  Uiso   1.00
H874   H     0.23639   0.28012   0.64057   0.00000  Uiso   1.00
H875   H     0.28723   0.28115   0.61615   0.00000  Uiso   1.00
H876   H     0.24880   0.24309   0.59447   0.00000  Uiso   1.00
H877   H     0.30032   0.20173   0.64149   0.00000  Uiso   1.00
H878   H     0.24925   0.19903   0.66406   0.00000  Uiso   1.00
H879   H     0.26733   0.26253   0.71831   0.00000  Uiso   1.00
H880   H     0.31513   0.26781   0.69078   0.00000  Uiso   1.00
C881   C     0.30055   0.08541   0.77922   0.00000  Uiso   1.00
C882   C     0.29280   0.09947   0.82767   0.00000  Uiso   1.00
C883   C     0.29616   0.05894   0.85929   0.00000  Uiso   1.00
H884   H     0.27598   0.03082   0.84823   0.00000  Uiso   1.00
H885   H     0.32850   0.04626   0.86071   0.00000  Uiso   1.00
H886   H     0.28698   0.06961   0.89322   0.00000  Uiso   1.00
H887   H     0.31591   0.12504   0.83841   0.00000  Uiso   1.00
H888   H     0.26178   0.11536   0.83046   0.00000  Uiso   1.00
H889   H     0.27352   0.06818   0.76440   0.00000  Uiso   1.00
H890   H     0.32541   0.05912   0.77965   0.00000  Uiso   1.00
C891   C     0.03565   0.25601   0.75720   0.00000  Uiso   1.00
C892   C     0.04568   0.25704   0.80713   0.00000  Uiso   1.00
C893   C     0.06465   0.30241   0.82049   0.00000  Uiso   1.00
H894   H     0.09475   0.30687   0.80380   0.00000  Uiso   1.00
H895   H     0.04376   0.33103   0.81121   0.00000  Uiso   1.00
H896   H     0.06969   0.30325   0.85699   0.00000  Uiso   1.00
H897   H     0.01675   0.25224   0.82614   0.00000  Uiso   1.00
H898   H     0.06716   0.22914   0.81662   0.00000  Uiso   1.00
H899   H     0.06200   0.26652   0.73650   0.00000  Uiso   1.00
H900   H     0.01213   0.28322   0.75242   0.00000  Uiso   1.00
C901   C     0.41984   0.16708   0.74791   0.00000  Uiso   1.00
C902   C     0.58011   0.16647   0.74916   0.00000  Uiso   1.00
C903   C     0.49900   0.16666   0.66367   0.00000  Uiso   1.00
C904   C     0.49966   0.16670   0.83608   0.00000  Uiso   1.00
C905   C     0.52043   0.02379   0.78234   0.00000  Uiso   1.00
C906   C     0.47931   0.30950   0.71783   0.00000  Uiso   1.00
C907   C     0.47975   0.02409   0.71761   0.00000  Uiso   1.00
C908   C     0.52084   0.30912   0.78211   0.00000  Uiso   1.00
C909   C     0.35451   0.12666   0.73767   0.00000  Uiso   1.00
C910   C     0.64441   0.20648   0.73112   0.00000  Uiso   1.00
C911   C     0.64749   0.12613   0.75186   0.00000  Uiso   1.00
C912   C     0.35255   0.20966   0.74276   0.00000  Uiso   1.00
C913   C     0.49267   0.20772   0.54617   0.00000  Uiso   1.00
C914   C     0.51369   0.13239   0.95399   0.00000  Uiso   1.00
C915   C     0.46985   0.19977   0.95083   0.00000  Uiso   1.00
C916   C     0.48659   0.12561   0.54678   0.00000  Uiso   1.00
C917   C     0.49525   0.20802   0.59197   0.00000  Uiso   1.00
C918   C     0.51658   0.13239   0.90832   0.00000  Uiso   1.00
C919   C     0.47367   0.20066   0.90515   0.00000  Uiso   1.00
C920   C     0.49061   0.12541   0.59240   0.00000  Uiso   1.00
C921   C     0.49529   0.16668   0.61551   0.00000  Uiso   1.00
C922   C     0.49694   0.16679   0.88378   0.00000  Uiso   1.00
C923   C     0.48878   0.16653   0.52347   0.00000  Uiso   1.00
C924   C     0.49016   0.16588   0.97538   0.00000  Uiso   1.00
C925   C     0.62415   0.16629   0.74449   0.00000  Uiso   1.00
C926   C     0.37557   0.16813   0.74283   0.00000  Uiso   1.00
H927   H     0.49489   0.23964   0.52848   0.00000  Uiso   1.00
H928   H     0.53048   0.10666   0.97262   0.00000  Uiso   1.00
H929   H     0.45114   0.22552   0.96698   0.00000  Uiso   1.00
H930   H     0.48272   0.09356   0.52955   0.00000  Uiso   1.00
N931   N     0.50000   0.28573   0.75000   0.00000  Uiso   1.00
N932   N     0.50000   0.04760   0.75000   0.00000  Uiso   1.00
O933   O     0.43892   0.20487   0.74999   0.00000  Uiso   1.00
O934   O     0.56108   0.12846   0.75000   0.00000  Uiso   1.00
O935   O     0.56108   0.20487   0.75000   0.00000  Uiso   1.00
O936   O     0.43892   0.12846   0.74999   0.00000  Uiso   1.00
O937   O     0.50000   0.20489   0.68453   0.00000  Uiso   1.00
O938   O     0.50000   0.12845   0.81547   0.00000  Uiso   1.00
O939   O     0.50000   0.20489   0.81547   0.00000  Uiso   1.00
O940   O     0.50000   0.12845   0.68453   0.00000  Uiso   1.00
Zn941  Zn    0.50000   0.21771   0.75000   0.00000  Uiso   1.00
Zn942  Zn    0.50000   0.11563   0.75000   0.00000  Uiso   1.00
F943   F     0.54041   0.04632   0.81494   0.00000  Uiso   1.00
F944   F     0.45808   0.28704   0.68589   0.00000  Uiso   1.00
F945   F     0.46011   0.04685   0.68482   0.00000  Uiso   1.00
F946   F     0.54208   0.28621   0.81403   0.00000  Uiso   1.00
F947   F     0.49841   0.24880   0.61272   0.00000  Uiso   1.00
F948   F     0.53944   0.09952   0.88842   0.00000  Uiso   1.00
F949   F     0.45394   0.23392   0.88191   0.00000  Uiso   1.00
F950   F     0.49039   0.08464   0.61335   0.00000  Uiso   1.00
C951   C     0.37002   0.08671   0.71001   0.00000  Uiso   1.00
C952   C     0.38130   0.10229   0.66280   0.00000  Uiso   1.00
C953   C     0.37925   0.06332   0.62926   0.00000  Uiso   1.00
H954   H     0.39754   0.03352   0.64078   0.00000  Uiso   1.00
H955   H     0.34674   0.05270   0.62437   0.00000  Uiso   1.00
H956   H     0.39153   0.07482   0.59684   0.00000  Uiso   1.00
H957   H     0.35953   0.12937   0.65138   0.00000  Uiso   1.00
H958   H     0.41279   0.11678   0.66295   0.00000  Uiso   1.00
H959   H     0.39597   0.06867   0.72653   0.00000  Uiso   1.00
H960   H     0.34524   0.06098   0.70670   0.00000  Uiso   1.00
C961   C     0.62496   0.24273   0.70097   0.00000  Uiso   1.00
C962   C     0.60873   0.22201   0.65748   0.00000  Uiso   1.00
C963   C     0.59437   0.25899   0.62524   0.00000  Uiso   1.00
H964   H     0.56973   0.28012   0.64057   0.00000  Uiso   1.00
H965   H     0.62056   0.28115   0.61615   0.00000  Uiso   1.00
H966   H     0.58213   0.24309   0.59447   0.00000  Uiso   1.00
H967   H     0.63365   0.20173   0.64149   0.00000  Uiso   1.00
H968   H     0.58259   0.19903   0.66406   0.00000  Uiso   1.00
H969   H     0.60066   0.26253   0.71831   0.00000  Uiso   1.00
H970   H     0.64846   0.26781   0.69078   0.00000  Uiso   1.00
C971   C     0.63388   0.08541   0.77922   0.00000  Uiso   1.00
C972   C     0.62614   0.09947   0.82767   0.00000  Uiso   1.00
C973   C     0.62949   0.05894   0.85929   0.00000  Uiso   1.00
H974   H     0.60931   0.03082   0.84823   0.00000  Uiso   1.00
H975   H     0.66184   0.04626   0.86071   0.00000  Uiso   1.00
H976   H     0.62031   0.06961   0.89322   0.00000  Uiso   1.00
H977   H     0.64924   0.12504   0.83841   0.00000  Uiso   1.00
H978   H     0.59512   0.11536   0.83046   0.00000  Uiso   1.00
H979   H     0.60686   0.06818   0.76440   0.00000  Uiso   1.00
H980   H     0.65875   0.05912   0.77965   0.00000  Uiso   1.00
C981   C     0.36898   0.25601   0.75720   0.00000  Uiso   1.00
C982   C     0.37901   0.25704   0.80713   0.00000  Uiso   1.00
C983   C     0.39798   0.30241   0.82049   0.00000  Uiso   1.00
H984   H     0.42809   0.30687   0.80380   0.00000  Uiso   1.00
H985   H     0.37709   0.33103   0.81121   0.00000  Uiso   1.00
H986   H     0.40302   0.30325   0.85699   0.00000  Uiso   1.00
H987   H     0.35008   0.25224   0.82614   0.00000  Uiso   1.00
H988   H     0.40050   0.22914   0.81662   0.00000  Uiso   1.00
H989   H     0.39533   0.26652   0.73650   0.00000  Uiso   1.00
H990   H     0.34547   0.28322   0.75242   0.00000  Uiso   1.00
C991   C     0.75317   0.16708   0.74791   0.00000  Uiso   1.00
C992   C     0.91344   0.16647   0.74916   0.00000  Uiso   1.00
C993   C     0.83233   0.16666   0.66367   0.00000  Uiso   1.00
C994   C     0.83299   0.16670   0.83608   0.00000  Uiso   1.00
C995   C     0.85376   0.02379   0.78234   0.00000  Uiso   1.00
C996   C     0.81265   0.30950   0.71783   0.00000  Uiso   1.00
C997   C     0.81308   0.02409   0.71761   0.00000  Uiso   1.00
C998   C     0.85417   0.30912   0.78211   0.00000  Uiso   1.00
C999   C     0.68784   0.12666   0.73767   0.00000  Uiso   1.00
C1000  C     0.97775   0.20648   0.73112   0.00000  Uiso   1.00
C1001  C     0.98082   0.12613   0.75186   0.00000  Uiso   1.00
C1002  C     0.68588   0.20966   0.74276   0.00000  Uiso   1.00
C1003  C     0.82601   0.20772   0.54617   0.00000  Uiso   1.00
C1004  C     0.84702   0.13239   0.95399   0.00000  Uiso   1.00
C1005  C     0.80318   0.19977   0.95083   0.00000  Uiso   1.00
C1006  C     0.81992   0.12561   0.54678   0.00000  Uiso   1.00
C1007  C     0.82858   0.20802   0.59197   0.00000  Uiso   1.00
C1008  C     0.84992   0.13239   0.90832   0.00000  Uiso   1.00
C1009  C     0.80701   0.20066   0.90515   0.00000  Uiso   1.00
C1010  C     0.82394   0.12541   0.59240   0.00000  Uiso   1.00
C1011  C     0.82862   0.16668   0.61551   0.00000  Uiso   1.00
C1012  C     0.83027   0.16679   0.88378   0.00000  Uiso   1.00
C1013  C     0.82211   0.16653   0.52347   0.00000  Uiso   1.00
C1014  C     0.82349   0.16588   0.97538   0.00000  Uiso   1.00
C1015  C     0.95748   0.16629   0.74449   0.00000  Uiso   1.00
C1016  C     0.70890   0.16813   0.74283   0.00000  Uiso   1.00
H1017  H     0.82822   0.23964   0.52848   0.00000  Uiso   1.00
H1018  H     0.86382   0.10666   0.97262   0.00000  Uiso   1.00
H1019  H     0.78447   0.22552   0.96698   0.00000  Uiso   1.00
H1020  H     0.81605   0.09356   0.52955   0.00000  Uiso   1.00
N1021  N     0.83333   0.28573   0.75000   0.00000  Uiso   1.00
N1022  N     0.83333   0.04760   0.75000   0.00000  Uiso   1.00
O1023  O     0.77226   0.20487   0.74999   0.00000  Uiso   1.00
O1024  O     0.89441   0.12846   0.75000   0.00000  Uiso   1.00
O1025  O     0.89441   0.20487   0.75000   0.00000  Uiso   1.00
O1026  O     0.77226   0.12846   0.74999   0.00000  Uiso   1.00
O1027  O     0.83333   0.20489   0.68453   0.00000  Uiso   1.00
O1028  O     0.83334   0.12845   0.81547   0.00000  Uiso   1.00
O1029  O     0.83334   0.20489   0.81547   0.00000  Uiso   1.00
O1030  O     0.83333   0.12845   0.68453   0.00000  Uiso   1.00
Zn1031 Zn    0.83333   0.21771   0.75000   0.00000  Uiso   1.00
Zn1032 Zn    0.83333   0.11563   0.75000   0.00000  Uiso   1.00
F1033  F     0.87374   0.04632   0.81494   0.00000  Uiso   1.00
F1034  F     0.79141   0.28704   0.68589   0.00000  Uiso   1.00
F1035  F     0.79344   0.04685   0.68482   0.00000  Uiso   1.00
F1036  F     0.87541   0.28621   0.81403   0.00000  Uiso   1.00
F1037  F     0.83174   0.24880   0.61272   0.00000  Uiso   1.00
F1038  F     0.87277   0.09952   0.88842   0.00000  Uiso   1.00
F1039  F     0.78728   0.23392   0.88191   0.00000  Uiso   1.00
F1040  F     0.82373   0.08464   0.61335   0.00000  Uiso   1.00
C1041  C     0.70336   0.08671   0.71001   0.00000  Uiso   1.00
C1042  C     0.71463   0.10229   0.66280   0.00000  Uiso   1.00
C1043  C     0.71258   0.06332   0.62926   0.00000  Uiso   1.00
H1044  H     0.73088   0.03352   0.64078   0.00000  Uiso   1.00
H1045  H     0.68008   0.05270   0.62437   0.00000  Uiso   1.00
H1046  H     0.72487   0.07482   0.59684   0.00000  Uiso   1.00
H1047  H     0.69286   0.12937   0.65138   0.00000  Uiso   1.00
H1048  H     0.74613   0.11678   0.66295   0.00000  Uiso   1.00
H1049  H     0.72930   0.06867   0.72653   0.00000  Uiso   1.00
H1050  H     0.67858   0.06098   0.70670   0.00000  Uiso   1.00
C1051  C     0.95829   0.24273   0.70097   0.00000  Uiso   1.00
C1052  C     0.94206   0.22201   0.65748   0.00000  Uiso   1.00
C1053  C     0.92771   0.25899   0.62524   0.00000  Uiso   1.00
H1054  H     0.90306   0.28012   0.64057   0.00000  Uiso   1.00
H1055  H     0.95389   0.28115   0.61615   0.00000  Uiso   1.00
H1056  H     0.91546   0.24309   0.59447   0.00000  Uiso   1.00
H1057  H     0.96698   0.20173   0.64149   0.00000  Uiso   1.00
H1058  H     0.91592   0.19903   0.66406   0.00000  Uiso   1.00
H1059  H     0.93399   0.26253   0.71831   0.00000  Uiso   1.00
H1060  H     0.98179   0.26781   0.69078   0.00000  Uiso   1.00
C1061  C     0.96722   0.08541   0.77922   0.00000  Uiso   1.00
C1062  C     0.95947   0.09947   0.82767   0.00000  Uiso   1.00
C1063  C     0.96283   0.05894   0.85929   0.00000  Uiso   1.00
H1064  H     0.94264   0.03082   0.84823   0.00000  Uiso   1.00
H1065  H     0.99517   0.04626   0.86071   0.00000  Uiso   1.00
H1066  H     0.95364   0.06961   0.89322   0.00000  Uiso   1.00
H1067  H     0.98258   0.12504   0.83841   0.00000  Uiso   1.00
H1068  H     0.92845   0.11536   0.83046   0.00000  Uiso   1.00
H1069  H     0.94019   0.06818   0.76440   0.00000  Uiso   1.00
H1070  H     0.99208   0.05912   0.77965   0.00000  Uiso   1.00
C1071  C     0.70232   0.25601   0.75720   0.00000  Uiso   1.00
C1072  C     0.71234   0.25704   0.80713   0.00000  Uiso   1.00
C1073  C     0.73131   0.30241   0.82049   0.00000  Uiso   1.00
H1074  H     0.76142   0.30687   0.80380   0.00000  Uiso   1.00
H1075  H     0.71042   0.33103   0.81121   0.00000  Uiso   1.00
H1076  H     0.73636   0.30325   0.85699   0.00000  Uiso   1.00
H1077  H     0.68341   0.25224   0.82614   0.00000  Uiso   1.00
H1078  H     0.73383   0.22914   0.81662   0.00000  Uiso   1.00
H1079  H     0.72866   0.26652   0.73650   0.00000  Uiso   1.00
H1080  H     0.67880   0.28322   0.75242   0.00000  Uiso   1.00
C1081  C     0.08650   0.50041   0.74791   0.00000  Uiso   1.00
C1082  C     0.24678   0.49980   0.74916   0.00000  Uiso   1.00
C1083  C     0.16567   0.50000   0.66367   0.00000  Uiso   1.00
C1084  C     0.16633   0.50004   0.83608   0.00000  Uiso   1.00
C1085  C     0.18710   0.35712   0.78234   0.00000  Uiso   1.00
C1086  C     0.14598   0.64283   0.71783   0.00000  Uiso   1.00
C1087  C     0.14642   0.35743   0.71761   0.00000  Uiso   1.00
C1088  C     0.18750   0.64246   0.78211   0.00000  Uiso   1.00
C1089  C     0.02118   0.46000   0.73767   0.00000  Uiso   1.00
C1090  C     0.31108   0.53982   0.73112   0.00000  Uiso   1.00
C1091  C     0.31415   0.45946   0.75186   0.00000  Uiso   1.00
C1092  C     0.01922   0.54299   0.74276   0.00000  Uiso   1.00
C1093  C     0.15934   0.54105   0.54617   0.00000  Uiso   1.00
C1094  C     0.18035   0.46572   0.95399   0.00000  Uiso   1.00
C1095  C     0.13652   0.53310   0.95083   0.00000  Uiso   1.00
C1096  C     0.15326   0.45894   0.54678   0.00000  Uiso   1.00
C1097  C     0.16192   0.54135   0.59197   0.00000  Uiso   1.00
C1098  C     0.18325   0.46572   0.90832   0.00000  Uiso   1.00
C1099  C     0.14034   0.53400   0.90515   0.00000  Uiso   1.00
C1100  C     0.15727   0.45874   0.59240   0.00000  Uiso   1.00
C1101  C     0.16195   0.50001   0.61551   0.00000  Uiso   1.00
C1102  C     0.16360   0.50013   0.88378   0.00000  Uiso   1.00
C1103  C     0.15545   0.49986   0.52347   0.00000  Uiso   1.00
C1104  C     0.15683   0.49922   0.97538   0.00000  Uiso   1.00
C1105  C     0.29081   0.49963   0.74449   0.00000  Uiso   1.00
C1106  C     0.04223   0.50147   0.74283   0.00000  Uiso   1.00
H1107  H     0.16156   0.57298   0.52848   0.00000  Uiso   1.00
H1108  H     0.19715   0.44000   0.97262   0.00000  Uiso   1.00
H1109  H     0.11780   0.55885   0.96698   0.00000  Uiso   1.00
H1110  H     0.14938   0.42690   0.52955   0.00000  Uiso   1.00
N1111  N     0.16667   0.61907   0.75000   0.00000  Uiso   1.00
N1112  N     0.16667   0.38093   0.75000   0.00000  Uiso   1.00
O1113  O     0.10559   0.53821   0.74999   0.00000  Uiso   1.00
O1114  O     0.22774   0.46179   0.75000   0.00000  Uiso   1.00
O1115  O     0.22774   0.53821   0.75000   0.00000  Uiso   1.00
O1116  O     0.10559   0.46179   0.74999   0.00000  Uiso   1.00
O1117  O     0.16666   0.53822   0.68453   0.00000  Uiso   1.00
O1118  O     0.16667   0.46178   0.81547   0.00000  Uiso   1.00
O1119  O     0.16667   0.53822   0.81547   0.00000  Uiso   1.00
O1120  O     0.16666   0.46178   0.68453   0.00000  Uiso   1.00
Zn1121 Zn    0.16667   0.55104   0.75000   0.00000  Uiso   1.00
Zn1122 Zn    0.16667   0.44896   0.75000   0.00000  Uiso   1.00
F1123  F     0.20708   0.37965   0.81494   0.00000  Uiso   1.00
F1124  F     0.12474   0.62037   0.68589   0.00000  Uiso   1.00
F1125  F     0.12678   0.38019   0.68482   0.00000  Uiso   1.00
F1126  F     0.20874   0.61954   0.81403   0.00000  Uiso   1.00
F1127  F     0.16508   0.58213   0.61272   0.00000  Uiso   1.00
F1128  F     0.20611   0.43286   0.88842   0.00000  Uiso   1.00
F1129  F     0.12061   0.56726   0.88191   0.00000  Uiso   1.00
F1130  F     0.15706   0.41798   0.61335   0.00000  Uiso   1.00
C1131  C     0.03669   0.42005   0.71001   0.00000  Uiso   1.00
C1132  C     0.04796   0.43562   0.66280   0.00000  Uiso   1.00
C1133  C     0.04591   0.39666   0.62926   0.00000  Uiso   1.00
H1134  H     0.06421   0.36685   0.64078   0.00000  Uiso   1.00
H1135  H     0.01341   0.38603   0.62437   0.00000  Uiso   1.00
H1136  H     0.05820   0.40816   0.59684   0.00000  Uiso   1.00
H1137  H     0.02619   0.46270   0.65138   0.00000  Uiso   1.00
H1138  H     0.07946   0.45012   0.66295   0.00000  Uiso   1.00
H1139  H     0.06264   0.40201   0.72653   0.00000  Uiso   1.00
H1140  H     0.01191   0.39432   0.70670   0.00000  Uiso   1.00
C1141  C     0.29162   0.57607   0.70097   0.00000  Uiso   1.00
C1142  C     0.27539   0.55534   0.65748   0.00000  Uiso   1.00
C1143  C     0.26104   0.59232   0.62524   0.00000  Uiso   1.00
H1144  H     0.23639   0.61346   0.64057   0.00000  Uiso   1.00
H1145  H     0.28723   0.61448   0.61615   0.00000  Uiso   1.00
H1146  H     0.24880   0.57642   0.59447   0.00000  Uiso   1.00
H1147  H     0.30032   0.53506   0.64149   0.00000  Uiso   1.00
H1148  H     0.24925   0.53236   0.66406   0.00000  Uiso   1.00
H1149  H     0.26733   0.59587   0.71831   0.00000  Uiso   1.00
H1150  H     0.31513   0.60114   0.69078   0.00000  Uiso   1.00
C1151  C     0.30055   0.41874   0.77922   0.00000  Uiso   1.00
C1152  C     0.29280   0.43281   0.82767   0.00000  Uiso   1.00
C1153  C     0.29616   0.39228   0.85929   0.00000  Uiso   1.00
H1154  H     0.27598   0.36416   0.84823   0.00000  Uiso   1.00
H1155  H     0.32850   0.37959   0.86071   0.00000  Uiso   1.00
H1156  H     0.28698   0.40294   0.89322   0.00000  Uiso   1.00
H1157  H     0.31591   0.45837   0.83841   0.00000  Uiso   1.00
H1158  H     0.26178   0.44870   0.83046   0.00000  Uiso   1.00
H1159  H     0.27352   0.40151   0.76440   0.00000  Uiso   1.00
H1160  H     0.32541   0.39245   0.77965   0.00000  Uiso   1.00
C1161  C     0.03565   0.58935   0.75720   0.00000  Uiso   1.00
C1162  C     0.04568   0.59037   0.80713   0.00000  Uiso   1.00
C1163  C     0.06465   0.63574   0.82049   0.00000  Uiso   1.00
H1164  H     0.09475   0.64020   0.80380   0.00000  Uiso   1.00
H1165  H     0.04376   0.66436   0.81121   0.00000  Uiso   1.00
H1166  H     0.06969   0.63659   0.85699   0.00000  Uiso   1.00
H1167  H     0.01675   0.58558   0.82614   0.00000  Uiso   1.00
H1168  H     0.06716   0.56248   0.81662   0.00000  Uiso   1.00
H1169  H     0.06200   0.59985   0.73650   0.00000  Uiso   1.00
H1170  H     0.01213   0.61655   0.75242   0.00000  Uiso   1.00
C1171  C     0.41984   0.50041   0.74791   0.00000  Uiso   1.00
C1172  C     0.58011   0.49980   0.74916   0.00000  Uiso   1.00
C1173  C     0.49900   0.50000   0.66367   0.00000  Uiso   1.00
C1174  C     0.49966   0.50004   0.83608   0.00000  Uiso   1.00
C1175  C     0.52043   0.35712   0.78234   0.00000  Uiso   1.00
C1176  C     0.47931   0.64283   0.71783   0.00000  Uiso   1.00
C1177  C     0.47975   0.35743   0.71761   0.00000  Uiso   1.00
C1178  C     0.52084   0.64246   0.78211   0.00000  Uiso   1.00
C1179  C     0.35451   0.46000   0.73767   0.00000  Uiso   1.00
C1180  C     0.64441   0.53982   0.73112   0.00000  Uiso   1.00
C1181  C     0.64749   0.45946   0.75186   0.00000  Uiso   1.00
C1182  C     0.35255   0.54299   0.74276   0.00000  Uiso   1.00
C1183  C     0.49267   0.54105   0.54617   0.00000  Uiso   1.00
C1184  C     0.51369   0.46572   0.95399   0.00000  Uiso   1.00
C1185  C     0.46985   0.53310   0.95083   0.00000  Uiso   1.00
C1186  C     0.48659   0.45894   0.54678   0.00000  Uiso   1.00
C1187  C     0.49525   0.54135   0.59197   0.00000  Uiso   1.00
C1188  C     0.51658   0.46572   0.90832   0.00000  Uiso   1.00
C1189  C     0.47367   0.53400   0.90515   0.00000  Uiso   1.00
C1190  C     0.49061   0.45874   0.59240   0.00000  Uiso   1.00
C1191  C     0.49529   0.50001   0.61551   0.00000  Uiso   1.00
C1192  C     0.49694   0.50013   0.88378   0.00000  Uiso   1.00
C1193  C     0.48878   0.49986   0.52347   0.00000  Uiso   1.00
C1194  C     0.49016   0.49922   0.97538   0.00000  Uiso   1.00
C1195  C     0.62415   0.49963   0.74449   0.00000  Uiso   1.00
C1196  C     0.37557   0.50147   0.74283   0.00000  Uiso   1.00
H1197  H     0.49489   0.57298   0.52848   0.00000  Uiso   1.00
H1198  H     0.53048   0.44000   0.97262   0.00000  Uiso   1.00
H1199  H     0.45114   0.55885   0.96698   0.00000  Uiso   1.00
H1200  H     0.48272   0.42690   0.52955   0.00000  Uiso   1.00
N1201  N     0.50000   0.61907   0.75000   0.00000  Uiso   1.00
N1202  N     0.50000   0.38093   0.75000   0.00000  Uiso   1.00
O1203  O     0.43892   0.53821   0.74999   0.00000  Uiso   1.00
O1204  O     0.56108   0.46179   0.75000   0.00000  Uiso   1.00
O1205  O     0.56108   0.53821   0.75000   0.00000  Uiso   1.00
O1206  O     0.43892   0.46179   0.74999   0.00000  Uiso   1.00
O1207  O     0.50000   0.53822   0.68453   0.00000  Uiso   1.00
O1208  O     0.50000   0.46178   0.81547   0.00000  Uiso   1.00
O1209  O     0.50000   0.53822   0.81547   0.00000  Uiso   1.00
O1210  O     0.50000   0.46178   0.68453   0.00000  Uiso   1.00
Zn1211 Zn    0.50000   0.55104   0.75000   0.00000  Uiso   1.00
Zn1212 Zn    0.50000   0.44896   0.75000   0.00000  Uiso   1.00
F1213  F     0.54041   0.37965   0.81494   0.00000  Uiso   1.00
F1214  F     0.45808   0.62037   0.68589   0.00000  Uiso   1.00
F1215  F     0.46011   0.38019   0.68482   0.00000  Uiso   1.00
F1216  F     0.54208   0.61954   0.81403   0.00000  Uiso   1.00
F1217  F     0.49841   0.58213   0.61272   0.00000  Uiso   1.00
F1218  F     0.53944   0.43286   0.88842   0.00000  Uiso   1.00
F1219  F     0.45394   0.56726   0.88191   0.00000  Uiso   1.00
F1220  F     0.49039   0.41798   0.61335   0.00000  Uiso   1.00
C1221  C     0.37002   0.42005   0.71001   0.00000  Uiso   1.00
C1222  C     0.38130   0.43562   0.66280   0.00000  Uiso   1.00
C1223  C     0.37925   0.39666   0.62926   0.00000  Uiso   1.00
H1224  H     0.39754   0.36685   0.64078   0.00000  Uiso   1.00
H1225  H     0.34674   0.38603   0.62437   0.00000  Uiso   1.00
H1226  H     0.39153   0.40816   0.59684   0.00000  Uiso   1.00
H1227  H     0.35953   0.46270   0.65138   0.00000  Uiso   1.00
H1228  H     0.41279   0.45012   0.66295   0.00000  Uiso   1.00
H1229  H     0.39597   0.40201   0.72653   0.00000  Uiso   1.00
H1230  H     0.34524   0.39432   0.70670   0.00000  Uiso   1.00
C1231  C     0.62496   0.57607   0.70097   0.00000  Uiso   1.00
C1232  C     0.60873   0.55534   0.65748   0.00000  Uiso   1.00
C1233  C     0.59437   0.59232   0.62524   0.00000  Uiso   1.00
H1234  H     0.56973   0.61346   0.64057   0.00000  Uiso   1.00
H1235  H     0.62056   0.61448   0.61615   0.00000  Uiso   1.00
H1236  H     0.58213   0.57642   0.59447   0.00000  Uiso   1.00
H1237  H     0.63365   0.53506   0.64149   0.00000  Uiso   1.00
H1238  H     0.58259   0.53236   0.66406   0.00000  Uiso   1.00
H1239  H     0.60066   0.59587   0.71831   0.00000  Uiso   1.00
H1240  H     0.64846   0.60114   0.69078   0.00000  Uiso   1.00
C1241  C     0.63388   0.41874   0.77922   0.00000  Uiso   1.00
C1242  C     0.62614   0.43281   0.82767   0.00000  Uiso   1.00
C1243  C     0.62949   0.39228   0.85929   0.00000  Uiso   1.00
H1244  H     0.60931   0.36416   0.84823   0.00000  Uiso   1.00
H1245  H     0.66184   0.37959   0.86071   0.00000  Uiso   1.00
H1246  H     0.62031   0.40294   0.89322   0.00000  Uiso   1.00
H1247  H     0.64924   0.45837   0.83841   0.00000  Uiso   1.00
H1248  H     0.59512   0.44870   0.83046   0.00000  Uiso   1.00
H1249  H     0.60686   0.40151   0.76440   0.00000  Uiso   1.00
H1250  H     0.65875   0.39245   0.77965   0.00000  Uiso   1.00
C1251  C     0.36898   0.58935   0.75720   0.00000  Uiso   1.00
C1252  C     0.37901   0.59037   0.80713   0.00000  Uiso   1.00
C1253  C     0.39798   0.63574   0.82049   0.00000  Uiso   1.00
H1254  H     0.42809   0.64020   0.80380   0.00000  Uiso   1.00
H1255  H     0.37709   0.66436   0.81121   0.00000  Uiso   1.00
H1256  H     0.40302   0.63659   0.85699   0.00000  Uiso   1.00
H1257  H     0.35008   0.58558   0.82614   0.00000  Uiso   1.00
H1258  H     0.40050   0.56248   0.81662   0.00000  Uiso   1.00
H1259  H     0.39533   0.59985   0.73650   0.00000  Uiso   1.00
H1260  H     0.34547   0.61655   0.75242   0.00000  Uiso   1.00
C1261  C     0.75317   0.50041   0.74791   0.00000  Uiso   1.00
C1262  C     0.91344   0.49980   0.74916   0.00000  Uiso   1.00
C1263  C     0.83233   0.50000   0.66367   0.00000  Uiso   1.00
C1264  C     0.83299   0.50004   0.83608   0.00000  Uiso   1.00
C1265  C     0.85376   0.35712   0.78234   0.00000  Uiso   1.00
C1266  C     0.81265   0.64283   0.71783   0.00000  Uiso   1.00
C1267  C     0.81308   0.35743   0.71761   0.00000  Uiso   1.00
C1268  C     0.85417   0.64246   0.78211   0.00000  Uiso   1.00
C1269  C     0.68784   0.46000   0.73767   0.00000  Uiso   1.00
C1270  C     0.97775   0.53982   0.73112   0.00000  Uiso   1.00
C1271  C     0.98082   0.45946   0.75186   0.00000  Uiso   1.00
C1272  C     0.68588   0.54299   0.74276   0.00000  Uiso   1.00
C1273  C     0.82601   0.54105   0.54617   0.00000  Uiso   1.00
C1274  C     0.84702   0.46572   0.95399   0.00000  Uiso   1.00
C1275  C     0.80318   0.53310   0.95083   0.00000  Uiso   1.00
C1276  C     0.81992   0.45894   0.54678   0.00000  Uiso   1.00
C1277  C     0.82858   0.54135   0.59197   0.00000  Uiso   1.00
C1278  C     0.84992   0.46572   0.90832   0.00000  Uiso   1.00
C1279  C     0.80701   0.53400   0.90515   0.00000  Uiso   1.00
C1280  C     0.82394   0.45874   0.59240   0.00000  Uiso   1.00
C1281  C     0.82862   0.50001   0.61551   0.00000  Uiso   1.00
C1282  C     0.83027   0.50013   0.88378   0.00000  Uiso   1.00
C1283  C     0.82211   0.49986   0.52347   0.00000  Uiso   1.00
C1284  C     0.82349   0.49922   0.97538   0.00000  Uiso   1.00
C1285  C     0.95748   0.49963   0.74449   0.00000  Uiso   1.00
C1286  C     0.70890   0.50147   0.74283   0.00000  Uiso   1.00
H1287  H     0.82822   0.57298   0.52848   0.00000  Uiso   1.00
H1288  H     0.86382   0.44000   0.97262   0.00000  Uiso   1.00
H1289  H     0.78447   0.55885   0.96698   0.00000  Uiso   1.00
H1290  H     0.81605   0.42690   0.52955   0.00000  Uiso   1.00
N1291  N     0.83333   0.61907   0.75000   0.00000  Uiso   1.00
N1292  N     0.83333   0.38093   0.75000   0.00000  Uiso   1.00
O1293  O     0.77226   0.53821   0.74999   0.00000  Uiso   1.00
O1294  O     0.89441   0.46179   0.75000   0.00000  Uiso   1.00
O1295  O     0.89441   0.53821   0.75000   0.00000  Uiso   1.00
O1296  O     0.77226   0.46179   0.74999   0.00000  Uiso   1.00
O1297  O     0.83333   0.53822   0.68453   0.00000  Uiso   1.00
O1298  O     0.83334   0.46178   0.81547   0.00000  Uiso   1.00
O1299  O     0.83334   0.53822   0.81547   0.00000  Uiso   1.00
O1300  O     0.83333   0.46178   0.68453   0.00000  Uiso   1.00
Zn1301 Zn    0.83333   0.55104   0.75000   0.00000  Uiso   1.00
Zn1302 Zn    0.83333   0.44896   0.75000   0.00000  Uiso   1.00
F1303  F     0.87374   0.37965   0.81494   0.00000  Uiso   1.00
F1304  F     0.79141   0.62037   0.68589   0.00000  Uiso   1.00
F1305  F     0.79344   0.38019   0.68482   0.00000  Uiso   1.00
F1306  F     0.87541   0.61954   0.81403   0.00000  Uiso   1.00
F1307  F     0.83174   0.58213   0.61272   0.00000  Uiso   1.00
F1308  F     0.87277   0.43286   0.88842   0.00000  Uiso   1.00
F1309  F     0.78728   0.56726   0.88191   0.00000  Uiso   1.00
F1310  F     0.82373   0.41798   0.61335   0.00000  Uiso   1.00
C1311  C     0.70336   0.42005   0.71001   0.00000  Uiso   1.00
C1312  C     0.71463   0.43562   0.66280   0.00000  Uiso   1.00
C1313  C     0.71258   0.39666   0.62926   0.00000  Uiso   1.00
H1314  H     0.73088   0.36685   0.64078   0.00000  Uiso   1.00
H1315  H     0.68008   0.38603   0.62437   0.00000  Uiso   1.00
H1316  H     0.72487   0.40816   0.59684   0.00000  Uiso   1.00
H1317  H     0.69286   0.46270   0.65138   0.00000  Uiso   1.00
H1318  H     0.74613   0.45012   0.66295   0.00000  Uiso   1.00
H1319  H     0.72930   0.40201   0.72653   0.00000  Uiso   1.00
H1320  H     0.67858   0.39432   0.70670   0.00000  Uiso   1.00
C1321  C     0.95829   0.57607   0.70097   0.00000  Uiso   1.00
C1322  C     0.94206   0.55534   0.65748   0.00000  Uiso   1.00
C1323  C     0.92771   0.59232   0.62524   0.00000  Uiso   1.00
H1324  H     0.90306   0.61346   0.64057   0.00000  Uiso   1.00
H1325  H     0.95389   0.61448   0.61615   0.00000  Uiso   1.00
H1326  H     0.91546   0.57642   0.59447   0.00000  Uiso   1.00
H1327  H     0.96698   0.53506   0.64149   0.00000  Uiso   1.00
H1328  H     0.91592   0.53236   0.66406   0.00000  Uiso   1.00
H1329  H     0.93399   0.59587   0.71831   0.00000  Uiso   1.00
H1330  H     0.98179   0.60114   0.69078   0.00000  Uiso   1.00
C1331  C     0.96722   0.41874   0.77922   0.00000  Uiso   1.00
C1332  C     0.95947   0.43281   0.82767   0.00000  Uiso   1.00
C1333  C     0.96283   0.39228   0.85929   0.00000  Uiso   1.00
H1334  H     0.94264   0.36416   0.84823   0.00000  Uiso   1.00
H1335  H     0.99517   0.37959   0.86071   0.00000  Uiso   1.00
H1336  H     0.95364   0.40294   0.89322   0.00000  Uiso   1.00
H1337  H     0.98258   0.45837   0.83841   0.00000  Uiso   1.00
H1338  H     0.92845   0.44870   0.83046   0.00000  Uiso   1.00
H1339  H     0.94019   0.40151   0.76440   0.00000  Uiso   1.00
H1340  H     0.99208   0.39245   0.77965   0.00000  Uiso   1.00
C1341  C     0.70232   0.58935   0.75720   0.00000  Uiso   1.00
C1342  C     0.71234   0.59037   0.80713   0.00000  Uiso   1.00
C1343  C     0.73131   0.63574   0.82049   0.00000  Uiso   1.00
H1344  H     0.76142   0.64020   0.80380   0.00000  Uiso   1.00
H1345  H     0.71042   0.66436   0.81121   0.00000  Uiso   1.00
H1346  H     0.73636   0.63659   0.85699   0.00000  Uiso   1.00
H1347  H     0.68341   0.58558   0.82614   0.00000  Uiso   1.00
H1348  H     0.73383   0.56248   0.81662   0.00000  Uiso   1.00
H1349  H     0.72866   0.59985   0.73650   0.00000  Uiso   1.00
H1350  H     0.67880   0.61655   0.75242   0.00000  Uiso   1.00
C1351  C     0.08650   0.83374   0.74791   0.00000  Uiso   1.00
C1352  C     0.24678   0.83314   0.74916   0.00000  Uiso   1.00
C1353  C     0.16567   0.83333   0.66367   0.00000  Uiso   1.00
C1354  C     0.16633   0.83337   0.83608   0.00000  Uiso   1.00
C1355  C     0.18710   0.69045   0.78234   0.00000  Uiso   1.00
C1356  C     0.14598   0.97616   0.71783   0.00000  Uiso   1.00
C1357  C     0.14642   0.69076   0.71761   0.00000  Uiso   1.00
C1358  C     0.18750   0.97579   0.78211   0.00000  Uiso   1.00
C1359  C     0.02118   0.79333   0.73767   0.00000  Uiso   1.00
C1360  C     0.31108   0.87315   0.73112   0.00000  Uiso   1.00
C1361  C     0.31415   0.79280   0.75186   0.00000  Uiso   1.00
C1362  C     0.01922   0.87633   0.74276   0.00000  Uiso   1.00
C1363  C     0.15934   0.87438   0.54617   0.00000  Uiso   1.00
C1364  C     0.18035   0.79906   0.95399   0.00000  Uiso   1.00
C1365  C     0.13652   0.86644   0.95083   0.00000  Uiso   1.00
C1366  C     0.15326   0.79228   0.54678   0.00000  Uiso   1.00
C1367  C     0.16192   0.87469   0.59197   0.00000  Uiso   1.00
C1368  C     0.18325   0.79906   0.90832   0.00000  Uiso   1.00
C1369  C     0.14034   0.86733   0.90515   0.00000  Uiso   1.00
C1370  C     0.15727   0.79207   0.59240   0.00000  Uiso   1.00
C1371  C     0.16195   0.83335   0.61551   0.00000  Uiso   1.00
C1372  C     0.16360   0.83346   0.88378   0.00000  Uiso   1.00
C1373  C     0.15545   0.83319   0.52347   0.00000  Uiso   1.00
C1374  C     0.15683   0.83255   0.97538   0.00000  Uiso   1.00
C1375  C     0.29081   0.83296   0.74449   0.00000  Uiso   1.00
C1376  C     0.04223   0.83480   0.74283   0.00000  Uiso   1.00
H1377  H     0.16156   0.90631   0.52848   0.00000  Uiso   1.00
H1378  H     0.19715   0.77333   0.97262   0.00000  Uiso   1.00
H1379  H     0.11780   0.89218   0.96698   0.00000  Uiso   1.00
H1380  H     0.14938   0.76023   0.52955   0.00000  Uiso   1.00
N1381  N     0.16667   0.95240   0.75000   0.00000  Uiso   1.00
N1382  N     0.16667   0.71427   0.75000   0.00000  Uiso   1.00
O1383  O     0.10559   0.87154   0.74999   0.00000  Uiso   1.00
O1384  O     0.22774   0.79513   0.75000   0.00000  Uiso   1.00
O1385  O     0.22774   0.87154   0.75000   0.00000  Uiso   1.00
O1386  O     0.10559   0.79513   0.74999   0.00000  Uiso   1.00
O1387  O     0.16666   0.87155   0.68453   0.00000  Uiso   1.00
O1388  O     0.16667   0.79511   0.81547   0.00000  Uiso   1.00
O1389  O     0.16667   0.87155   0.81547   0.00000  Uiso   1.00
O1390  O     0.16666   0.79511   0.68453   0.00000  Uiso   1.00
Zn1391 Zn    0.16667   0.88437   0.75000   0.00000  Uiso   1.00
Zn1392 Zn    0.16667   0.78229   0.75000   0.00000  Uiso   1.00
F1393  F     0.20708   0.71298   0.81494   0.00000  Uiso   1.00
F1394  F     0.12474   0.95370   0.68589   0.00000  Uiso   1.00
F1395  F     0.12678   0.71352   0.68482   0.00000  Uiso   1.00
F1396  F     0.20874   0.95288   0.81403   0.00000  Uiso   1.00
F1397  F     0.16508   0.91546   0.61272   0.00000  Uiso   1.00
F1398  F     0.20611   0.76619   0.88842   0.00000  Uiso   1.00
F1399  F     0.12061   0.90059   0.88191   0.00000  Uiso   1.00
F1400  F     0.15706   0.75131   0.61335   0.00000  Uiso   1.00
C1401  C     0.03669   0.75338   0.71001   0.00000  Uiso   1.00
C1402  C     0.04796   0.76896   0.66280   0.00000  Uiso   1.00
C1403  C     0.04591   0.72999   0.62926   0.00000  Uiso   1.00
H1404  H     0.06421   0.70018   0.64078   0.00000  Uiso   1.00
H1405  H     0.01341   0.71937   0.62437   0.00000  Uiso   1.00
H1406  H     0.05820   0.74149   0.59684   0.00000  Uiso   1.00
H1407  H     0.02619   0.79604   0.65138   0.00000  Uiso   1.00
H1408  H     0.07946   0.78345   0.66295   0.00000  Uiso   1.00
H1409  H     0.06264   0.73534   0.72653   0.00000  Uiso   1.00
H1410  H     0.01191   0.72765   0.70670   0.00000  Uiso   1.00
C1411  C     0.29162   0.90940   0.70097   0.00000  Uiso   1.00
C1412  C     0.27539   0.88867   0.65748   0.00000  Uiso   1.00
C1413  C     0.26104   0.92566   0.62524   0.00000  Uiso   1.00
H1414  H     0.23639   0.94679   0.64057   0.00000  Uiso   1.00
H1415  H     0.28723   0.94781   0.61615   0.00000  Uiso   1.00
H1416  H     0.24880   0.90975   0.59447   0.00000  Uiso   1.00
H1417  H     0.30032   0.86839   0.64149   0.00000  Uiso   1.00
H1418  H     0.24925   0.86570   0.66406   0.00000  Uiso   1.00
H1419  H     0.26733   0.92920   0.71831   0.00000  Uiso   1.00
H1420  H     0.31513   0.93448   0.69078   0.00000  Uiso   1.00
C1421  C     0.30055   0.75208   0.77922   0.00000  Uiso   1.00
C1422  C     0.29280   0.76614   0.82767   0.00000  Uiso   1.00
C1423  C     0.29616   0.72561   0.85929   0.00000  Uiso   1.00
H1424  H     0.27598   0.69749   0.84823   0.00000  Uiso   1.00
H1425  H     0.32850   0.71293   0.86071   0.00000  Uiso   1.00
H1426  H     0.28698   0.73628   0.89322   0.00000  Uiso   1.00
H1427  H     0.31591   0.79171   0.83841   0.00000  Uiso   1.00
H1428  H     0.26178   0.78203   0.83046   0.00000  Uiso   1.00
H1429  H     0.27352   0.73485   0.76440   0.00000  Uiso   1.00
H1430  H     0.32541   0.72579   0.77965   0.00000  Uiso   1.00
C1431  C     0.03565   0.92268   0.75720   0.00000  Uiso   1.00
C1432  C     0.04568   0.92370   0.80713   0.00000  Uiso   1.00
C1433  C     0.06465   0.96907   0.82049   0.00000  Uiso   1.00
H1434  H     0.09475   0.97354   0.80380   0.00000  Uiso   1.00
H1435  H     0.04376   0.99769   0.81121   0.00000  Uiso   1.00
H1436  H     0.06969   0.96992   0.85699   0.00000  Uiso   1.00
H1437  H     0.01675   0.91891   0.82614   0.00000  Uiso   1.00
H1438  H     0.06716   0.89581   0.81662   0.00000  Uiso   1.00
H1439  H     0.06200   0.93318   0.73650   0.00000  Uiso   1.00
H1440  H     0.01213   0.94988   0.75242   0.00000  Uiso   1.00
C1441  C     0.41984   0.83374   0.74791   0.00000  Uiso   1.00
C1442  C     0.58011   0.83314   0.74916   0.00000  Uiso   1.00
C1443  C     0.49900   0.83333   0.66367   0.00000  Uiso   1.00
C1444  C     0.49966   0.83337   0.83608   0.00000  Uiso   1.00
C1445  C     0.52043   0.69045   0.78234   0.00000  Uiso   1.00
C1446  C     0.47931   0.97616   0.71783   0.00000  Uiso   1.00
C1447  C     0.47975   0.69076   0.71761   0.00000  Uiso   1.00
C1448  C     0.52084   0.97579   0.78211   0.00000  Uiso   1.00
C1449  C     0.35451   0.79333   0.73767   0.00000  Uiso   1.00
C1450  C     0.64441   0.87315   0.73112   0.00000  Uiso   1.00
C1451  C     0.64749   0.79280   0.75186   0.00000  Uiso   1.00
C1452  C     0.35255   0.87633   0.74276   0.00000  Uiso   1.00
C1453  C     0.49267   0.87438   0.54617   0.00000  Uiso   1.00
C1454  C     0.51369   0.79906   0.95399   0.00000  Uiso   1.00
C1455  C     0.46985   0.86644   0.95083   0.00000  Uiso   1.00
C1456  C     0.48659   0.79228   0.54678   0.00000  Uiso   1.00
C1457  C     0.49525   0.87469   0.59197   0.00000  Uiso   1.00
C1458  C     0.51658   0.79906   0.90832   0.00000  Uiso   1.00
C1459  C     0.47367   0.86733   0.90515   0.00000  Uiso   1.00
C1460  C     0.49061   0.79207   0.59240   0.00000  Uiso   1.00
C1461  C     0.49529   0.83335   0.61551   0.00000  Uiso   1.00
C1462  C     0.49694   0.83346   0.88378   0.00000  Uiso   1.00
C1463  C     0.48878   0.83319   0.52347   0.00000  Uiso   1.00
C1464  C     0.49016   0.83255   0.97538   0.00000  Uiso   1.00
C1465  C     0.62415   0.83296   0.74449   0.00000  Uiso   1.00
C1466  C     0.37557   0.83480   0.74283   0.00000  Uiso   1.00
H1467  H     0.49489   0.90631   0.52848   0.00000  Uiso   1.00
H1468  H     0.53048   0.77333   0.97262   0.00000  Uiso   1.00
H1469  H     0.45114   0.89218   0.96698   0.00000  Uiso   1.00
H1470  H     0.48272   0.76023   0.52955   0.00000  Uiso   1.00
N1471  N     0.50000   0.95240   0.75000   0.00000  Uiso   1.00
N1472  N     0.50000   0.71427   0.75000   0.00000  Uiso   1.00
O1473  O     0.43892   0.87154   0.74999   0.00000  Uiso   1.00
O1474  O     0.56108   0.79513   0.75000   0.00000  Uiso   1.00
O1475  O     0.56108   0.87154   0.75000   0.00000  Uiso   1.00
O1476  O     0.43892   0.79513   0.74999   0.00000  Uiso   1.00
O1477  O     0.50000   0.87155   0.68453   0.00000  Uiso   1.00
O1478  O     0.50000   0.79511   0.81547   0.00000  Uiso   1.00
O1479  O     0.50000   0.87155   0.81547   0.00000  Uiso   1.00
O1480  O     0.50000   0.79511   0.68453   0.00000  Uiso   1.00
Zn1481 Zn    0.50000   0.88437   0.75000   0.00000  Uiso   1.00
Zn1482 Zn    0.50000   0.78229   0.75000   0.00000  Uiso   1.00
F1483  F     0.54041   0.71298   0.81494   0.00000  Uiso   1.00
F1484  F     0.45808   0.95370   0.68589   0.00000  Uiso   1.00
F1485  F     0.46011   0.71352   0.68482   0.00000  Uiso   1.00
F1486  F     0.54208   0.95288   0.81403   0.00000  Uiso   1.00
F1487  F     0.49841   0.91546   0.61272   0.00000  Uiso   1.00
F1488  F     0.53944   0.76619   0.88842   0.00000  Uiso   1.00
F1489  F     0.45394   0.90059   0.88191   0.00000  Uiso   1.00
F1490  F     0.49039   0.75131   0.61335   0.00000  Uiso   1.00
C1491  C     0.37002   0.75338   0.71001   0.00000  Uiso   1.00
C1492  C     0.38130   0.76896   0.66280   0.00000  Uiso   1.00
C1493  C     0.37925   0.72999   0.62926   0.00000  Uiso   1.00
H1494  H     0.39754   0.70018   0.64078   0.00000  Uiso   1.00
H1495  H     0.34674   0.71937   0.62437   0.00000  Uiso   1.00
H1496  H     0.39153   0.74149   0.59684   0.00000  Uiso   1.00
H1497  H     0.35953   0.79604   0.65138   0.00000  Uiso   1.00
H1498  H     0.41279   0.78345   0.66295   0.00000  Uiso   1.00
H1499  H     0.39597   0.73534   0.72653   0.00000  Uiso   1.00
H1500  H     0.34524   0.72765   0.70670   0.00000  Uiso   1.00
C1501  C     0.62496   0.90940   0.70097   0.00000  Uiso   1.00
C1502  C     0.60873   0.88867   0.65748   0.00000  Uiso   1.00
C1503  C     0.59437   0.92566   0.62524   0.00000  Uiso   1.00
H1504  H     0.56973   0.94679   0.64057   0.00000  Uiso   1.00
H1505  H     0.62056   0.94781   0.61615   0.00000  Uiso   1.00
H1506  H     0.58213   0.90975   0.59447   0.00000  Uiso   1.00
H1507  H     0.63365   0.86839   0.64149   0.00000  Uiso   1.00
H1508  H     0.58259   0.86570   0.66406   0.00000  Uiso   1.00
H1509  H     0.60066   0.92920   0.71831   0.00000  Uiso   1.00
H1510  H     0.64846   0.93448   0.69078   0.00000  Uiso   1.00
C1511  C     0.63388   0.75208   0.77922   0.00000  Uiso   1.00
C1512  C     0.62614   0.76614   0.82767   0.00000  Uiso   1.00
C1513  C     0.62949   0.72561   0.85929   0.00000  Uiso   1.00
H1514  H     0.60931   0.69749   0.84823   0.00000  Uiso   1.00
H1515  H     0.66184   0.71293   0.86071   0.00000  Uiso   1.00
H1516  H     0.62031   0.73628   0.89322   0.00000  Uiso   1.00
H1517  H     0.64924   0.79171   0.83841   0.00000  Uiso   1.00
H1518  H     0.59512   0.78203   0.83046   0.00000  Uiso   1.00
H1519  H     0.60686   0.73485   0.76440   0.00000  Uiso   1.00
H1520  H     0.65875   0.72579   0.77965   0.00000  Uiso   1.00
C1521  C     0.36898   0.92268   0.75720   0.00000  Uiso   1.00
C1522  C     0.37901   0.92370   0.80713   0.00000  Uiso   1.00
C1523  C     0.39798   0.96907   0.82049   0.00000  Uiso   1.00
H1524  H     0.42809   0.97354   0.80380   0.00000  Uiso   1.00
H1525  H     0.37709   0.99769   0.81121   0.00000  Uiso   1.00
H1526  H     0.40302   0.96992   0.85699   0.00000  Uiso   1.00
H1527  H     0.35008   0.91891   0.82614   0.00000  Uiso   1.00
H1528  H     0.40050   0.89581   0.81662   0.00000  Uiso   1.00
H1529  H     0.39533   0.93318   0.73650   0.00000  Uiso   1.00
H1530  H     0.34547   0.94988   0.75242   0.00000  Uiso   1.00
C1531  C     0.75317   0.83374   0.74791   0.00000  Uiso   1.00
C1532  C     0.91344   0.83314   0.74916   0.00000  Uiso   1.00
C1533  C     0.83233   0.83333   0.66367   0.00000  Uiso   1.00
C1534  C     0.83299   0.83337   0.83608   0.00000  Uiso   1.00
C1535  C     0.85376   0.69045   0.78234   0.00000  Uiso   1.00
C1536  C     0.81265   0.97616   0.71783   0.00000  Uiso   1.00
C1537  C     0.81308   0.69076   0.71761   0.00000  Uiso   1.00
C1538  C     0.85417   0.97579   0.78211   0.00000  Uiso   1.00
C1539  C     0.68784   0.79333   0.73767   0.00000  Uiso   1.00
C1540  C     0.97775   0.87315   0.73112   0.00000  Uiso   1.00
C1541  C     0.98082   0.79280   0.75186   0.00000  Uiso   1.00
C1542  C     0.68588   0.87633   0.74276   0.00000  Uiso   1.00
C1543  C     0.82601   0.87438   0.54617   0.00000  Uiso   1.00
C1544  C     0.84702   0.79906   0.95399   0.00000  Uiso   1.00
C1545  C     0.80318   0.86644   0.95083   0.00000  Uiso   1.00
C1546  C     0.81992   0.79228   0.54678   0.00000  Uiso   1.00
C1547  C     0.82858   0.87469   0.59197   0.00000  Uiso   1.00
C1548  C     0.84992   0.79906   0.90832   0.00000  Uiso   1.00
C1549  C     0.80701   0.86733   0.90515   0.00000  Uiso   1.00
C1550  C     0.82394   0.79207   0.59240   0.00000  Uiso   1.00
C1551  C     0.82862   0.83335   0.61551   0.00000  Uiso   1.00
C1552  C     0.83027   0.83346   0.88378   0.00000  Uiso   1.00
C1553  C     0.82211   0.83319   0.52347   0.00000  Uiso   1.00
C1554  C     0.82349   0.83255   0.97538   0.00000  Uiso   1.00
C1555  C     0.95748   0.83296   0.74449   0.00000  Uiso   1.00
C1556  C     0.70890   0.83480   0.74283   0.00000  Uiso   1.00
H1557  H     0.82822   0.90631   0.52848   0.00000  Uiso   1.00
H1558  H     0.86382   0.77333   0.97262   0.00000  Uiso   1.00
H1559  H     0.78447   0.89218   0.96698   0.00000  Uiso   1.00
H1560  H     0.81605   0.76023   0.52955   0.00000  Uiso   1.00
N1561  N     0.83333   0.95240   0.75000   0.00000  Uiso   1.00
N1562  N     0.83333   0.71427   0.75000   0.00000  Uiso   1.00
O1563  O     0.77226   0.87154   0.74999   0.00000  Uiso   1.00
O1564  O     0.89441   0.79513   0.75000   0.00000  Uiso   1.00
O1565  O     0.89441   0.87154   0.75000   0.00000  Uiso   1.00
O1566  O     0.77226   0.79513   0.74999   0.00000  Uiso   1.00
O1567  O     0.83333   0.87155   0.68453   0.00000  Uiso   1.00
O1568  O     0.83334   0.79511   0.81547   0.00000  Uiso   1.00
O1569  O     0.83334   0.87155   0.81547   0.00000  Uiso   1.00
O1570  O     0.83333   0.79511   0.68453   0.00000  Uiso   1.00
Zn1571 Zn    0.83333   0.88437   0.75000   0.00000  Uiso   1.00
Zn1572 Zn    0.83333   0.78229   0.75000   0.00000  Uiso   1.00
F1573  F     0.87374   0.71298   0.81494   0.00000  Uiso   1.00
F1574  F     0.79141   0.95370   0.68589   0.00000  Uiso   1.00
F1575  F     0.79344   0.71352   0.68482   0.00000  Uiso   1.00
F1576  F     0.87541   0.95288   0.81403   0.00000  Uiso   1.00
F1577  F     0.83174   0.91546   0.61272   0.00000  Uiso   1.00
F1578  F     0.87277   0.76619   0.88842   0.00000  Uiso   1.00
F1579  F     0.78728   0.90059   0.88191   0.00000  Uiso   1.00
F1580  F     0.82373   0.75131   0.61335   0.00000  Uiso   1.00
C1581  C     0.70336   0.75338   0.71001   0.00000  Uiso   1.00
C1582  C     0.71463   0.76896   0.66280   0.00000  Uiso   1.00
C1583  C     0.71258   0.72999   0.62926   0.00000  Uiso   1.00
H1584  H     0.73088   0.70018   0.64078   0.00000  Uiso   1.00
H1585  H     0.68008   0.71937   0.62437   0.00000  Uiso   1.00
H1586  H     0.72487   0.74149   0.59684   0.00000  Uiso   1.00
H1587  H     0.69286   0.79604   0.65138   0.00000  Uiso   1.00
H1588  H     0.74613   0.78345   0.66295   0.00000  Uiso   1.00
H1589  H     0.72930   0.73534   0.72653   0.00000  Uiso   1.00
H1590  H     0.67858   0.72765   0.70670   0.00000  Uiso   1.00
C1591  C     0.95829   0.90940   0.70097   0.00000  Uiso   1.00
C1592  C     0.94206   0.88867   0.65748   0.00000  Uiso   1.00
C1593  C     0.92771   0.92566   0.62524   0.00000  Uiso   1.00
H1594  H     0.90306   0.94679   0.64057   0.00000  Uiso   1.00
H1595  H     0.95389   0.94781   0.61615   0.00000  Uiso   1.00
H1596  H     0.91546   0.90975   0.59447   0.00000  Uiso   1.00
H1597  H     0.96698   0.86839   0.64149   0.00000  Uiso   1.00
H1598  H     0.91592   0.86570   0.66406   0.00000  Uiso   1.00
H1599  H     0.93399   0.92920   0.71831   0.00000  Uiso   1.00
H1600  H     0.98179   0.93448   0.69078   0.00000  Uiso   1.00
C1601  C     0.96722   0.75208   0.77922   0.00000  Uiso   1.00
C1602  C     0.95947   0.76614   0.82767   0.00000  Uiso   1.00
C1603  C     0.96283   0.72561   0.85929   0.00000  Uiso   1.00
H1604  H     0.94264   0.69749   0.84823   0.00000  Uiso   1.00
H1605  H     0.99517   0.71293   0.86071   0.00000  Uiso   1.00
H1606  H     0.95364   0.73628   0.89322   0.00000  Uiso   1.00
H1607  H     0.98258   0.79171   0.83841   0.00000  Uiso   1.00
H1608  H     0.92845   0.78203   0.83046   0.00000  Uiso   1.00
H1609  H     0.94019   0.73485   0.76440   0.00000  Uiso   1.00
H1610  H     0.99208   0.72579   0.77965   0.00000  Uiso   1.00
C1611  C     0.70232   0.92268   0.75720   0.00000  Uiso   1.00
C1612  C     0.71234   0.92370   0.80713   0.00000  Uiso   1.00
C1613  C     0.73131   0.96907   0.82049   0.00000  Uiso   1.00
H1614  H     0.76142   0.97354   0.80380   0.00000  Uiso   1.00
H1615  H     0.71042   0.99769   0.81121   0.00000  Uiso   1.00
H1616  H     0.73636   0.96992   0.85699   0.00000  Uiso   1.00
H1617  H     0.68341   0.91891   0.82614   0.00000  Uiso   1.00
H1618  H     0.73383   0.89581   0.81662   0.00000  Uiso   1.00
H1619  H     0.72866   0.93318   0.73650   0.00000  Uiso   1.00
H1620  H     0.67880   0.94988   0.75242   0.00000  Uiso   1.00
loop_
_geom_bond_atom_site_label_1
_geom_bond_atom_site_label_2
_geom_bond_distance
_geom_bond_site_symmetry_2
_ccdc_geom_bond_type
C1     O33     1.279   .     A
C1     C26     1.443   .     S
C1     O36     1.290   .     A
C2     O35     1.283   .     A
C2     O34     1.282   .     A
C2     C25     1.436   .     S
C3     O40     1.288   .     A
C3     C21     1.454   .     S
C3     O37     1.288   .     A
C4     C22     1.439   .     S
C4     O39     1.284   .     A
C4     O38     1.285   .     A
C5     N32     1.364   .     A
C5     F43     1.349   .     S
C5     C548    1.412   1_545 S
C6     N31     1.364   .     A
C6     F44     1.354   .     S
C6     C277    1.410   .     S
C7     F45     1.347   .     S
C7     N32     1.363   .     A
C7     C546    1.410   1_545 S
C8     N31     1.365   .     A
C8     F46     1.355   .     S
C8     C275    1.412   .     S
C9     C51     1.524   .     S
C9     C26     1.411   .     A
C9     C191    1.379   1_455 S
C10    C25     1.418   .     A
C10    C61     1.530   .     S
C10    C102    1.391   .     S
C11    C71     1.524   .     S
C11    C25     1.414   .     A
C11    C99     1.379   .     S
C12    C26     1.426   .     A
C12    C81     1.530   .     S
C12    C190    1.391   1_455 S
C13    C23     1.397   .     A
C13    C17     1.381   .     A
C13    H27     1.083   .     S
C14    C18     1.379   .     A
C14    C24     1.400   .     A
C14    H28     1.083   .     S
C15    C19     1.382   .     A
C15    H29     1.083   .     S
C15    C24     1.399   .     A
C16    H30     1.083   .     S
C16    C20     1.379   .     A
C16    C23     1.396   .     A
C17    C21     1.408   .     A
C17    F47     1.356   .     S
C18    C22     1.400   .     A
C18    F48     1.355   .     S
C19    C22     1.403   .     A
C19    F49     1.356   .     S
C20    F50     1.355   .     S
C20    C21     1.408   .     A
C23    C834    1.449   1_554 S
C24    C833    1.449   .     S
N31    Zn41    2.001   .     S
N32    Zn42    2.001   .     S
O33    Zn41    2.020   .     S
O34    Zn42    2.020   .     S
O35    Zn41    2.013   .     S
O36    Zn42    2.013   .     S
O37    Zn41    2.006   .     S
O38    Zn42    2.006   .     S
O39    Zn41    2.007   .     S
O40    Zn42    2.007   .     S
C51    C52     1.541   .     S
C51    H59     1.106   .     S
C51    H60     1.113   .     S
C52    H58     1.110   .     S
C52    C53     1.529   .     S
C52    H57     1.113   .     S
C53    H54     1.109   .     S
C53    H55     1.111   .     S
C53    H56     1.111   .     S
C61    H70     1.110   .     S
C61    H69     1.109   .     S
C61    C62     1.536   .     S
C62    H67     1.112   .     S
C62    C63     1.526   .     S
C62    H68     1.108   .     S
C63    H65     1.111   .     S
C63    H66     1.110   .     S
C63    H64     1.111   .     S
C71    H79     1.107   .     S
C71    H80     1.112   .     S
C71    C72     1.538   .     S
C72    H77     1.113   .     S
C72    H78     1.109   .     S
C72    C73     1.529   .     S
C73    H74     1.109   .     S
C73    H75     1.111   .     S
C73    H76     1.110   .     S
C81    C82     1.536   .     S
C81    H89     1.107   .     S
C81    H90     1.109   .     S
C82    H87     1.112   .     S
C82    H88     1.108   .     S
C82    C83     1.527   .     S
C83    H84     1.110   .     S
C83    H85     1.111   .     S
C83    H86     1.110   .     S
C91    O123    1.279   .     A
C91    C116    1.443   .     S
C91    O126    1.290   .     A
C92    O125    1.283   .     A
C92    O124    1.282   .     A
C92    C115    1.436   .     S
C93    O130    1.288   .     A
C93    C111    1.454   .     S
C93    O127    1.288   .     A
C94    C112    1.439   .     S
C94    O129    1.284   .     A
C94    O128    1.285   .     A
C95    N122    1.364   .     A
C95    F133    1.349   .     S
C95    C638    1.412   1_545 S
C96    N121    1.364   .     A
C96    F134    1.354   .     S
C96    C367    1.410   .     S
C97    F135    1.347   .     S
C97    N122    1.363   .     A
C97    C636    1.410   1_545 S
C98    N121    1.365   .     A
C98    F136    1.355   .     S
C98    C365    1.412   .     S
C99    C141    1.524   .     S
C99    C116    1.411   .     A
C100   C115    1.418   .     A
C100   C151    1.530   .     S
C100   C192    1.391   .     S
C101   C161    1.524   .     S
C101   C115    1.414   .     A
C101   C189    1.379   .     S
C102   C116    1.426   .     A
C102   C171    1.530   .     S
C103   C113    1.397   .     A
C103   C107    1.381   .     A
C103   H117    1.083   .     S
C104   C108    1.379   .     A
C104   C114    1.400   .     A
C104   H118    1.083   .     S
C105   C109    1.382   .     A
C105   H119    1.083   .     S
C105   C114    1.399   .     A
C106   H120    1.083   .     S
C106   C110    1.379   .     A
C106   C113    1.396   .     A
C107   C111    1.408   .     A
C107   F137    1.356   .     S
C108   C112    1.400   .     A
C108   F138    1.355   .     S
C109   C112    1.403   .     A
C109   F139    1.356   .     S
C110   F140    1.355   .     S
C110   C111    1.408   .     A
C113   C924    1.449   1_554 S
C114   C923    1.449   .     S
N121   Zn131   2.001   .     S
N122   Zn132   2.001   .     S
O123   Zn131   2.020   .     S
O124   Zn132   2.020   .     S
O125   Zn131   2.013   .     S
O126   Zn132   2.013   .     S
O127   Zn131   2.006   .     S
O128   Zn132   2.006   .     S
O129   Zn131   2.007   .     S
O130   Zn132   2.007   .     S
C141   C142    1.541   .     S
C141   H149    1.106   .     S
C141   H150    1.113   .     S
C142   H148    1.110   .     S
C142   C143    1.529   .     S
C142   H147    1.113   .     S
C143   H144    1.109   .     S
C143   H145    1.111   .     S
C143   H146    1.111   .     S
C151   H160    1.110   .     S
C151   H159    1.109   .     S
C151   C152    1.536   .     S
C152   H157    1.112   .     S
C152   C153    1.526   .     S
C152   H158    1.108   .     S
C153   H155    1.111   .     S
C153   H156    1.110   .     S
C153   H154    1.111   .     S
C161   H169    1.107   .     S
C161   H170    1.112   .     S
C161   C162    1.538   .     S
C162   H167    1.113   .     S
C162   H168    1.109   .     S
C162   C163    1.529   .     S
C163   H164    1.109   .     S
C163   H165    1.111   .     S
C163   H166    1.110   .     S
C171   C172    1.536   .     S
C171   H179    1.107   .     S
C171   H180    1.109   .     S
C172   H177    1.112   .     S
C172   H178    1.108   .     S
C172   C173    1.527   .     S
C173   H174    1.110   .     S
C173   H175    1.111   .     S
C173   H176    1.110   .     S
C181   O213    1.279   .     A
C181   C206    1.443   .     S
C181   O216    1.290   .     A
C182   O215    1.283   .     A
C182   O214    1.282   .     A
C182   C205    1.436   .     S
C183   O220    1.288   .     A
C183   C201    1.454   .     S
C183   O217    1.288   .     A
C184   C202    1.439   .     S
C184   O219    1.284   .     A
C184   O218    1.285   .     A
C185   N212    1.364   .     A
C185   F223    1.349   .     S
C185   C728    1.412   1_545 S
C186   N211    1.364   .     A
C186   F224    1.354   .     S
C186   C457    1.410   .     S
C187   F225    1.347   .     S
C187   N212    1.363   .     A
C187   C726    1.410   1_545 S
C188   N211    1.365   .     A
C188   F226    1.355   .     S
C188   C455    1.412   .     S
C189   C231    1.524   .     S
C189   C206    1.411   .     A
C190   C205    1.418   .     A
C190   C241    1.530   .     S
C190   C12     1.391   1_655 S
C191   C251    1.524   .     S
C191   C205    1.414   .     A
C191   C9      1.379   1_655 S
C192   C206    1.426   .     A
C192   C261    1.530   .     S
C193   C203    1.397   .     A
C193   C197    1.381   .     A
C193   H207    1.083   .     S
C194   C198    1.379   .     A
C194   C204    1.400   .     A
C194   H208    1.083   .     S
C195   C199    1.382   .     A
C195   H209    1.083   .     S
C195   C204    1.399   .     A
C196   H210    1.083   .     S
C196   C200    1.379   .     A
C196   C203    1.396   .     A
C197   C201    1.408   .     A
C197   F227    1.356   .     S
C198   C202    1.400   .     A
C198   F228    1.355   .     S
C199   C202    1.403   .     A
C199   F229    1.356   .     S
C200   F230    1.355   .     S
C200   C201    1.408   .     A
C203   C1014   1.449   1_554 S
C204   C1013   1.449   .     S
N211   Zn221   2.001   .     S
N212   Zn222   2.001   .     S
O213   Zn221   2.020   .     S
O214   Zn222   2.020   .     S
O215   Zn221   2.013   .     S
O216   Zn222   2.013   .     S
O217   Zn221   2.006   .     S
O218   Zn222   2.006   .     S
O219   Zn221   2.007   .     S
O220   Zn222   2.007   .     S
C231   C232    1.541   .     S
C231   H239    1.106   .     S
C231   H240    1.113   .     S
C232   H238    1.110   .     S
C232   C233    1.529   .     S
C232   H237    1.113   .     S
C233   H234    1.109   .     S
C233   H235    1.111   .     S
C233   H236    1.111   .     S
C241   H250    1.110   .     S
C241   H249    1.109   .     S
C241   C242    1.536   .     S
C242   H247    1.112   .     S
C242   C243    1.526   .     S
C242   H248    1.108   .     S
C243   H245    1.111   .     S
C243   H246    1.110   .     S
C243   H244    1.111   .     S
C251   H259    1.107   .     S
C251   H260    1.112   .     S
C251   C252    1.538   .     S
C252   H257    1.113   .     S
C252   H258    1.109   .     S
C252   C253    1.529   .     S
C253   H254    1.109   .     S
C253   H255    1.111   .     S
C253   H256    1.110   .     S
C261   C262    1.536   .     S
C261   H269    1.107   .     S
C261   H270    1.109   .     S
C262   H267    1.112   .     S
C262   H268    1.108   .     S
C262   C263    1.527   .     S
C263   H264    1.110   .     S
C263   H265    1.111   .     S
C263   H266    1.110   .     S
C271   O303    1.279   .     A
C271   C296    1.443   .     S
C271   O306    1.290   .     A
C272   O305    1.283   .     A
C272   O304    1.282   .     A
C272   C295    1.436   .     S
C273   O310    1.288   .     A
C273   C291    1.454   .     S
C273   O307    1.288   .     A
C274   C292    1.439   .     S
C274   O309    1.284   .     A
C274   O308    1.285   .     A
C275   N302    1.364   .     A
C275   F313    1.349   .     S
C276   N301    1.364   .     A
C276   F314    1.354   .     S
C276   C547    1.410   .     S
C277   F315    1.347   .     S
C277   N302    1.363   .     A
C278   N301    1.365   .     A
C278   F316    1.355   .     S
C278   C545    1.412   .     S
C279   C321    1.524   .     S
C279   C296    1.411   .     A
C279   C461    1.379   1_455 S
C280   C295    1.418   .     A
C280   C331    1.530   .     S
C280   C372    1.391   .     S
C281   C341    1.524   .     S
C281   C295    1.414   .     A
C281   C369    1.379   .     S
C282   C296    1.426   .     A
C282   C351    1.530   .     S
C282   C460    1.391   1_455 S
C283   C293    1.397   .     A
C283   C287    1.381   .     A
C283   H297    1.083   .     S
C284   C288    1.379   .     A
C284   C294    1.400   .     A
C284   H298    1.083   .     S
C285   C289    1.382   .     A
C285   H299    1.083   .     S
C285   C294    1.399   .     A
C286   H300    1.083   .     S
C286   C290    1.379   .     A
C286   C293    1.396   .     A
C287   C291    1.408   .     A
C287   F317    1.356   .     S
C288   C292    1.400   .     A
C288   F318    1.355   .     S
C289   C292    1.403   .     A
C289   F319    1.356   .     S
C290   F320    1.355   .     S
C290   C291    1.408   .     A
C293   C1104   1.449   1_554 S
C294   C1103   1.449   .     S
N301   Zn311   2.001   .     S
N302   Zn312   2.001   .     S
O303   Zn311   2.020   .     S
O304   Zn312   2.020   .     S
O305   Zn311   2.013   .     S
O306   Zn312   2.013   .     S
O307   Zn311   2.006   .     S
O308   Zn312   2.006   .     S
O309   Zn311   2.007   .     S
O310   Zn312   2.007   .     S
C321   C322    1.541   .     S
C321   H329    1.106   .     S
C321   H330    1.113   .     S
C322   H328    1.110   .     S
C322   C323    1.529   .     S
C322   H327    1.113   .     S
C323   H324    1.109   .     S
C323   H325    1.111   .     S
C323   H326    1.111   .     S
C331   H340    1.110   .     S
C331   H339    1.109   .     S
C331   C332    1.536   .     S
C332   H337    1.112   .     S
C332   C333    1.526   .     S
C332   H338    1.108   .     S
C333   H335    1.111   .     S
C333   H336    1.110   .     S
C333   H334    1.111   .     S
C341   H349    1.107   .     S
C341   H350    1.112   .     S
C341   C342    1.538   .     S
C342   H347    1.113   .     S
C342   H348    1.109   .     S
C342   C343    1.529   .     S
C343   H344    1.109   .     S
C343   H345    1.111   .     S
C343   H346    1.110   .     S
C351   C352    1.536   .     S
C351   H359    1.107   .     S
C351   H360    1.109   .     S
C352   H357    1.112   .     S
C352   H358    1.108   .     S
C352   C353    1.527   .     S
C353   H354    1.110   .     S
C353   H355    1.111   .     S
C353   H356    1.110   .     S
C361   O393    1.279   .     A
C361   C386    1.443   .     S
C361   O396    1.290   .     A
C362   O395    1.283   .     A
C362   O394    1.282   .     A
C362   C385    1.436   .     S
C363   O400    1.288   .     A
C363   C381    1.454   .     S
C363   O397    1.288   .     A
C364   C382    1.439   .     S
C364   O399    1.284   .     A
C364   O398    1.285   .     A
C365   N392    1.364   .     A
C365   F403    1.349   .     S
C366   N391    1.364   .     A
C366   F404    1.354   .     S
C366   C637    1.410   .     S
C367   F405    1.347   .     S
C367   N392    1.363   .     A
C368   N391    1.365   .     A
C368   F406    1.355   .     S
C368   C635    1.412   .     S
C369   C411    1.524   .     S
C369   C386    1.411   .     A
C370   C385    1.418   .     A
C370   C421    1.530   .     S
C370   C462    1.391   .     S
C371   C431    1.524   .     S
C371   C385    1.414   .     A
C371   C459    1.379   .     S
C372   C386    1.426   .     A
C372   C441    1.530   .     S
C373   C383    1.397   .     A
C373   C377    1.381   .     A
C373   H387    1.083   .     S
C374   C378    1.379   .     A
C374   C384    1.400   .     A
C374   H388    1.083   .     S
C375   C379    1.382   .     A
C375   H389    1.083   .     S
C375   C384    1.399   .     A
C376   H390    1.083   .     S
C376   C380    1.379   .     A
C376   C383    1.396   .     A
C377   C381    1.408   .     A
C377   F407    1.356   .     S
C378   C382    1.400   .     A
C378   F408    1.355   .     S
C379   C382    1.403   .     A
C379   F409    1.356   .     S
C380   F410    1.355   .     S
C380   C381    1.408   .     A
C383   C1194   1.449   1_554 S
C384   C1193   1.449   .     S
N391   Zn401   2.001   .     S
N392   Zn402   2.001   .     S
O393   Zn401   2.020   .     S
O394   Zn402   2.020   .     S
O395   Zn401   2.013   .     S
O396   Zn402   2.013   .     S
O397   Zn401   2.006   .     S
O398   Zn402   2.006   .     S
O399   Zn401   2.007   .     S
O400   Zn402   2.007   .     S
C411   C412    1.541   .     S
C411   H419    1.106   .     S
C411   H420    1.113   .     S
C412   H418    1.110   .     S
C412   C413    1.529   .     S
C412   H417    1.113   .     S
C413   H414    1.109   .     S
C413   H415    1.111   .     S
C413   H416    1.111   .     S
C421   H430    1.110   .     S
C421   H429    1.109   .     S
C421   C422    1.536   .     S
C422   H427    1.112   .     S
C422   C423    1.526   .     S
C422   H428    1.108   .     S
C423   H425    1.111   .     S
C423   H426    1.110   .     S
C423   H424    1.111   .     S
C431   H439    1.107   .     S
C431   H440    1.112   .     S
C431   C432    1.538   .     S
C432   H437    1.113   .     S
C432   H438    1.109   .     S
C432   C433    1.529   .     S
C433   H434    1.109   .     S
C433   H435    1.111   .     S
C433   H436    1.110   .     S
C441   C442    1.536   .     S
C441   H449    1.107   .     S
C441   H450    1.109   .     S
C442   H447    1.112   .     S
C442   H448    1.108   .     S
C442   C443    1.527   .     S
C443   H444    1.110   .     S
C443   H445    1.111   .     S
C443   H446    1.110   .     S
C451   O483    1.279   .     A
C451   C476    1.443   .     S
C451   O486    1.290   .     A
C452   O485    1.283   .     A
C452   O484    1.282   .     A
C452   C475    1.436   .     S
C453   O490    1.288   .     A
C453   C471    1.454   .     S
C453   O487    1.288   .     A
C454   C472    1.439   .     S
C454   O489    1.284   .     A
C454   O488    1.285   .     A
C455   N482    1.364   .     A
C455   F493    1.349   .     S
C456   N481    1.364   .     A
C456   F494    1.354   .     S
C456   C727    1.410   .     S
C457   F495    1.347   .     S
C457   N482    1.363   .     A
C458   N481    1.365   .     A
C458   F496    1.355   .     S
C458   C725    1.412   .     S
C459   C501    1.524   .     S
C459   C476    1.411   .     A
C460   C475    1.418   .     A
C460   C511    1.530   .     S
C460   C282    1.391   1_655 S
C461   C521    1.524   .     S
C461   C475    1.414   .     A
C461   C279    1.379   1_655 S
C462   C476    1.426   .     A
C462   C531    1.530   .     S
C463   C473    1.397   .     A
C463   C467    1.381   .     A
C463   H477    1.083   .     S
C464   C468    1.379   .     A
C464   C474    1.400   .     A
C464   H478    1.083   .     S
C465   C469    1.382   .     A
C465   H479    1.083   .     S
C465   C474    1.399   .     A
C466   H480    1.083   .     S
C466   C470    1.379   .     A
C466   C473    1.396   .     A
C467   C471    1.408   .     A
C467   F497    1.356   .     S
C468   C472    1.400   .     A
C468   F498    1.355   .     S
C469   C472    1.403   .     A
C469   F499    1.356   .     S
C470   F500    1.355   .     S
C470   C471    1.408   .     A
C473   C1284   1.449   1_554 S
C474   C1283   1.449   .     S
N481   Zn491   2.001   .     S
N482   Zn492   2.001   .     S
O483   Zn491   2.020   .     S
O484   Zn492   2.020   .     S
O485   Zn491   2.013   .     S
O486   Zn492   2.013   .     S
O487   Zn491   2.006   .     S
O488   Zn492   2.006   .     S
O489   Zn491   2.007   .     S
O490   Zn492   2.007   .     S
C501   C502    1.541   .     S
C501   H509    1.106   .     S
C501   H510    1.113   .     S
C502   H508    1.110   .     S
C502   C503    1.529   .     S
C502   H507    1.113   .     S
C503   H504    1.109   .     S
C503   H505    1.111   .     S
C503   H506    1.111   .     S
C511   H520    1.110   .     S
C511   H519    1.109   .     S
C511   C512    1.536   .     S
C512   H517    1.112   .     S
C512   C513    1.526   .     S
C512   H518    1.108   .     S
C513   H515    1.111   .     S
C513   H516    1.110   .     S
C513   H514    1.111   .     S
C521   H529    1.107   .     S
C521   H530    1.112   .     S
C521   C522    1.538   .     S
C522   H527    1.113   .     S
C522   H528    1.109   .     S
C522   C523    1.529   .     S
C523   H524    1.109   .     S
C523   H525    1.111   .     S
C523   H526    1.110   .     S
C531   C532    1.536   .     S
C531   H539    1.107   .     S
C531   H540    1.109   .     S
C532   H537    1.112   .     S
C532   H538    1.108   .     S
C532   C533    1.527   .     S
C533   H534    1.110   .     S
C533   H535    1.111   .     S
C533   H536    1.110   .     S
C541   O573    1.279   .     A
C541   C566    1.443   .     S
C541   O576    1.290   .     A
C542   O575    1.283   .     A
C542   O574    1.282   .     A
C542   C565    1.436   .     S
C543   O580    1.288   .     A
C543   C561    1.454   .     S
C543   O577    1.288   .     A
C544   C562    1.439   .     S
C544   O579    1.284   .     A
C544   O578    1.285   .     A
C545   N572    1.364   .     A
C545   F583    1.349   .     S
C546   N571    1.364   .     A
C546   F584    1.354   .     S
C546   C7      1.410   1_565 S
C547   F585    1.347   .     S
C547   N572    1.363   .     A
C548   N571    1.365   .     A
C548   F586    1.355   .     S
C548   C5      1.412   1_565 S
C549   C591    1.524   .     S
C549   C566    1.411   .     A
C549   C731    1.379   1_455 S
C550   C565    1.418   .     A
C550   C601    1.530   .     S
C550   C642    1.391   .     S
C551   C611    1.524   .     S
C551   C565    1.414   .     A
C551   C639    1.379   .     S
C552   C566    1.426   .     A
C552   C621    1.530   .     S
C552   C730    1.391   1_455 S
C553   C563    1.397   .     A
C553   C557    1.381   .     A
C553   H567    1.083   .     S
C554   C558    1.379   .     A
C554   C564    1.400   .     A
C554   H568    1.083   .     S
C555   C559    1.382   .     A
C555   H569    1.083   .     S
C555   C564    1.399   .     A
C556   H570    1.083   .     S
C556   C560    1.379   .     A
C556   C563    1.396   .     A
C557   C561    1.408   .     A
C557   F587    1.356   .     S
C558   C562    1.400   .     A
C558   F588    1.355   .     S
C559   C562    1.403   .     A
C559   F589    1.356   .     S
C560   F590    1.355   .     S
C560   C561    1.408   .     A
C563   C1374   1.449   1_554 S
C564   C1373   1.449   .     S
N571   Zn581   2.001   .     S
N572   Zn582   2.001   .     S
O573   Zn581   2.020   .     S
O574   Zn582   2.020   .     S
O575   Zn581   2.013   .     S
O576   Zn582   2.013   .     S
O577   Zn581   2.006   .     S
O578   Zn582   2.006   .     S
O579   Zn581   2.007   .     S
O580   Zn582   2.007   .     S
C591   C592    1.541   .     S
C591   H599    1.106   .     S
C591   H600    1.113   .     S
C592   H598    1.110   .     S
C592   C593    1.529   .     S
C592   H597    1.113   .     S
C593   H594    1.109   .     S
C593   H595    1.111   .     S
C593   H596    1.111   .     S
C601   H610    1.110   .     S
C601   H609    1.109   .     S
C601   C602    1.536   .     S
C602   H607    1.112   .     S
C602   C603    1.526   .     S
C602   H608    1.108   .     S
C603   H605    1.111   .     S
C603   H606    1.110   .     S
C603   H604    1.111   .     S
C611   H619    1.107   .     S
C611   H620    1.112   .     S
C611   C612    1.538   .     S
C612   H617    1.113   .     S
C612   H618    1.109   .     S
C612   C613    1.529   .     S
C613   H614    1.109   .     S
C613   H615    1.111   .     S
C613   H616    1.110   .     S
C621   C622    1.536   .     S
C621   H629    1.107   .     S
C621   H630    1.109   .     S
C622   H627    1.112   .     S
C622   H628    1.108   .     S
C622   C623    1.527   .     S
C623   H624    1.110   .     S
C623   H625    1.111   .     S
C623   H626    1.110   .     S
C631   O663    1.279   .     A
C631   C656    1.443   .     S
C631   O666    1.290   .     A
C632   O665    1.283   .     A
C632   O664    1.282   .     A
C632   C655    1.436   .     S
C633   O670    1.288   .     A
C633   C651    1.454   .     S
C633   O667    1.288   .     A
C634   C652    1.439   .     S
C634   O669    1.284   .     A
C634   O668    1.285   .     A
C635   N662    1.364   .     A
C635   F673    1.349   .     S
C636   N661    1.364   .     A
C636   F674    1.354   .     S
C636   C97     1.410   1_565 S
C637   F675    1.347   .     S
C637   N662    1.363   .     A
C638   N661    1.365   .     A
C638   F676    1.355   .     S
C638   C95     1.412   1_565 S
C639   C681    1.524   .     S
C639   C656    1.411   .     A
C640   C655    1.418   .     A
C640   C691    1.530   .     S
C640   C732    1.391   .     S
C641   C701    1.524   .     S
C641   C655    1.414   .     A
C641   C729    1.379   .     S
C642   C656    1.426   .     A
C642   C711    1.530   .     S
C643   C653    1.397   .     A
C643   C647    1.381   .     A
C643   H657    1.083   .     S
C644   C648    1.379   .     A
C644   C654    1.400   .     A
C644   H658    1.083   .     S
C645   C649    1.382   .     A
C645   H659    1.083   .     S
C645   C654    1.399   .     A
C646   H660    1.083   .     S
C646   C650    1.379   .     A
C646   C653    1.396   .     A
C647   C651    1.408   .     A
C647   F677    1.356   .     S
C648   C652    1.400   .     A
C648   F678    1.355   .     S
C649   C652    1.403   .     A
C649   F679    1.356   .     S
C650   F680    1.355   .     S
C650   C651    1.408   .     A
C653   C1464   1.449   1_554 S
C654   C1463   1.449   .     S
N661   Zn671   2.001   .     S
N662   Zn672   2.001   .     S
O663   Zn671   2.020   .     S
O664   Zn672   2.020   .     S
O665   Zn671   2.013   .     S
O666   Zn672   2.013   .     S
O667   Zn671   2.006   .     S
O668   Zn672   2.006   .     S
O669   Zn671   2.007   .     S
O670   Zn672   2.007   .     S
C681   C682    1.541   .     S
C681   H689    1.106   .     S
C681   H690    1.113   .     S
C682   H688    1.110   .     S
C682   C683    1.529   .     S
C682   H687    1.113   .     S
C683   H684    1.109   .     S
C683   H685    1.111   .     S
C683   H686    1.111   .     S
C691   H700    1.110   .     S
C691   H699    1.109   .     S
C691   C692    1.536   .     S
C692   H697    1.112   .     S
C692   C693    1.526   .     S
C692   H698    1.108   .     S
C693   H695    1.111   .     S
C693   H696    1.110   .     S
C693   H694    1.111   .     S
C701   H709    1.107   .     S
C701   H710    1.112   .     S
C701   C702    1.538   .     S
C702   H707    1.113   .     S
C702   H708    1.109   .     S
C702   C703    1.529   .     S
C703   H704    1.109   .     S
C703   H705    1.111   .     S
C703   H706    1.110   .     S
C711   C712    1.536   .     S
C711   H719    1.107   .     S
C711   H720    1.109   .     S
C712   H717    1.112   .     S
C712   H718    1.108   .     S
C712   C713    1.527   .     S
C713   H714    1.110   .     S
C713   H715    1.111   .     S
C713   H716    1.110   .     S
C721   O753    1.279   .     A
C721   C746    1.443   .     S
C721   O756    1.290   .     A
C722   O755    1.283   .     A
C722   O754    1.282   .     A
C722   C745    1.436   .     S
C723   O760    1.288   .     A
C723   C741    1.454   .     S
C723   O757    1.288   .     A
C724   C742    1.439   .     S
C724   O759    1.284   .     A
C724   O758    1.285   .     A
C725   N752    1.364   .     A
C725   F763    1.349   .     S
C726   N751    1.364   .     A
C726   F764    1.354   .     S
C726   C187    1.410   1_565 S
C727   F765    1.347   .     S
C727   N752    1.363   .     A
C728   N751    1.365   .     A
C728   F766    1.355   .     S
C728   C185    1.412   1_565 S
C729   C771    1.524   .     S
C729   C746    1.411   .     A
C730   C745    1.418   .     A
C730   C781    1.530   .     S
C730   C552    1.391   1_655 S
C731   C791    1.524   .     S
C731   C745    1.414   .     A
C731   C549    1.379   1_655 S
C732   C746    1.426   .     A
C732   C801    1.530   .     S
C733   C743    1.397   .     A
C733   C737    1.381   .     A
C733   H747    1.083   .     S
C734   C738    1.379   .     A
C734   C744    1.400   .     A
C734   H748    1.083   .     S
C735   C739    1.382   .     A
C735   H749    1.083   .     S
C735   C744    1.399   .     A
C736   H750    1.083   .     S
C736   C740    1.379   .     A
C736   C743    1.396   .     A
C737   C741    1.408   .     A
C737   F767    1.356   .     S
C738   C742    1.400   .     A
C738   F768    1.355   .     S
C739   C742    1.403   .     A
C739   F769    1.356   .     S
C740   F770    1.355   .     S
C740   C741    1.408   .     A
C743   C1554   1.449   1_554 S
C744   C1553   1.449   .     S
N751   Zn761   2.001   .     S
N752   Zn762   2.001   .     S
O753   Zn761   2.020   .     S
O754   Zn762   2.020   .     S
O755   Zn761   2.013   .     S
O756   Zn762   2.013   .     S
O757   Zn761   2.006   .     S
O758   Zn762   2.006   .     S
O759   Zn761   2.007   .     S
O760   Zn762   2.007   .     S
C771   C772    1.541   .     S
C771   H779    1.106   .     S
C771   H780    1.113   .     S
C772   H778    1.110   .     S
C772   C773    1.529   .     S
C772   H777    1.113   .     S
C773   H774    1.109   .     S
C773   H775    1.111   .     S
C773   H776    1.111   .     S
C781   H790    1.110   .     S
C781   H789    1.109   .     S
C781   C782    1.536   .     S
C782   H787    1.112   .     S
C782   C783    1.526   .     S
C782   H788    1.108   .     S
C783   H785    1.111   .     S
C783   H786    1.110   .     S
C783   H784    1.111   .     S
C791   H799    1.107   .     S
C791   H800    1.112   .     S
C791   C792    1.538   .     S
C792   H797    1.113   .     S
C792   H798    1.109   .     S
C792   C793    1.529   .     S
C793   H794    1.109   .     S
C793   H795    1.111   .     S
C793   H796    1.110   .     S
C801   C802    1.536   .     S
C801   H809    1.107   .     S
C801   H810    1.109   .     S
C802   H807    1.112   .     S
C802   H808    1.108   .     S
C802   C803    1.527   .     S
C803   H804    1.110   .     S
C803   H805    1.111   .     S
C803   H806    1.110   .     S
C811   O843    1.279   .     A
C811   C836    1.443   .     S
C811   O846    1.290   .     A
C812   O845    1.283   .     A
C812   O844    1.282   .     A
C812   C835    1.436   .     S
C813   O850    1.288   .     A
C813   C831    1.454   .     S
C813   O847    1.288   .     A
C814   C832    1.439   .     S
C814   O849    1.284   .     A
C814   O848    1.285   .     A
C815   N842    1.364   .     A
C815   F853    1.349   .     S
C815   C1358   1.412   1_545 S
C816   N841    1.364   .     A
C816   F854    1.354   .     S
C816   C1087   1.410   .     S
C817   F855    1.347   .     S
C817   N842    1.363   .     A
C817   C1356   1.410   1_545 S
C818   N841    1.365   .     A
C818   F856    1.355   .     S
C818   C1085   1.412   .     S
C819   C861    1.524   .     S
C819   C836    1.411   .     A
C819   C1001   1.379   1_455 S
C820   C835    1.418   .     A
C820   C871    1.530   .     S
C820   C912    1.391   .     S
C821   C881    1.524   .     S
C821   C835    1.414   .     A
C821   C909    1.379   .     S
C822   C836    1.426   .     A
C822   C891    1.530   .     S
C822   C1000   1.391   1_455 S
C823   C833    1.397   .     A
C823   C827    1.381   .     A
C823   H837    1.083   .     S
C824   C828    1.379   .     A
C824   C834    1.400   .     A
C824   H838    1.083   .     S
C825   C829    1.382   .     A
C825   H839    1.083   .     S
C825   C834    1.399   .     A
C826   H840    1.083   .     S
C826   C830    1.379   .     A
C826   C833    1.396   .     A
C827   C831    1.408   .     A
C827   F857    1.356   .     S
C828   C832    1.400   .     A
C828   F858    1.355   .     S
C829   C832    1.403   .     A
C829   F859    1.356   .     S
C830   F860    1.355   .     S
C830   C831    1.408   .     A
C834   C23     1.449   1_556 S
N841   Zn851   2.001   .     S
N842   Zn852   2.001   .     S
O843   Zn851   2.020   .     S
O844   Zn852   2.020   .     S
O845   Zn851   2.013   .     S
O846   Zn852   2.013   .     S
O847   Zn851   2.006   .     S
O848   Zn852   2.006   .     S
O849   Zn851   2.007   .     S
O850   Zn852   2.007   .     S
C861   C862    1.541   .     S
C861   H869    1.106   .     S
C861   H870    1.113   .     S
C862   H868    1.110   .     S
C862   C863    1.529   .     S
C862   H867    1.113   .     S
C863   H864    1.109   .     S
C863   H865    1.111   .     S
C863   H866    1.111   .     S
C871   H880    1.110   .     S
C871   H879    1.109   .     S
C871   C872    1.536   .     S
C872   H877    1.112   .     S
C872   C873    1.526   .     S
C872   H878    1.108   .     S
C873   H875    1.111   .     S
C873   H876    1.110   .     S
C873   H874    1.111   .     S
C881   H889    1.107   .     S
C881   H890    1.112   .     S
C881   C882    1.538   .     S
C882   H887    1.113   .     S
C882   H888    1.109   .     S
C882   C883    1.529   .     S
C883   H884    1.109   .     S
C883   H885    1.111   .     S
C883   H886    1.110   .     S
C891   C892    1.536   .     S
C891   H899    1.107   .     S
C891   H900    1.109   .     S
C892   H897    1.112   .     S
C892   H898    1.108   .     S
C892   C893    1.527   .     S
C893   H894    1.110   .     S
C893   H895    1.111   .     S
C893   H896    1.110   .     S
C901   O933    1.279   .     A
C901   C926    1.443   .     S
C901   O936    1.290   .     A
C902   O935    1.283   .     A
C902   O934    1.282   .     A
C902   C925    1.436   .     S
C903   O940    1.288   .     A
C903   C921    1.454   .     S
C903   O937    1.288   .     A
C904   C922    1.439   .     S
C904   O939    1.284   .     A
C904   O938    1.285   .     A
C905   N932    1.364   .     A
C905   F943    1.349   .     S
C905   C1448   1.412   1_545 S
C906   N931    1.364   .     A
C906   F944    1.354   .     S
C906   C1177   1.410   .     S
C907   F945    1.347   .     S
C907   N932    1.363   .     A
C907   C1446   1.410   1_545 S
C908   N931    1.365   .     A
C908   F946    1.355   .     S
C908   C1175   1.412   .     S
C909   C951    1.524   .     S
C909   C926    1.411   .     A
C910   C925    1.418   .     A
C910   C961    1.530   .     S
C910   C1002   1.391   .     S
C911   C971    1.524   .     S
C911   C925    1.414   .     A
C911   C999    1.379   .     S
C912   C926    1.426   .     A
C912   C981    1.530   .     S
C913   C923    1.397   .     A
C913   C917    1.381   .     A
C913   H927    1.083   .     S
C914   C918    1.379   .     A
C914   C924    1.400   .     A
C914   H928    1.083   .     S
C915   C919    1.382   .     A
C915   H929    1.083   .     S
C915   C924    1.399   .     A
C916   H930    1.083   .     S
C916   C920    1.379   .     A
C916   C923    1.396   .     A
C917   C921    1.408   .     A
C917   F947    1.356   .     S
C918   C922    1.400   .     A
C918   F948    1.355   .     S
C919   C922    1.403   .     A
C919   F949    1.356   .     S
C920   F950    1.355   .     S
C920   C921    1.408   .     A
C924   C113    1.449   1_556 S
N931   Zn941   2.001   .     S
N932   Zn942   2.001   .     S
O933   Zn941   2.020   .     S
O934   Zn942   2.020   .     S
O935   Zn941   2.013   .     S
O936   Zn942   2.013   .     S
O937   Zn941   2.006   .     S
O938   Zn942   2.006   .     S
O939   Zn941   2.007   .     S
O940   Zn942   2.007   .     S
C951   C952    1.541   .     S
C951   H959    1.106   .     S
C951   H960    1.113   .     S
C952   H958    1.110   .     S
C952   C953    1.529   .     S
C952   H957    1.113   .     S
C953   H954    1.109   .     S
C953   H955    1.111   .     S
C953   H956    1.111   .     S
C961   H970    1.110   .     S
C961   H969    1.109   .     S
C961   C962    1.536   .     S
C962   H967    1.112   .     S
C962   C963    1.526   .     S
C962   H968    1.108   .     S
C963   H965    1.111   .     S
C963   H966    1.110   .     S
C963   H964    1.111   .     S
C971   H979    1.107   .     S
C971   H980    1.112   .     S
C971   C972    1.538   .     S
C972   H977    1.113   .     S
C972   H978    1.109   .     S
C972   C973    1.529   .     S
C973   H974    1.109   .     S
C973   H975    1.111   .     S
C973   H976    1.110   .     S
C981   C982    1.536   .     S
C981   H989    1.107   .     S
C981   H990    1.109   .     S
C982   H987    1.112   .     S
C982   H988    1.108   .     S
C982   C983    1.527   .     S
C983   H984    1.110   .     S
C983   H985    1.111   .     S
C983   H986    1.110   .     S
C991   O1023   1.279   .     A
C991   C1016   1.443   .     S
C991   O1026   1.290   .     A
C992   O1025   1.283   .     A
C992   O1024   1.282   .     A
C992   C1015   1.436   .     S
C993   O1030   1.288   .     A
C993   C1011   1.454   .     S
C993   O1027   1.288   .     A
C994   C1012   1.439   .     S
C994   O1029   1.284   .     A
C994   O1028   1.285   .     A
C995   N1022   1.364   .     A
C995   F1033   1.349   .     S
C995   C1538   1.412   1_545 S
C996   N1021   1.364   .     A
C996   F1034   1.354   .     S
C996   C1267   1.410   .     S
C997   F1035   1.347   .     S
C997   N1022   1.363   .     A
C997   C1536   1.410   1_545 S
C998   N1021   1.365   .     A
C998   F1036   1.355   .     S
C998   C1265   1.412   .     S
C999   C1041   1.524   .     S
C999   C1016   1.411   .     A
C1000  C1015   1.418   .     A
C1000  C1051   1.530   .     S
C1000  C822    1.391   1_655 S
C1001  C1061   1.524   .     S
C1001  C1015   1.414   .     A
C1001  C819    1.379   1_655 S
C1002  C1016   1.426   .     A
C1002  C1071   1.530   .     S
C1003  C1013   1.397   .     A
C1003  C1007   1.381   .     A
C1003  H1017   1.083   .     S
C1004  C1008   1.379   .     A
C1004  C1014   1.400   .     A
C1004  H1018   1.083   .     S
C1005  C1009   1.382   .     A
C1005  H1019   1.083   .     S
C1005  C1014   1.399   .     A
C1006  H1020   1.083   .     S
C1006  C1010   1.379   .     A
C1006  C1013   1.396   .     A
C1007  C1011   1.408   .     A
C1007  F1037   1.356   .     S
C1008  C1012   1.400   .     A
C1008  F1038   1.355   .     S
C1009  C1012   1.403   .     A
C1009  F1039   1.356   .     S
C1010  F1040   1.355   .     S
C1010  C1011   1.408   .     A
C1014  C203    1.449   1_556 S
N1021  Zn1031  2.001   .     S
N1022  Zn1032  2.001   .     S
O1023  Zn1031  2.020   .     S
O1024  Zn1032  2.020   .     S
O1025  Zn1031  2.013   .     S
O1026  Zn1032  2.013   .     S
O1027  Zn1031  2.006   .     S
O1028  Zn1032  2.006   .     S
O1029  Zn1031  2.007   .     S
O1030  Zn1032  2.007   .     S
C1041  C1042   1.541   .     S
C1041  H1049   1.106   .     S
C1041  H1050   1.113   .     S
C1042  H1048   1.110   .     S
C1042  C1043   1.529   .     S
C1042  H1047   1.113   .     S
C1043  H1044   1.109   .     S
C1043  H1045   1.111   .     S
C1043  H1046   1.111   .     S
C1051  H1060   1.110   .     S
C1051  H1059   1.109   .     S
C1051  C1052   1.536   .     S
C1052  H1057   1.112   .     S
C1052  C1053   1.526   .     S
C1052  H1058   1.108   .     S
C1053  H1055   1.111   .     S
C1053  H1056   1.110   .     S
C1053  H1054   1.111   .     S
C1061  H1069   1.107   .     S
C1061  H1070   1.112   .     S
C1061  C1062   1.538   .     S
C1062  H1067   1.113   .     S
C1062  H1068   1.109   .     S
C1062  C1063   1.529   .     S
C1063  H1064   1.109   .     S
C1063  H1065   1.111   .     S
C1063  H1066   1.110   .     S
C1071  C1072   1.536   .     S
C1071  H1079   1.107   .     S
C1071  H1080   1.109   .     S
C1072  H1077   1.112   .     S
C1072  H1078   1.108   .     S
C1072  C1073   1.527   .     S
C1073  H1074   1.110   .     S
C1073  H1075   1.111   .     S
C1073  H1076   1.110   .     S
C1081  O1113   1.279   .     A
C1081  C1106   1.443   .     S
C1081  O1116   1.290   .     A
C1082  O1115   1.283   .     A
C1082  O1114   1.282   .     A
C1082  C1105   1.436   .     S
C1083  O1120   1.288   .     A
C1083  C1101   1.454   .     S
C1083  O1117   1.288   .     A
C1084  C1102   1.439   .     S
C1084  O1119   1.284   .     A
C1084  O1118   1.285   .     A
C1085  N1112   1.364   .     A
C1085  F1123   1.349   .     S
C1086  N1111   1.364   .     A
C1086  F1124   1.354   .     S
C1086  C1357   1.410   .     S
C1087  F1125   1.347   .     S
C1087  N1112   1.363   .     A
C1088  N1111   1.365   .     A
C1088  F1126   1.355   .     S
C1088  C1355   1.412   .     S
C1089  C1131   1.524   .     S
C1089  C1106   1.411   .     A
C1089  C1271   1.379   1_455 S
C1090  C1105   1.418   .     A
C1090  C1141   1.530   .     S
C1090  C1182   1.391   .     S
C1091  C1151   1.524   .     S
C1091  C1105   1.414   .     A
C1091  C1179   1.379   .     S
C1092  C1106   1.426   .     A
C1092  C1161   1.530   .     S
C1092  C1270   1.391   1_455 S
C1093  C1103   1.397   .     A
C1093  C1097   1.381   .     A
C1093  H1107   1.083   .     S
C1094  C1098   1.379   .     A
C1094  C1104   1.400   .     A
C1094  H1108   1.083   .     S
C1095  C1099   1.382   .     A
C1095  H1109   1.083   .     S
C1095  C1104   1.399   .     A
C1096  H1110   1.083   .     S
C1096  C1100   1.379   .     A
C1096  C1103   1.396   .     A
C1097  C1101   1.408   .     A
C1097  F1127   1.356   .     S
C1098  C1102   1.400   .     A
C1098  F1128   1.355   .     S
C1099  C1102   1.403   .     A
C1099  F1129   1.356   .     S
C1100  F1130   1.355   .     S
C1100  C1101   1.408   .     A
C1104  C293    1.449   1_556 S
N1111  Zn1121  2.001   .     S
N1112  Zn1122  2.001   .     S
O1113  Zn1121  2.020   .     S
O1114  Zn1122  2.020   .     S
O1115  Zn1121  2.013   .     S
O1116  Zn1122  2.013   .     S
O1117  Zn1121  2.006   .     S
O1118  Zn1122  2.006   .     S
O1119  Zn1121  2.007   .     S
O1120  Zn1122  2.007   .     S
C1131  C1132   1.541   .     S
C1131  H1139   1.106   .     S
C1131  H1140   1.113   .     S
C1132  H1138   1.110   .     S
C1132  C1133   1.529   .     S
C1132  H1137   1.113   .     S
C1133  H1134   1.109   .     S
C1133  H1135   1.111   .     S
C1133  H1136   1.111   .     S
C1141  H1150   1.110   .     S
C1141  H1149   1.109   .     S
C1141  C1142   1.536   .     S
C1142  H1147   1.112   .     S
C1142  C1143   1.526   .     S
C1142  H1148   1.108   .     S
C1143  H1145   1.111   .     S
C1143  H1146   1.110   .     S
C1143  H1144   1.111   .     S
C1151  H1159   1.107   .     S
C1151  H1160   1.112   .     S
C1151  C1152   1.538   .     S
C1152  H1157   1.113   .     S
C1152  H1158   1.109   .     S
C1152  C1153   1.529   .     S
C1153  H1154   1.109   .     S
C1153  H1155   1.111   .     S
C1153  H1156   1.110   .     S
C1161  C1162   1.536   .     S
C1161  H1169   1.107   .     S
C1161  H1170   1.109   .     S
C1162  H1167   1.112   .     S
C1162  H1168   1.108   .     S
C1162  C1163   1.527   .     S
C1163  H1164   1.110   .     S
C1163  H1165   1.111   .     S
C1163  H1166   1.110   .     S
C1171  O1203   1.279   .     A
C1171  C1196   1.443   .     S
C1171  O1206   1.290   .     A
C1172  O1205   1.283   .     A
C1172  O1204   1.282   .     A
C1172  C1195   1.436   .     S
C1173  O1210   1.288   .     A
C1173  C1191   1.454   .     S
C1173  O1207   1.288   .     A
C1174  C1192   1.439   .     S
C1174  O1209   1.284   .     A
C1174  O1208   1.285   .     A
C1175  N1202   1.364   .     A
C1175  F1213   1.349   .     S
C1176  N1201   1.364   .     A
C1176  F1214   1.354   .     S
C1176  C1447   1.410   .     S
C1177  F1215   1.347   .     S
C1177  N1202   1.363   .     A
C1178  N1201   1.365   .     A
C1178  F1216   1.355   .     S
C1178  C1445   1.412   .     S
C1179  C1221   1.524   .     S
C1179  C1196   1.411   .     A
C1180  C1195   1.418   .     A
C1180  C1231   1.530   .     S
C1180  C1272   1.391   .     S
C1181  C1241   1.524   .     S
C1181  C1195   1.414   .     A
C1181  C1269   1.379   .     S
C1182  C1196   1.426   .     A
C1182  C1251   1.530   .     S
C1183  C1193   1.397   .     A
C1183  C1187   1.381   .     A
C1183  H1197   1.083   .     S
C1184  C1188   1.379   .     A
C1184  C1194   1.400   .     A
C1184  H1198   1.083   .     S
C1185  C1189   1.382   .     A
C1185  H1199   1.083   .     S
C1185  C1194   1.399   .     A
C1186  H1200   1.083   .     S
C1186  C1190   1.379   .     A
C1186  C1193   1.396   .     A
C1187  C1191   1.408   .     A
C1187  F1217   1.356   .     S
C1188  C1192   1.400   .     A
C1188  F1218   1.355   .     S
C1189  C1192   1.403   .     A
C1189  F1219   1.356   .     S
C1190  F1220   1.355   .     S
C1190  C1191   1.408   .     A
C1194  C383    1.449   1_556 S
N1201  Zn1211  2.001   .     S
N1202  Zn1212  2.001   .     S
O1203  Zn1211  2.020   .     S
O1204  Zn1212  2.020   .     S
O1205  Zn1211  2.013   .     S
O1206  Zn1212  2.013   .     S
O1207  Zn1211  2.006   .     S
O1208  Zn1212  2.006   .     S
O1209  Zn1211  2.007   .     S
O1210  Zn1212  2.007   .     S
C1221  C1222   1.541   .     S
C1221  H1229   1.106   .     S
C1221  H1230   1.113   .     S
C1222  H1228   1.110   .     S
C1222  C1223   1.529   .     S
C1222  H1227   1.113   .     S
C1223  H1224   1.109   .     S
C1223  H1225   1.111   .     S
C1223  H1226   1.111   .     S
C1231  H1240   1.110   .     S
C1231  H1239   1.109   .     S
C1231  C1232   1.536   .     S
C1232  H1237   1.112   .     S
C1232  C1233   1.526   .     S
C1232  H1238   1.108   .     S
C1233  H1235   1.111   .     S
C1233  H1236   1.110   .     S
C1233  H1234   1.111   .     S
C1241  H1249   1.107   .     S
C1241  H1250   1.112   .     S
C1241  C1242   1.538   .     S
C1242  H1247   1.113   .     S
C1242  H1248   1.109   .     S
C1242  C1243   1.529   .     S
C1243  H1244   1.109   .     S
C1243  H1245   1.111   .     S
C1243  H1246   1.110   .     S
C1251  C1252   1.536   .     S
C1251  H1259   1.107   .     S
C1251  H1260   1.109   .     S
C1252  H1257   1.112   .     S
C1252  H1258   1.108   .     S
C1252  C1253   1.527   .     S
C1253  H1254   1.110   .     S
C1253  H1255   1.111   .     S
C1253  H1256   1.110   .     S
C1261  O1293   1.279   .     A
C1261  C1286   1.443   .     S
C1261  O1296   1.290   .     A
C1262  O1295   1.283   .     A
C1262  O1294   1.282   .     A
C1262  C1285   1.436   .     S
C1263  O1300   1.288   .     A
C1263  C1281   1.454   .     S
C1263  O1297   1.288   .     A
C1264  C1282   1.439   .     S
C1264  O1299   1.284   .     A
C1264  O1298   1.285   .     A
C1265  N1292   1.364   .     A
C1265  F1303   1.349   .     S
C1266  N1291   1.364   .     A
C1266  F1304   1.354   .     S
C1266  C1537   1.410   .     S
C1267  F1305   1.347   .     S
C1267  N1292   1.363   .     A
C1268  N1291   1.365   .     A
C1268  F1306   1.355   .     S
C1268  C1535   1.412   .     S
C1269  C1311   1.524   .     S
C1269  C1286   1.411   .     A
C1270  C1285   1.418   .     A
C1270  C1321   1.530   .     S
C1270  C1092   1.391   1_655 S
C1271  C1331   1.524   .     S
C1271  C1285   1.414   .     A
C1271  C1089   1.379   1_655 S
C1272  C1286   1.426   .     A
C1272  C1341   1.530   .     S
C1273  C1283   1.397   .     A
C1273  C1277   1.381   .     A
C1273  H1287   1.083   .     S
C1274  C1278   1.379   .     A
C1274  C1284   1.400   .     A
C1274  H1288   1.083   .     S
C1275  C1279   1.382   .     A
C1275  H1289   1.083   .     S
C1275  C1284   1.399   .     A
C1276  H1290   1.083   .     S
C1276  C1280   1.379   .     A
C1276  C1283   1.396   .     A
C1277  C1281   1.408   .     A
C1277  F1307   1.356   .     S
C1278  C1282   1.400   .     A
C1278  F1308   1.355   .     S
C1279  C1282   1.403   .     A
C1279  F1309   1.356   .     S
C1280  F1310   1.355   .     S
C1280  C1281   1.408   .     A
C1284  C473    1.449   1_556 S
N1291  Zn1301  2.001   .     S
N1292  Zn1302  2.001   .     S
O1293  Zn1301  2.020   .     S
O1294  Zn1302  2.020   .     S
O1295  Zn1301  2.013   .     S
O1296  Zn1302  2.013   .     S
O1297  Zn1301  2.006   .     S
O1298  Zn1302  2.006   .     S
O1299  Zn1301  2.007   .     S
O1300  Zn1302  2.007   .     S
C1311  C1312   1.541   .     S
C1311  H1319   1.106   .     S
C1311  H1320   1.113   .     S
C1312  H1318   1.110   .     S
C1312  C1313   1.529   .     S
C1312  H1317   1.113   .     S
C1313  H1314   1.109   .     S
C1313  H1315   1.111   .     S
C1313  H1316   1.111   .     S
C1321  H1330   1.110   .     S
C1321  H1329   1.109   .     S
C1321  C1322   1.536   .     S
C1322  H1327   1.112   .     S
C1322  C1323   1.526   .     S
C1322  H1328   1.108   .     S
C1323  H1325   1.111   .     S
C1323  H1326   1.110   .     S
C1323  H1324   1.111   .     S
C1331  H1339   1.107   .     S
C1331  H1340   1.112   .     S
C1331  C1332   1.538   .     S
C1332  H1337   1.113   .     S
C1332  H1338   1.109   .     S
C1332  C1333   1.529   .     S
C1333  H1334   1.109   .     S
C1333  H1335   1.111   .     S
C1333  H1336   1.110   .     S
C1341  C1342   1.536   .     S
C1341  H1349   1.107   .     S
C1341  H1350   1.109   .     S
C1342  H1347   1.112   .     S
C1342  H1348   1.108   .     S
C1342  C1343   1.527   .     S
C1343  H1344   1.110   .     S
C1343  H1345   1.111   .     S
C1343  H1346   1.110   .     S
C1351  O1383   1.279   .     A
C1351  C1376   1.443   .     S
C1351  O1386   1.290   .     A
C1352  O1385   1.283   .     A
C1352  O1384   1.282   .     A
C1352  C1375   1.436   .     S
C1353  O1390   1.288   .     A
C1353  C1371   1.454   .     S
C1353  O1387   1.288   .     A
C1354  C1372   1.439   .     S
C1354  O1389   1.284   .     A
C1354  O1388   1.285   .     A
C1355  N1382   1.364   .     A
C1355  F1393   1.349   .     S
C1356  N1381   1.364   .     A
C1356  F1394   1.354   .     S
C1356  C817    1.410   1_565 S
C1357  F1395   1.347   .     S
C1357  N1382   1.363   .     A
C1358  N1381   1.365   .     A
C1358  F1396   1.355   .     S
C1358  C815    1.412   1_565 S
C1359  C1401   1.524   .     S
C1359  C1376   1.411   .     A
C1359  C1541   1.379   1_455 S
C1360  C1375   1.418   .     A
C1360  C1411   1.530   .     S
C1360  C1452   1.391   .     S
C1361  C1421   1.524   .     S
C1361  C1375   1.414   .     A
C1361  C1449   1.379   .     S
C1362  C1376   1.426   .     A
C1362  C1431   1.530   .     S
C1362  C1540   1.391   1_455 S
C1363  C1373   1.397   .     A
C1363  C1367   1.381   .     A
C1363  H1377   1.083   .     S
C1364  C1368   1.379   .     A
C1364  C1374   1.400   .     A
C1364  H1378   1.083   .     S
C1365  C1369   1.382   .     A
C1365  H1379   1.083   .     S
C1365  C1374   1.399   .     A
C1366  H1380   1.083   .     S
C1366  C1370   1.379   .     A
C1366  C1373   1.396   .     A
C1367  C1371   1.408   .     A
C1367  F1397   1.356   .     S
C1368  C1372   1.400   .     A
C1368  F1398   1.355   .     S
C1369  C1372   1.403   .     A
C1369  F1399   1.356   .     S
C1370  F1400   1.355   .     S
C1370  C1371   1.408   .     A
C1374  C563    1.449   1_556 S
N1381  Zn1391  2.001   .     S
N1382  Zn1392  2.001   .     S
O1383  Zn1391  2.020   .     S
O1384  Zn1392  2.020   .     S
O1385  Zn1391  2.013   .     S
O1386  Zn1392  2.013   .     S
O1387  Zn1391  2.006   .     S
O1388  Zn1392  2.006   .     S
O1389  Zn1391  2.007   .     S
O1390  Zn1392  2.007   .     S
C1401  C1402   1.541   .     S
C1401  H1409   1.106   .     S
C1401  H1410   1.113   .     S
C1402  H1408   1.110   .     S
C1402  C1403   1.529   .     S
C1402  H1407   1.113   .     S
C1403  H1404   1.109   .     S
C1403  H1405   1.111   .     S
C1403  H1406   1.111   .     S
C1411  H1420   1.110   .     S
C1411  H1419   1.109   .     S
C1411  C1412   1.536   .     S
C1412  H1417   1.112   .     S
C1412  C1413   1.526   .     S
C1412  H1418   1.108   .     S
C1413  H1415   1.111   .     S
C1413  H1416   1.110   .     S
C1413  H1414   1.111   .     S
C1421  H1429   1.107   .     S
C1421  H1430   1.112   .     S
C1421  C1422   1.538   .     S
C1422  H1427   1.113   .     S
C1422  H1428   1.109   .     S
C1422  C1423   1.529   .     S
C1423  H1424   1.109   .     S
C1423  H1425   1.111   .     S
C1423  H1426   1.110   .     S
C1431  C1432   1.536   .     S
C1431  H1439   1.107   .     S
C1431  H1440   1.109   .     S
C1432  H1437   1.112   .     S
C1432  H1438   1.108   .     S
C1432  C1433   1.527   .     S
C1433  H1434   1.110   .     S
C1433  H1435   1.111   .     S
C1433  H1436   1.110   .     S
C1441  O1473   1.279   .     A
C1441  C1466   1.443   .     S
C1441  O1476   1.290   .     A
C1442  O1475   1.283   .     A
C1442  O1474   1.282   .     A
C1442  C1465   1.436   .     S
C1443  O1480   1.288   .     A
C1443  C1461   1.454   .     S
C1443  O1477   1.288   .     A
C1444  C1462   1.439   .     S
C1444  O1479   1.284   .     A
C1444  O1478   1.285   .     A
C1445  N1472   1.364   .     A
C1445  F1483   1.349   .     S
C1446  N1471   1.364   .     A
C1446  F1484   1.354   .     S
C1446  C907    1.410   1_565 S
C1447  F1485   1.347   .     S
C1447  N1472   1.363   .     A
C1448  N1471   1.365   .     A
C1448  F1486   1.355   .     S
C1448  C905    1.412   1_565 S
C1449  C1491   1.524   .     S
C1449  C1466   1.411   .     A
C1450  C1465   1.418   .     A
C1450  C1501   1.530   .     S
C1450  C1542   1.391   .     S
C1451  C1511   1.524   .     S
C1451  C1465   1.414   .     A
C1451  C1539   1.379   .     S
C1452  C1466   1.426   .     A
C1452  C1521   1.530   .     S
C1453  C1463   1.397   .     A
C1453  C1457   1.381   .     A
C1453  H1467   1.083   .     S
C1454  C1458   1.379   .     A
C1454  C1464   1.400   .     A
C1454  H1468   1.083   .     S
C1455  C1459   1.382   .     A
C1455  H1469   1.083   .     S
C1455  C1464   1.399   .     A
C1456  H1470   1.083   .     S
C1456  C1460   1.379   .     A
C1456  C1463   1.396   .     A
C1457  C1461   1.408   .     A
C1457  F1487   1.356   .     S
C1458  C1462   1.400   .     A
C1458  F1488   1.355   .     S
C1459  C1462   1.403   .     A
C1459  F1489   1.356   .     S
C1460  F1490   1.355   .     S
C1460  C1461   1.408   .     A
C1464  C653    1.449   1_556 S
N1471  Zn1481  2.001   .     S
N1472  Zn1482  2.001   .     S
O1473  Zn1481  2.020   .     S
O1474  Zn1482  2.020   .     S
O1475  Zn1481  2.013   .     S
O1476  Zn1482  2.013   .     S
O1477  Zn1481  2.006   .     S
O1478  Zn1482  2.006   .     S
O1479  Zn1481  2.007   .     S
O1480  Zn1482  2.007   .     S
C1491  C1492   1.541   .     S
C1491  H1499   1.106   .     S
C1491  H1500   1.113   .     S
C1492  H1498   1.110   .     S
C1492  C1493   1.529   .     S
C1492  H1497   1.113   .     S
C1493  H1494   1.109   .     S
C1493  H1495   1.111   .     S
C1493  H1496   1.111   .     S
C1501  H1510   1.110   .     S
C1501  H1509   1.109   .     S
C1501  C1502   1.536   .     S
C1502  H1507   1.112   .     S
C1502  C1503   1.526   .     S
C1502  H1508   1.108   .     S
C1503  H1505   1.111   .     S
C1503  H1506   1.110   .     S
C1503  H1504   1.111   .     S
C1511  H1519   1.107   .     S
C1511  H1520   1.112   .     S
C1511  C1512   1.538   .     S
C1512  H1517   1.113   .     S
C1512  H1518   1.109   .     S
C1512  C1513   1.529   .     S
C1513  H1514   1.109   .     S
C1513  H1515   1.111   .     S
C1513  H1516   1.110   .     S
C1521  C1522   1.536   .     S
C1521  H1529   1.107   .     S
C1521  H1530   1.109   .     S
C1522  H1527   1.112   .     S
C1522  H1528   1.108   .     S
C1522  C1523   1.527   .     S
C1523  H1524   1.110   .     S
C1523  H1525   1.111   .     S
C1523  H1526   1.110   .     S
C1531  O1563   1.279   .     A
C1531  C1556   1.443   .     S
C1531  O1566   1.290   .     A
C1532  O1565   1.283   .     A
C1532  O1564   1.282   .     A
C1532  C1555   1.436   .     S
C1533  O1570   1.288   .     A
C1533  C1551   1.454   .     S
C1533  O1567   1.288   .     A
C1534  C1552   1.439   .     S
C1534  O1569   1.284   .     A
C1534  O1568   1.285   .     A
C1535  N1562   1.364   .     A
C1535  F1573   1.349   .     S
C1536  N1561   1.364   .     A
C1536  F1574   1.354   .     S
C1536  C997    1.410   1_565 S
C1537  F1575   1.347   .     S
C1537  N1562   1.363   .     A
C1538  N1561   1.365   .     A
C1538  F1576   1.355   .     S
C1538  C995    1.412   1_565 S
C1539  C1581   1.524   .     S
C1539  C1556   1.411   .     A
C1540  C1555   1.418   .     A
C1540  C1591   1.530   .     S
C1540  C1362   1.391   1_655 S
C1541  C1601   1.524   .     S
C1541  C1555   1.414   .     A
C1541  C1359   1.379   1_655 S
C1542  C1556   1.426   .     A
C1542  C1611   1.530   .     S
C1543  C1553   1.397   .     A
C1543  C1547   1.381   .     A
C1543  H1557   1.083   .     S
C1544  C1548   1.379   .     A
C1544  C1554   1.400   .     A
C1544  H1558   1.083   .     S
C1545  C1549   1.382   .     A
C1545  H1559   1.083   .     S
C1545  C1554   1.399   .     A
C1546  H1560   1.083   .     S
C1546  C1550   1.379   .     A
C1546  C1553   1.396   .     A
C1547  C1551   1.408   .     A
C1547  F1577   1.356   .     S
C1548  C1552   1.400   .     A
C1548  F1578   1.355   .     S
C1549  C1552   1.403   .     A
C1549  F1579   1.356   .     S
C1550  F1580   1.355   .     S
C1550  C1551   1.408   .     A
C1554  C743    1.449   1_556 S
N1561  Zn1571  2.001   .     S
N1562  Zn1572  2.001   .     S
O1563  Zn1571  2.020   .     S
O1564  Zn1572  2.020   .     S
O1565  Zn1571  2.013   .     S
O1566  Zn1572  2.013   .     S
O1567  Zn1571  2.006   .     S
O1568  Zn1572  2.006   .     S
O1569  Zn1571  2.007   .     S
O1570  Zn1572  2.007   .     S
C1581  C1582   1.541   .     S
C1581  H1589   1.106   .     S
C1581  H1590   1.113   .     S
C1582  H1588   1.110   .     S
C1582  C1583   1.529   .     S
C1582  H1587   1.113   .     S
C1583  H1584   1.109   .     S
C1583  H1585   1.111   .     S
C1583  H1586   1.111   .     S
C1591  H1600   1.110   .     S
C1591  H1599   1.109   .     S
C1591  C1592   1.536   .     S
C1592  H1597   1.112   .     S
C1592  C1593   1.526   .     S
C1592  H1598   1.108   .     S
C1593  H1595   1.111   .     S
C1593  H1596   1.110   .     S
C1593  H1594   1.111   .     S
C1601  H1609   1.107   .     S
C1601  H1610   1.112   .     S
C1601  C1602   1.538   .     S
C1602  H1607   1.113   .     S
C1602  H1608   1.109   .     S
C1602  C1603   1.529   .     S
C1603  H1604   1.109   .     S
C1603  H1605   1.111   .     S
C1603  H1606   1.110   .     S
C1611  C1612   1.536   .     S
C1611  H1619   1.107   .     S
C1611  H1620   1.109   .     S
C1612  H1617   1.112   .     S
C1612  H1618   1.108   .     S
C1612  C1613   1.527   .     S
C1613  H1614   1.110   .     S
C1613  H1615   1.111   .     S
C1613  H1616   1.110   .     S
