data_str_m3_o1_o17_pcu_sym.146
_audit_creation_date              2020-01-03
_audit_creation_method            'Materials Studio'
_symmetry_space_group_name_H-M    'P1'
_symmetry_Int_Tables_number       1
_symmetry_cell_setting            triclinic
loop_
_symmetry_equiv_pos_as_xyz
  x,y,z
_cell_length_a                    32.1667
_cell_length_b                    29.8425
_cell_length_c                    30.0213
_cell_angle_alpha                 89.9995
_cell_angle_beta                  92.3041
_cell_angle_gamma                 90.0084
loop_
_atom_site_label
_atom_site_type_symbol
_atom_site_fract_x
_atom_site_fract_y
_atom_site_fract_z
_atom_site_U_iso_or_equiv
_atom_site_adp_type
_atom_site_occupancy
C1     C     0.08673   0.16667   0.24988   0.00000  Uiso   1.00
C2     C     0.24661   0.16667   0.25012   0.00000  Uiso   1.00
C3     C     0.16648   0.08484   0.02313   0.00000  Uiso   1.00
C4     C     0.16685   0.24849   0.47686   0.00000  Uiso   1.00
C5     C     0.02107   0.12619   0.24438   0.00000  Uiso   1.00
C6     C     0.31226   0.20715   0.25561   0.00000  Uiso   1.00
C7     C     0.31182   0.12618   0.24452   0.00000  Uiso   1.00
C8     C     0.02152   0.20715   0.25548   0.00000  Uiso   1.00
C9     C     0.29082   0.16666   0.25011   0.00000  Uiso   1.00
C10    C     0.04251   0.16667   0.24989   0.00000  Uiso   1.00
C11    C     0.19588   0.02368   0.27494   0.00000  Uiso   1.00
C12    C     0.13746   0.30965   0.22506   0.00000  Uiso   1.00
C13    C     0.13746   0.02367   0.22505   0.00000  Uiso   1.00
C14    C     0.19587   0.30967   0.27495   0.00000  Uiso   1.00
C15    C     0.16651   0.16667   0.16339   0.00000  Uiso   1.00
C16    C     0.16682   0.16667   0.33661   0.00000  Uiso   1.00
C17    C     0.16702   0.20749   0.40757   0.00000  Uiso   1.00
C18    C     0.16632   0.12585   0.09243   0.00000  Uiso   1.00
C19    C     0.16695   0.16667   0.38463   0.00000  Uiso   1.00
C20    C     0.16638   0.16667   0.11537   0.00000  Uiso   1.00
C21    C     0.16693   0.12585   0.40757   0.00000  Uiso   1.00
C22    C     0.16640   0.20749   0.09243   0.00000  Uiso   1.00
C23    C     0.16681   0.12554   0.45365   0.00000  Uiso   1.00
C24    C     0.16652   0.20779   0.04635   0.00000  Uiso   1.00
C25    C     0.16676   0.16667   0.47682   0.00000  Uiso   1.00
C26    C     0.16657   0.16667   0.02318   0.00000  Uiso   1.00
C27    C     0.16690   0.20779   0.45365   0.00000  Uiso   1.00
C28    C     0.16644   0.12554   0.04635   0.00000  Uiso   1.00
C29    C     0.16668   0.08484   0.47686   0.00000  Uiso   1.00
C30    C     0.16666   0.24849   0.02314   0.00000  Uiso   1.00
H31    H     0.16710   0.23906   0.38968   0.00000  Uiso   1.00
H32    H     0.16623   0.09427   0.11032   0.00000  Uiso   1.00
H33    H     0.16695   0.09427   0.38967   0.00000  Uiso   1.00
H34    H     0.16639   0.23906   0.11033   0.00000  Uiso   1.00
H35    H     0.16638   0.05314   0.04074   0.00000  Uiso   1.00
H36    H     0.16695   0.28020   0.45926   0.00000  Uiso   1.00
H37    H     0.03704   0.09465   0.23983   0.00000  Uiso   1.00
H38    H     0.29630   0.23868   0.26017   0.00000  Uiso   1.00
H39    H     0.29549   0.09463   0.24004   0.00000  Uiso   1.00
H40    H     0.03784   0.23870   0.25995   0.00000  Uiso   1.00
N41    N     0.16667   0.28573   0.25000   0.00000  Uiso   1.00
N42    N     0.16667   0.04760   0.25000   0.00000  Uiso   1.00
O43    O     0.10559   0.20487   0.24999   0.00000  Uiso   1.00
O44    O     0.22774   0.12846   0.25000   0.00000  Uiso   1.00
O45    O     0.22774   0.20487   0.25000   0.00000  Uiso   1.00
O46    O     0.10559   0.12846   0.24999   0.00000  Uiso   1.00
O47    O     0.16666   0.20489   0.18392   0.00000  Uiso   1.00
O48    O     0.16667   0.12844   0.31607   0.00000  Uiso   1.00
O49    O     0.16667   0.20489   0.31607   0.00000  Uiso   1.00
O50    O     0.16666   0.12844   0.18392   0.00000  Uiso   1.00
Zn51   Zn    0.16667   0.21771   0.25000   0.00000  Uiso   1.00
Zn52   Zn    0.16667   0.11563   0.25000   0.00000  Uiso   1.00
H53    H     0.16671   0.05314   0.45925   0.00000  Uiso   1.00
H54    H     0.16662   0.28020   0.04075   0.00000  Uiso   1.00
O55    O     0.22606   0.04440   0.30136   0.00000  Uiso   1.00
H56    H     0.21794   0.07570   0.30556   0.00000  Uiso   1.00
O57    O     0.10728   0.28893   0.19864   0.00000  Uiso   1.00
H58    H     0.11540   0.25764   0.19444   0.00000  Uiso   1.00
O59    O     0.10732   0.04437   0.19857   0.00000  Uiso   1.00
H60    H     0.11541   0.07569   0.19444   0.00000  Uiso   1.00
O61    O     0.22601   0.28896   0.30143   0.00000  Uiso   1.00
H62    H     0.21793   0.25764   0.30556   0.00000  Uiso   1.00
C63    C     0.42006   0.16667   0.24988   0.00000  Uiso   1.00
C64    C     0.57994   0.16667   0.25012   0.00000  Uiso   1.00
C65    C     0.49982   0.08484   0.02313   0.00000  Uiso   1.00
C66    C     0.50018   0.24849   0.47686   0.00000  Uiso   1.00
C67    C     0.35441   0.12619   0.24438   0.00000  Uiso   1.00
C68    C     0.64559   0.20715   0.25561   0.00000  Uiso   1.00
C69    C     0.64515   0.12618   0.24452   0.00000  Uiso   1.00
C70    C     0.35485   0.20715   0.25548   0.00000  Uiso   1.00
C71    C     0.62415   0.16666   0.25011   0.00000  Uiso   1.00
C72    C     0.37585   0.16667   0.24989   0.00000  Uiso   1.00
C73    C     0.52921   0.02368   0.27494   0.00000  Uiso   1.00
C74    C     0.47079   0.30965   0.22506   0.00000  Uiso   1.00
C75    C     0.47080   0.02367   0.22505   0.00000  Uiso   1.00
C76    C     0.52920   0.30967   0.27495   0.00000  Uiso   1.00
C77    C     0.49985   0.16667   0.16339   0.00000  Uiso   1.00
C78    C     0.50015   0.16667   0.33661   0.00000  Uiso   1.00
C79    C     0.50035   0.20749   0.40757   0.00000  Uiso   1.00
C80    C     0.49965   0.12585   0.09243   0.00000  Uiso   1.00
C81    C     0.50028   0.16667   0.38463   0.00000  Uiso   1.00
C82    C     0.49972   0.16667   0.11537   0.00000  Uiso   1.00
C83    C     0.50026   0.12585   0.40757   0.00000  Uiso   1.00
C84    C     0.49974   0.20749   0.09243   0.00000  Uiso   1.00
C85    C     0.50014   0.12554   0.45365   0.00000  Uiso   1.00
C86    C     0.49986   0.20779   0.04635   0.00000  Uiso   1.00
C87    C     0.50009   0.16667   0.47682   0.00000  Uiso   1.00
C88    C     0.49991   0.16667   0.02318   0.00000  Uiso   1.00
C89    C     0.50023   0.20779   0.45365   0.00000  Uiso   1.00
C90    C     0.49977   0.12554   0.04635   0.00000  Uiso   1.00
C91    C     0.50001   0.08484   0.47686   0.00000  Uiso   1.00
C92    C     0.49999   0.24849   0.02314   0.00000  Uiso   1.00
H93    H     0.50044   0.23906   0.38968   0.00000  Uiso   1.00
H94    H     0.49956   0.09427   0.11032   0.00000  Uiso   1.00
H95    H     0.50028   0.09427   0.38967   0.00000  Uiso   1.00
H96    H     0.49972   0.23906   0.11033   0.00000  Uiso   1.00
H97    H     0.49972   0.05314   0.04074   0.00000  Uiso   1.00
H98    H     0.50028   0.28020   0.45926   0.00000  Uiso   1.00
H99    H     0.37037   0.09465   0.23983   0.00000  Uiso   1.00
H100   H     0.62963   0.23868   0.26017   0.00000  Uiso   1.00
H101   H     0.62882   0.09463   0.24004   0.00000  Uiso   1.00
H102   H     0.37118   0.23870   0.25995   0.00000  Uiso   1.00
N103   N     0.50000   0.28573   0.25000   0.00000  Uiso   1.00
N104   N     0.50000   0.04760   0.25000   0.00000  Uiso   1.00
O105   O     0.43892   0.20487   0.24999   0.00000  Uiso   1.00
O106   O     0.56108   0.12846   0.25000   0.00000  Uiso   1.00
O107   O     0.56108   0.20487   0.25000   0.00000  Uiso   1.00
O108   O     0.43892   0.12846   0.24999   0.00000  Uiso   1.00
O109   O     0.49999   0.20489   0.18392   0.00000  Uiso   1.00
O110   O     0.50001   0.12844   0.31607   0.00000  Uiso   1.00
O111   O     0.50001   0.20489   0.31607   0.00000  Uiso   1.00
O112   O     0.49999   0.12844   0.18392   0.00000  Uiso   1.00
Zn113  Zn    0.50000   0.21771   0.25000   0.00000  Uiso   1.00
Zn114  Zn    0.50000   0.11563   0.25000   0.00000  Uiso   1.00
H115   H     0.50004   0.05314   0.45925   0.00000  Uiso   1.00
H116   H     0.49996   0.28020   0.04075   0.00000  Uiso   1.00
O117   O     0.55939   0.04440   0.30136   0.00000  Uiso   1.00
H118   H     0.55127   0.07570   0.30556   0.00000  Uiso   1.00
O119   O     0.44061   0.28893   0.19864   0.00000  Uiso   1.00
H120   H     0.44873   0.25764   0.19444   0.00000  Uiso   1.00
O121   O     0.44066   0.04437   0.19857   0.00000  Uiso   1.00
H122   H     0.44874   0.07569   0.19444   0.00000  Uiso   1.00
O123   O     0.55934   0.28896   0.30143   0.00000  Uiso   1.00
H124   H     0.55126   0.25764   0.30556   0.00000  Uiso   1.00
C125   C     0.75339   0.16667   0.24988   0.00000  Uiso   1.00
C126   C     0.91327   0.16667   0.25012   0.00000  Uiso   1.00
C127   C     0.83315   0.08484   0.02313   0.00000  Uiso   1.00
C128   C     0.83352   0.24849   0.47686   0.00000  Uiso   1.00
C129   C     0.68774   0.12619   0.24438   0.00000  Uiso   1.00
C130   C     0.97893   0.20715   0.25561   0.00000  Uiso   1.00
C131   C     0.97848   0.12618   0.24452   0.00000  Uiso   1.00
C132   C     0.68818   0.20715   0.25548   0.00000  Uiso   1.00
C133   C     0.95749   0.16666   0.25011   0.00000  Uiso   1.00
C134   C     0.70918   0.16667   0.24989   0.00000  Uiso   1.00
C135   C     0.86254   0.02368   0.27494   0.00000  Uiso   1.00
C136   C     0.80412   0.30965   0.22506   0.00000  Uiso   1.00
C137   C     0.80413   0.02367   0.22505   0.00000  Uiso   1.00
C138   C     0.86254   0.30967   0.27495   0.00000  Uiso   1.00
C139   C     0.83318   0.16667   0.16339   0.00000  Uiso   1.00
C140   C     0.83348   0.16667   0.33661   0.00000  Uiso   1.00
C141   C     0.83368   0.20749   0.40757   0.00000  Uiso   1.00
C142   C     0.83298   0.12585   0.09243   0.00000  Uiso   1.00
C143   C     0.83362   0.16667   0.38463   0.00000  Uiso   1.00
C144   C     0.83305   0.16667   0.11537   0.00000  Uiso   1.00
C145   C     0.83360   0.12585   0.40757   0.00000  Uiso   1.00
C146   C     0.83307   0.20749   0.09243   0.00000  Uiso   1.00
C147   C     0.83347   0.12554   0.45365   0.00000  Uiso   1.00
C148   C     0.83319   0.20779   0.04635   0.00000  Uiso   1.00
C149   C     0.83343   0.16667   0.47682   0.00000  Uiso   1.00
C150   C     0.83324   0.16667   0.02318   0.00000  Uiso   1.00
C151   C     0.83356   0.20779   0.45365   0.00000  Uiso   1.00
C152   C     0.83310   0.12554   0.04635   0.00000  Uiso   1.00
C153   C     0.83334   0.08484   0.47686   0.00000  Uiso   1.00
C154   C     0.83332   0.24849   0.02314   0.00000  Uiso   1.00
H155   H     0.83377   0.23906   0.38968   0.00000  Uiso   1.00
H156   H     0.83290   0.09427   0.11032   0.00000  Uiso   1.00
H157   H     0.83361   0.09427   0.38967   0.00000  Uiso   1.00
H158   H     0.83305   0.23906   0.11033   0.00000  Uiso   1.00
H159   H     0.83305   0.05314   0.04074   0.00000  Uiso   1.00
H160   H     0.83362   0.28020   0.45926   0.00000  Uiso   1.00
H161   H     0.70370   0.09465   0.23983   0.00000  Uiso   1.00
H162   H     0.96296   0.23868   0.26017   0.00000  Uiso   1.00
H163   H     0.96216   0.09463   0.24004   0.00000  Uiso   1.00
H164   H     0.70451   0.23870   0.25995   0.00000  Uiso   1.00
N165   N     0.83333   0.28573   0.25000   0.00000  Uiso   1.00
N166   N     0.83333   0.04760   0.25000   0.00000  Uiso   1.00
O167   O     0.77226   0.20487   0.24999   0.00000  Uiso   1.00
O168   O     0.89441   0.12846   0.25000   0.00000  Uiso   1.00
O169   O     0.89441   0.20487   0.25000   0.00000  Uiso   1.00
O170   O     0.77226   0.12846   0.24999   0.00000  Uiso   1.00
O171   O     0.83333   0.20489   0.18392   0.00000  Uiso   1.00
O172   O     0.83334   0.12844   0.31607   0.00000  Uiso   1.00
O173   O     0.83334   0.20489   0.31607   0.00000  Uiso   1.00
O174   O     0.83333   0.12844   0.18392   0.00000  Uiso   1.00
Zn175  Zn    0.83333   0.21771   0.25000   0.00000  Uiso   1.00
Zn176  Zn    0.83333   0.11563   0.25000   0.00000  Uiso   1.00
H177   H     0.83338   0.05314   0.45925   0.00000  Uiso   1.00
H178   H     0.83329   0.28020   0.04075   0.00000  Uiso   1.00
O179   O     0.89272   0.04440   0.30136   0.00000  Uiso   1.00
H180   H     0.88460   0.07570   0.30556   0.00000  Uiso   1.00
O181   O     0.77394   0.28893   0.19864   0.00000  Uiso   1.00
H182   H     0.78206   0.25764   0.19444   0.00000  Uiso   1.00
O183   O     0.77399   0.04437   0.19857   0.00000  Uiso   1.00
H184   H     0.78207   0.07569   0.19444   0.00000  Uiso   1.00
O185   O     0.89268   0.28896   0.30143   0.00000  Uiso   1.00
H186   H     0.88459   0.25764   0.30556   0.00000  Uiso   1.00
C187   C     0.08673   0.50000   0.24988   0.00000  Uiso   1.00
C188   C     0.24661   0.50000   0.25012   0.00000  Uiso   1.00
C189   C     0.16648   0.41818   0.02313   0.00000  Uiso   1.00
C190   C     0.16685   0.58182   0.47686   0.00000  Uiso   1.00
C191   C     0.02107   0.45952   0.24438   0.00000  Uiso   1.00
C192   C     0.31226   0.54048   0.25561   0.00000  Uiso   1.00
C193   C     0.31182   0.45951   0.24452   0.00000  Uiso   1.00
C194   C     0.02152   0.54049   0.25548   0.00000  Uiso   1.00
C195   C     0.29082   0.50000   0.25011   0.00000  Uiso   1.00
C196   C     0.04251   0.50000   0.24989   0.00000  Uiso   1.00
C197   C     0.19588   0.35701   0.27494   0.00000  Uiso   1.00
C198   C     0.13746   0.64299   0.22506   0.00000  Uiso   1.00
C199   C     0.13746   0.35700   0.22505   0.00000  Uiso   1.00
C200   C     0.19587   0.64300   0.27495   0.00000  Uiso   1.00
C201   C     0.16651   0.50000   0.16339   0.00000  Uiso   1.00
C202   C     0.16682   0.50000   0.33661   0.00000  Uiso   1.00
C203   C     0.16702   0.54082   0.40757   0.00000  Uiso   1.00
C204   C     0.16632   0.45918   0.09243   0.00000  Uiso   1.00
C205   C     0.16695   0.50000   0.38463   0.00000  Uiso   1.00
C206   C     0.16638   0.50000   0.11537   0.00000  Uiso   1.00
C207   C     0.16693   0.45918   0.40757   0.00000  Uiso   1.00
C208   C     0.16640   0.54082   0.09243   0.00000  Uiso   1.00
C209   C     0.16681   0.45887   0.45365   0.00000  Uiso   1.00
C210   C     0.16652   0.54113   0.04635   0.00000  Uiso   1.00
C211   C     0.16676   0.50000   0.47682   0.00000  Uiso   1.00
C212   C     0.16657   0.50000   0.02318   0.00000  Uiso   1.00
C213   C     0.16690   0.54113   0.45365   0.00000  Uiso   1.00
C214   C     0.16644   0.45887   0.04635   0.00000  Uiso   1.00
C215   C     0.16668   0.41818   0.47686   0.00000  Uiso   1.00
C216   C     0.16666   0.58182   0.02314   0.00000  Uiso   1.00
H217   H     0.16710   0.57239   0.38968   0.00000  Uiso   1.00
H218   H     0.16623   0.42761   0.11032   0.00000  Uiso   1.00
H219   H     0.16695   0.42761   0.38967   0.00000  Uiso   1.00
H220   H     0.16639   0.57239   0.11033   0.00000  Uiso   1.00
H221   H     0.16638   0.38647   0.04074   0.00000  Uiso   1.00
H222   H     0.16695   0.61353   0.45926   0.00000  Uiso   1.00
H223   H     0.03704   0.42798   0.23983   0.00000  Uiso   1.00
H224   H     0.29630   0.57202   0.26017   0.00000  Uiso   1.00
H225   H     0.29549   0.42797   0.24004   0.00000  Uiso   1.00
H226   H     0.03784   0.57203   0.25995   0.00000  Uiso   1.00
N227   N     0.16667   0.61907   0.25000   0.00000  Uiso   1.00
N228   N     0.16667   0.38093   0.25000   0.00000  Uiso   1.00
O229   O     0.10559   0.53821   0.24999   0.00000  Uiso   1.00
O230   O     0.22774   0.46179   0.25000   0.00000  Uiso   1.00
O231   O     0.22774   0.53821   0.25000   0.00000  Uiso   1.00
O232   O     0.10559   0.46179   0.24999   0.00000  Uiso   1.00
O233   O     0.16666   0.53823   0.18392   0.00000  Uiso   1.00
O234   O     0.16667   0.46177   0.31607   0.00000  Uiso   1.00
O235   O     0.16667   0.53823   0.31607   0.00000  Uiso   1.00
O236   O     0.16666   0.46177   0.18392   0.00000  Uiso   1.00
Zn237  Zn    0.16667   0.55104   0.25000   0.00000  Uiso   1.00
Zn238  Zn    0.16667   0.44896   0.25000   0.00000  Uiso   1.00
H239   H     0.16671   0.38647   0.45925   0.00000  Uiso   1.00
H240   H     0.16662   0.61353   0.04075   0.00000  Uiso   1.00
O241   O     0.22606   0.37774   0.30136   0.00000  Uiso   1.00
H242   H     0.21794   0.40903   0.30556   0.00000  Uiso   1.00
O243   O     0.10728   0.62227   0.19864   0.00000  Uiso   1.00
H244   H     0.11540   0.59097   0.19444   0.00000  Uiso   1.00
O245   O     0.10732   0.37770   0.19857   0.00000  Uiso   1.00
H246   H     0.11541   0.40902   0.19444   0.00000  Uiso   1.00
O247   O     0.22601   0.62230   0.30143   0.00000  Uiso   1.00
H248   H     0.21793   0.59098   0.30556   0.00000  Uiso   1.00
C249   C     0.42006   0.50000   0.24988   0.00000  Uiso   1.00
C250   C     0.57994   0.50000   0.25012   0.00000  Uiso   1.00
C251   C     0.49982   0.41818   0.02313   0.00000  Uiso   1.00
C252   C     0.50018   0.58182   0.47686   0.00000  Uiso   1.00
C253   C     0.35441   0.45952   0.24438   0.00000  Uiso   1.00
C254   C     0.64559   0.54048   0.25561   0.00000  Uiso   1.00
C255   C     0.64515   0.45951   0.24452   0.00000  Uiso   1.00
C256   C     0.35485   0.54049   0.25548   0.00000  Uiso   1.00
C257   C     0.62415   0.50000   0.25011   0.00000  Uiso   1.00
C258   C     0.37585   0.50000   0.24989   0.00000  Uiso   1.00
C259   C     0.52921   0.35701   0.27494   0.00000  Uiso   1.00
C260   C     0.47079   0.64299   0.22506   0.00000  Uiso   1.00
C261   C     0.47080   0.35700   0.22505   0.00000  Uiso   1.00
C262   C     0.52920   0.64300   0.27495   0.00000  Uiso   1.00
C263   C     0.49985   0.50000   0.16339   0.00000  Uiso   1.00
C264   C     0.50015   0.50000   0.33661   0.00000  Uiso   1.00
C265   C     0.50035   0.54082   0.40757   0.00000  Uiso   1.00
C266   C     0.49965   0.45918   0.09243   0.00000  Uiso   1.00
C267   C     0.50028   0.50000   0.38463   0.00000  Uiso   1.00
C268   C     0.49972   0.50000   0.11537   0.00000  Uiso   1.00
C269   C     0.50026   0.45918   0.40757   0.00000  Uiso   1.00
C270   C     0.49974   0.54082   0.09243   0.00000  Uiso   1.00
C271   C     0.50014   0.45887   0.45365   0.00000  Uiso   1.00
C272   C     0.49986   0.54113   0.04635   0.00000  Uiso   1.00
C273   C     0.50009   0.50000   0.47682   0.00000  Uiso   1.00
C274   C     0.49991   0.50000   0.02318   0.00000  Uiso   1.00
C275   C     0.50023   0.54113   0.45365   0.00000  Uiso   1.00
C276   C     0.49977   0.45887   0.04635   0.00000  Uiso   1.00
C277   C     0.50001   0.41818   0.47686   0.00000  Uiso   1.00
C278   C     0.49999   0.58182   0.02314   0.00000  Uiso   1.00
H279   H     0.50044   0.57239   0.38968   0.00000  Uiso   1.00
H280   H     0.49956   0.42761   0.11032   0.00000  Uiso   1.00
H281   H     0.50028   0.42761   0.38967   0.00000  Uiso   1.00
H282   H     0.49972   0.57239   0.11033   0.00000  Uiso   1.00
H283   H     0.49972   0.38647   0.04074   0.00000  Uiso   1.00
H284   H     0.50028   0.61353   0.45926   0.00000  Uiso   1.00
H285   H     0.37037   0.42798   0.23983   0.00000  Uiso   1.00
H286   H     0.62963   0.57202   0.26017   0.00000  Uiso   1.00
H287   H     0.62882   0.42797   0.24004   0.00000  Uiso   1.00
H288   H     0.37118   0.57203   0.25995   0.00000  Uiso   1.00
N289   N     0.50000   0.61907   0.25000   0.00000  Uiso   1.00
N290   N     0.50000   0.38093   0.25000   0.00000  Uiso   1.00
O291   O     0.43892   0.53821   0.24999   0.00000  Uiso   1.00
O292   O     0.56108   0.46179   0.25000   0.00000  Uiso   1.00
O293   O     0.56108   0.53821   0.25000   0.00000  Uiso   1.00
O294   O     0.43892   0.46179   0.24999   0.00000  Uiso   1.00
O295   O     0.49999   0.53823   0.18392   0.00000  Uiso   1.00
O296   O     0.50001   0.46177   0.31607   0.00000  Uiso   1.00
O297   O     0.50001   0.53823   0.31607   0.00000  Uiso   1.00
O298   O     0.49999   0.46177   0.18392   0.00000  Uiso   1.00
Zn299  Zn    0.50000   0.55104   0.25000   0.00000  Uiso   1.00
Zn300  Zn    0.50000   0.44896   0.25000   0.00000  Uiso   1.00
H301   H     0.50004   0.38647   0.45925   0.00000  Uiso   1.00
H302   H     0.49996   0.61353   0.04075   0.00000  Uiso   1.00
O303   O     0.55939   0.37774   0.30136   0.00000  Uiso   1.00
H304   H     0.55127   0.40903   0.30556   0.00000  Uiso   1.00
O305   O     0.44061   0.62227   0.19864   0.00000  Uiso   1.00
H306   H     0.44873   0.59097   0.19444   0.00000  Uiso   1.00
O307   O     0.44066   0.37770   0.19857   0.00000  Uiso   1.00
H308   H     0.44874   0.40902   0.19444   0.00000  Uiso   1.00
O309   O     0.55934   0.62230   0.30143   0.00000  Uiso   1.00
H310   H     0.55126   0.59098   0.30556   0.00000  Uiso   1.00
C311   C     0.75339   0.50000   0.24988   0.00000  Uiso   1.00
C312   C     0.91327   0.50000   0.25012   0.00000  Uiso   1.00
C313   C     0.83315   0.41818   0.02313   0.00000  Uiso   1.00
C314   C     0.83352   0.58182   0.47686   0.00000  Uiso   1.00
C315   C     0.68774   0.45952   0.24438   0.00000  Uiso   1.00
C316   C     0.97893   0.54048   0.25561   0.00000  Uiso   1.00
C317   C     0.97848   0.45951   0.24452   0.00000  Uiso   1.00
C318   C     0.68818   0.54049   0.25548   0.00000  Uiso   1.00
C319   C     0.95749   0.50000   0.25011   0.00000  Uiso   1.00
C320   C     0.70918   0.50000   0.24989   0.00000  Uiso   1.00
C321   C     0.86254   0.35701   0.27494   0.00000  Uiso   1.00
C322   C     0.80412   0.64299   0.22506   0.00000  Uiso   1.00
C323   C     0.80413   0.35700   0.22505   0.00000  Uiso   1.00
C324   C     0.86254   0.64300   0.27495   0.00000  Uiso   1.00
C325   C     0.83318   0.50000   0.16339   0.00000  Uiso   1.00
C326   C     0.83348   0.50000   0.33661   0.00000  Uiso   1.00
C327   C     0.83368   0.54082   0.40757   0.00000  Uiso   1.00
C328   C     0.83298   0.45918   0.09243   0.00000  Uiso   1.00
C329   C     0.83362   0.50000   0.38463   0.00000  Uiso   1.00
C330   C     0.83305   0.50000   0.11537   0.00000  Uiso   1.00
C331   C     0.83360   0.45918   0.40757   0.00000  Uiso   1.00
C332   C     0.83307   0.54082   0.09243   0.00000  Uiso   1.00
C333   C     0.83347   0.45887   0.45365   0.00000  Uiso   1.00
C334   C     0.83319   0.54113   0.04635   0.00000  Uiso   1.00
C335   C     0.83343   0.50000   0.47682   0.00000  Uiso   1.00
C336   C     0.83324   0.50000   0.02318   0.00000  Uiso   1.00
C337   C     0.83356   0.54113   0.45365   0.00000  Uiso   1.00
C338   C     0.83310   0.45887   0.04635   0.00000  Uiso   1.00
C339   C     0.83334   0.41818   0.47686   0.00000  Uiso   1.00
C340   C     0.83332   0.58182   0.02314   0.00000  Uiso   1.00
H341   H     0.83377   0.57239   0.38968   0.00000  Uiso   1.00
H342   H     0.83290   0.42761   0.11032   0.00000  Uiso   1.00
H343   H     0.83361   0.42761   0.38967   0.00000  Uiso   1.00
H344   H     0.83305   0.57239   0.11033   0.00000  Uiso   1.00
H345   H     0.83305   0.38647   0.04074   0.00000  Uiso   1.00
H346   H     0.83362   0.61353   0.45926   0.00000  Uiso   1.00
H347   H     0.70370   0.42798   0.23983   0.00000  Uiso   1.00
H348   H     0.96296   0.57202   0.26017   0.00000  Uiso   1.00
H349   H     0.96216   0.42797   0.24004   0.00000  Uiso   1.00
H350   H     0.70451   0.57203   0.25995   0.00000  Uiso   1.00
N351   N     0.83333   0.61907   0.25000   0.00000  Uiso   1.00
N352   N     0.83333   0.38093   0.25000   0.00000  Uiso   1.00
O353   O     0.77226   0.53821   0.24999   0.00000  Uiso   1.00
O354   O     0.89441   0.46179   0.25000   0.00000  Uiso   1.00
O355   O     0.89441   0.53821   0.25000   0.00000  Uiso   1.00
O356   O     0.77226   0.46179   0.24999   0.00000  Uiso   1.00
O357   O     0.83333   0.53823   0.18392   0.00000  Uiso   1.00
O358   O     0.83334   0.46177   0.31607   0.00000  Uiso   1.00
O359   O     0.83334   0.53823   0.31607   0.00000  Uiso   1.00
O360   O     0.83333   0.46177   0.18392   0.00000  Uiso   1.00
Zn361  Zn    0.83333   0.55104   0.25000   0.00000  Uiso   1.00
Zn362  Zn    0.83333   0.44896   0.25000   0.00000  Uiso   1.00
H363   H     0.83338   0.38647   0.45925   0.00000  Uiso   1.00
H364   H     0.83329   0.61353   0.04075   0.00000  Uiso   1.00
O365   O     0.89272   0.37774   0.30136   0.00000  Uiso   1.00
H366   H     0.88460   0.40903   0.30556   0.00000  Uiso   1.00
O367   O     0.77394   0.62227   0.19864   0.00000  Uiso   1.00
H368   H     0.78206   0.59097   0.19444   0.00000  Uiso   1.00
O369   O     0.77399   0.37770   0.19857   0.00000  Uiso   1.00
H370   H     0.78207   0.40902   0.19444   0.00000  Uiso   1.00
O371   O     0.89268   0.62230   0.30143   0.00000  Uiso   1.00
H372   H     0.88459   0.59098   0.30556   0.00000  Uiso   1.00
C373   C     0.08673   0.83333   0.24988   0.00000  Uiso   1.00
C374   C     0.24661   0.83333   0.25012   0.00000  Uiso   1.00
C375   C     0.16648   0.75151   0.02313   0.00000  Uiso   1.00
C376   C     0.16685   0.91516   0.47686   0.00000  Uiso   1.00
C377   C     0.02107   0.79285   0.24438   0.00000  Uiso   1.00
C378   C     0.31226   0.87381   0.25561   0.00000  Uiso   1.00
C379   C     0.31182   0.79285   0.24452   0.00000  Uiso   1.00
C380   C     0.02152   0.87382   0.25548   0.00000  Uiso   1.00
C381   C     0.29082   0.83333   0.25011   0.00000  Uiso   1.00
C382   C     0.04251   0.83334   0.24989   0.00000  Uiso   1.00
C383   C     0.19588   0.69035   0.27494   0.00000  Uiso   1.00
C384   C     0.13746   0.97632   0.22506   0.00000  Uiso   1.00
C385   C     0.13746   0.69033   0.22505   0.00000  Uiso   1.00
C386   C     0.19587   0.97633   0.27495   0.00000  Uiso   1.00
C387   C     0.16651   0.83333   0.16339   0.00000  Uiso   1.00
C388   C     0.16682   0.83333   0.33661   0.00000  Uiso   1.00
C389   C     0.16702   0.87415   0.40757   0.00000  Uiso   1.00
C390   C     0.16632   0.79251   0.09243   0.00000  Uiso   1.00
C391   C     0.16695   0.83333   0.38463   0.00000  Uiso   1.00
C392   C     0.16638   0.83333   0.11537   0.00000  Uiso   1.00
C393   C     0.16693   0.79251   0.40757   0.00000  Uiso   1.00
C394   C     0.16640   0.87416   0.09243   0.00000  Uiso   1.00
C395   C     0.16681   0.79221   0.45365   0.00000  Uiso   1.00
C396   C     0.16652   0.87446   0.04635   0.00000  Uiso   1.00
C397   C     0.16676   0.83333   0.47682   0.00000  Uiso   1.00
C398   C     0.16657   0.83333   0.02318   0.00000  Uiso   1.00
C399   C     0.16690   0.87446   0.45365   0.00000  Uiso   1.00
C400   C     0.16644   0.79221   0.04635   0.00000  Uiso   1.00
C401   C     0.16668   0.75151   0.47686   0.00000  Uiso   1.00
C402   C     0.16666   0.91516   0.02314   0.00000  Uiso   1.00
H403   H     0.16710   0.90573   0.38968   0.00000  Uiso   1.00
H404   H     0.16623   0.76094   0.11032   0.00000  Uiso   1.00
H405   H     0.16695   0.76094   0.38967   0.00000  Uiso   1.00
H406   H     0.16639   0.90573   0.11033   0.00000  Uiso   1.00
H407   H     0.16638   0.71980   0.04074   0.00000  Uiso   1.00
H408   H     0.16695   0.94686   0.45926   0.00000  Uiso   1.00
H409   H     0.03704   0.76132   0.23983   0.00000  Uiso   1.00
H410   H     0.29630   0.90535   0.26017   0.00000  Uiso   1.00
H411   H     0.29549   0.76130   0.24004   0.00000  Uiso   1.00
H412   H     0.03784   0.90537   0.25995   0.00000  Uiso   1.00
N413   N     0.16667   0.95240   0.25000   0.00000  Uiso   1.00
N414   N     0.16667   0.71427   0.25000   0.00000  Uiso   1.00
O415   O     0.10559   0.87154   0.24999   0.00000  Uiso   1.00
O416   O     0.22774   0.79513   0.25000   0.00000  Uiso   1.00
O417   O     0.22774   0.87154   0.25000   0.00000  Uiso   1.00
O418   O     0.10559   0.79513   0.24999   0.00000  Uiso   1.00
O419   O     0.16666   0.87156   0.18392   0.00000  Uiso   1.00
O420   O     0.16667   0.79511   0.31607   0.00000  Uiso   1.00
O421   O     0.16667   0.87156   0.31607   0.00000  Uiso   1.00
O422   O     0.16666   0.79511   0.18392   0.00000  Uiso   1.00
Zn423  Zn    0.16667   0.88437   0.25000   0.00000  Uiso   1.00
Zn424  Zn    0.16667   0.78229   0.25000   0.00000  Uiso   1.00
H425   H     0.16671   0.71980   0.45925   0.00000  Uiso   1.00
H426   H     0.16662   0.94686   0.04075   0.00000  Uiso   1.00
O427   O     0.22606   0.71107   0.30136   0.00000  Uiso   1.00
H428   H     0.21794   0.74236   0.30556   0.00000  Uiso   1.00
O429   O     0.10728   0.95560   0.19864   0.00000  Uiso   1.00
H430   H     0.11540   0.92430   0.19444   0.00000  Uiso   1.00
O431   O     0.10732   0.71104   0.19857   0.00000  Uiso   1.00
H432   H     0.11541   0.74236   0.19444   0.00000  Uiso   1.00
O433   O     0.22601   0.95563   0.30143   0.00000  Uiso   1.00
H434   H     0.21793   0.92431   0.30556   0.00000  Uiso   1.00
C435   C     0.42006   0.83333   0.24988   0.00000  Uiso   1.00
C436   C     0.57994   0.83333   0.25012   0.00000  Uiso   1.00
C437   C     0.49982   0.75151   0.02313   0.00000  Uiso   1.00
C438   C     0.50018   0.91516   0.47686   0.00000  Uiso   1.00
C439   C     0.35441   0.79285   0.24438   0.00000  Uiso   1.00
C440   C     0.64559   0.87381   0.25561   0.00000  Uiso   1.00
C441   C     0.64515   0.79285   0.24452   0.00000  Uiso   1.00
C442   C     0.35485   0.87382   0.25548   0.00000  Uiso   1.00
C443   C     0.62415   0.83333   0.25011   0.00000  Uiso   1.00
C444   C     0.37585   0.83334   0.24989   0.00000  Uiso   1.00
C445   C     0.52921   0.69035   0.27494   0.00000  Uiso   1.00
C446   C     0.47079   0.97632   0.22506   0.00000  Uiso   1.00
C447   C     0.47080   0.69033   0.22505   0.00000  Uiso   1.00
C448   C     0.52920   0.97633   0.27495   0.00000  Uiso   1.00
C449   C     0.49985   0.83333   0.16339   0.00000  Uiso   1.00
C450   C     0.50015   0.83333   0.33661   0.00000  Uiso   1.00
C451   C     0.50035   0.87415   0.40757   0.00000  Uiso   1.00
C452   C     0.49965   0.79251   0.09243   0.00000  Uiso   1.00
C453   C     0.50028   0.83333   0.38463   0.00000  Uiso   1.00
C454   C     0.49972   0.83333   0.11537   0.00000  Uiso   1.00
C455   C     0.50026   0.79251   0.40757   0.00000  Uiso   1.00
C456   C     0.49974   0.87416   0.09243   0.00000  Uiso   1.00
C457   C     0.50014   0.79221   0.45365   0.00000  Uiso   1.00
C458   C     0.49986   0.87446   0.04635   0.00000  Uiso   1.00
C459   C     0.50009   0.83333   0.47682   0.00000  Uiso   1.00
C460   C     0.49991   0.83333   0.02318   0.00000  Uiso   1.00
C461   C     0.50023   0.87446   0.45365   0.00000  Uiso   1.00
C462   C     0.49977   0.79221   0.04635   0.00000  Uiso   1.00
C463   C     0.50001   0.75151   0.47686   0.00000  Uiso   1.00
C464   C     0.49999   0.91516   0.02314   0.00000  Uiso   1.00
H465   H     0.50044   0.90573   0.38968   0.00000  Uiso   1.00
H466   H     0.49956   0.76094   0.11032   0.00000  Uiso   1.00
H467   H     0.50028   0.76094   0.38967   0.00000  Uiso   1.00
H468   H     0.49972   0.90573   0.11033   0.00000  Uiso   1.00
H469   H     0.49972   0.71980   0.04074   0.00000  Uiso   1.00
H470   H     0.50028   0.94686   0.45926   0.00000  Uiso   1.00
H471   H     0.37037   0.76132   0.23983   0.00000  Uiso   1.00
H472   H     0.62963   0.90535   0.26017   0.00000  Uiso   1.00
H473   H     0.62882   0.76130   0.24004   0.00000  Uiso   1.00
H474   H     0.37118   0.90537   0.25995   0.00000  Uiso   1.00
N475   N     0.50000   0.95240   0.25000   0.00000  Uiso   1.00
N476   N     0.50000   0.71427   0.25000   0.00000  Uiso   1.00
O477   O     0.43892   0.87154   0.24999   0.00000  Uiso   1.00
O478   O     0.56108   0.79513   0.25000   0.00000  Uiso   1.00
O479   O     0.56108   0.87154   0.25000   0.00000  Uiso   1.00
O480   O     0.43892   0.79513   0.24999   0.00000  Uiso   1.00
O481   O     0.49999   0.87156   0.18392   0.00000  Uiso   1.00
O482   O     0.50001   0.79511   0.31607   0.00000  Uiso   1.00
O483   O     0.50001   0.87156   0.31607   0.00000  Uiso   1.00
O484   O     0.49999   0.79511   0.18392   0.00000  Uiso   1.00
Zn485  Zn    0.50000   0.88437   0.25000   0.00000  Uiso   1.00
Zn486  Zn    0.50000   0.78229   0.25000   0.00000  Uiso   1.00
H487   H     0.50004   0.71980   0.45925   0.00000  Uiso   1.00
H488   H     0.49996   0.94686   0.04075   0.00000  Uiso   1.00
O489   O     0.55939   0.71107   0.30136   0.00000  Uiso   1.00
H490   H     0.55127   0.74236   0.30556   0.00000  Uiso   1.00
O491   O     0.44061   0.95560   0.19864   0.00000  Uiso   1.00
H492   H     0.44873   0.92430   0.19444   0.00000  Uiso   1.00
O493   O     0.44066   0.71104   0.19857   0.00000  Uiso   1.00
H494   H     0.44874   0.74236   0.19444   0.00000  Uiso   1.00
O495   O     0.55934   0.95563   0.30143   0.00000  Uiso   1.00
H496   H     0.55126   0.92431   0.30556   0.00000  Uiso   1.00
C497   C     0.75339   0.83333   0.24988   0.00000  Uiso   1.00
C498   C     0.91327   0.83333   0.25012   0.00000  Uiso   1.00
C499   C     0.83315   0.75151   0.02313   0.00000  Uiso   1.00
C500   C     0.83352   0.91516   0.47686   0.00000  Uiso   1.00
C501   C     0.68774   0.79285   0.24438   0.00000  Uiso   1.00
C502   C     0.97893   0.87381   0.25561   0.00000  Uiso   1.00
C503   C     0.97848   0.79285   0.24452   0.00000  Uiso   1.00
C504   C     0.68818   0.87382   0.25548   0.00000  Uiso   1.00
C505   C     0.95749   0.83333   0.25011   0.00000  Uiso   1.00
C506   C     0.70918   0.83334   0.24989   0.00000  Uiso   1.00
C507   C     0.86254   0.69035   0.27494   0.00000  Uiso   1.00
C508   C     0.80412   0.97632   0.22506   0.00000  Uiso   1.00
C509   C     0.80413   0.69033   0.22505   0.00000  Uiso   1.00
C510   C     0.86254   0.97633   0.27495   0.00000  Uiso   1.00
C511   C     0.83318   0.83333   0.16339   0.00000  Uiso   1.00
C512   C     0.83348   0.83333   0.33661   0.00000  Uiso   1.00
C513   C     0.83368   0.87415   0.40757   0.00000  Uiso   1.00
C514   C     0.83298   0.79251   0.09243   0.00000  Uiso   1.00
C515   C     0.83362   0.83333   0.38463   0.00000  Uiso   1.00
C516   C     0.83305   0.83333   0.11537   0.00000  Uiso   1.00
C517   C     0.83360   0.79251   0.40757   0.00000  Uiso   1.00
C518   C     0.83307   0.87416   0.09243   0.00000  Uiso   1.00
C519   C     0.83347   0.79221   0.45365   0.00000  Uiso   1.00
C520   C     0.83319   0.87446   0.04635   0.00000  Uiso   1.00
C521   C     0.83343   0.83333   0.47682   0.00000  Uiso   1.00
C522   C     0.83324   0.83333   0.02318   0.00000  Uiso   1.00
C523   C     0.83356   0.87446   0.45365   0.00000  Uiso   1.00
C524   C     0.83310   0.79221   0.04635   0.00000  Uiso   1.00
C525   C     0.83334   0.75151   0.47686   0.00000  Uiso   1.00
C526   C     0.83332   0.91516   0.02314   0.00000  Uiso   1.00
H527   H     0.83377   0.90573   0.38968   0.00000  Uiso   1.00
H528   H     0.83290   0.76094   0.11032   0.00000  Uiso   1.00
H529   H     0.83361   0.76094   0.38967   0.00000  Uiso   1.00
H530   H     0.83305   0.90573   0.11033   0.00000  Uiso   1.00
H531   H     0.83305   0.71980   0.04074   0.00000  Uiso   1.00
H532   H     0.83362   0.94686   0.45926   0.00000  Uiso   1.00
H533   H     0.70370   0.76132   0.23983   0.00000  Uiso   1.00
H534   H     0.96296   0.90535   0.26017   0.00000  Uiso   1.00
H535   H     0.96216   0.76130   0.24004   0.00000  Uiso   1.00
H536   H     0.70451   0.90537   0.25995   0.00000  Uiso   1.00
N537   N     0.83333   0.95240   0.25000   0.00000  Uiso   1.00
N538   N     0.83333   0.71427   0.25000   0.00000  Uiso   1.00
O539   O     0.77226   0.87154   0.24999   0.00000  Uiso   1.00
O540   O     0.89441   0.79513   0.25000   0.00000  Uiso   1.00
O541   O     0.89441   0.87154   0.25000   0.00000  Uiso   1.00
O542   O     0.77226   0.79513   0.24999   0.00000  Uiso   1.00
O543   O     0.83333   0.87156   0.18392   0.00000  Uiso   1.00
O544   O     0.83334   0.79511   0.31607   0.00000  Uiso   1.00
O545   O     0.83334   0.87156   0.31607   0.00000  Uiso   1.00
O546   O     0.83333   0.79511   0.18392   0.00000  Uiso   1.00
Zn547  Zn    0.83333   0.88437   0.25000   0.00000  Uiso   1.00
Zn548  Zn    0.83333   0.78229   0.25000   0.00000  Uiso   1.00
H549   H     0.83338   0.71980   0.45925   0.00000  Uiso   1.00
H550   H     0.83329   0.94686   0.04075   0.00000  Uiso   1.00
O551   O     0.89272   0.71107   0.30136   0.00000  Uiso   1.00
H552   H     0.88460   0.74236   0.30556   0.00000  Uiso   1.00
O553   O     0.77394   0.95560   0.19864   0.00000  Uiso   1.00
H554   H     0.78206   0.92430   0.19444   0.00000  Uiso   1.00
O555   O     0.77399   0.71104   0.19857   0.00000  Uiso   1.00
H556   H     0.78207   0.74236   0.19444   0.00000  Uiso   1.00
O557   O     0.89268   0.95563   0.30143   0.00000  Uiso   1.00
H558   H     0.88459   0.92431   0.30556   0.00000  Uiso   1.00
C559   C     0.08673   0.16667   0.74988   0.00000  Uiso   1.00
C560   C     0.24661   0.16667   0.75012   0.00000  Uiso   1.00
C561   C     0.16648   0.08484   0.52313   0.00000  Uiso   1.00
C562   C     0.16685   0.24849   0.97686   0.00000  Uiso   1.00
C563   C     0.02107   0.12619   0.74438   0.00000  Uiso   1.00
C564   C     0.31226   0.20715   0.75561   0.00000  Uiso   1.00
C565   C     0.31182   0.12618   0.74452   0.00000  Uiso   1.00
C566   C     0.02152   0.20715   0.75548   0.00000  Uiso   1.00
C567   C     0.29082   0.16666   0.75011   0.00000  Uiso   1.00
C568   C     0.04251   0.16667   0.74989   0.00000  Uiso   1.00
C569   C     0.19588   0.02368   0.77494   0.00000  Uiso   1.00
C570   C     0.13746   0.30965   0.72506   0.00000  Uiso   1.00
C571   C     0.13746   0.02367   0.72505   0.00000  Uiso   1.00
C572   C     0.19587   0.30967   0.77495   0.00000  Uiso   1.00
C573   C     0.16651   0.16667   0.66339   0.00000  Uiso   1.00
C574   C     0.16682   0.16667   0.83661   0.00000  Uiso   1.00
C575   C     0.16702   0.20749   0.90757   0.00000  Uiso   1.00
C576   C     0.16632   0.12585   0.59243   0.00000  Uiso   1.00
C577   C     0.16695   0.16667   0.88463   0.00000  Uiso   1.00
C578   C     0.16638   0.16667   0.61537   0.00000  Uiso   1.00
C579   C     0.16693   0.12585   0.90757   0.00000  Uiso   1.00
C580   C     0.16640   0.20749   0.59243   0.00000  Uiso   1.00
C581   C     0.16681   0.12554   0.95365   0.00000  Uiso   1.00
C582   C     0.16652   0.20779   0.54635   0.00000  Uiso   1.00
C583   C     0.16676   0.16667   0.97682   0.00000  Uiso   1.00
C584   C     0.16657   0.16667   0.52318   0.00000  Uiso   1.00
C585   C     0.16690   0.20779   0.95365   0.00000  Uiso   1.00
C586   C     0.16644   0.12554   0.54635   0.00000  Uiso   1.00
C587   C     0.16668   0.08484   0.97686   0.00000  Uiso   1.00
C588   C     0.16666   0.24849   0.52314   0.00000  Uiso   1.00
H589   H     0.16710   0.23906   0.88968   0.00000  Uiso   1.00
H590   H     0.16623   0.09427   0.61032   0.00000  Uiso   1.00
H591   H     0.16695   0.09427   0.88967   0.00000  Uiso   1.00
H592   H     0.16639   0.23906   0.61033   0.00000  Uiso   1.00
H593   H     0.16638   0.05314   0.54074   0.00000  Uiso   1.00
H594   H     0.16695   0.28020   0.95926   0.00000  Uiso   1.00
H595   H     0.03704   0.09465   0.73983   0.00000  Uiso   1.00
H596   H     0.29630   0.23868   0.76017   0.00000  Uiso   1.00
H597   H     0.29549   0.09463   0.74004   0.00000  Uiso   1.00
H598   H     0.03784   0.23870   0.75995   0.00000  Uiso   1.00
N599   N     0.16667   0.28573   0.75000   0.00000  Uiso   1.00
N600   N     0.16667   0.04760   0.75000   0.00000  Uiso   1.00
O601   O     0.10559   0.20487   0.74999   0.00000  Uiso   1.00
O602   O     0.22774   0.12846   0.75000   0.00000  Uiso   1.00
O603   O     0.22774   0.20487   0.75000   0.00000  Uiso   1.00
O604   O     0.10559   0.12846   0.74999   0.00000  Uiso   1.00
O605   O     0.16666   0.20489   0.68392   0.00000  Uiso   1.00
O606   O     0.16667   0.12844   0.81607   0.00000  Uiso   1.00
O607   O     0.16667   0.20489   0.81607   0.00000  Uiso   1.00
O608   O     0.16666   0.12844   0.68392   0.00000  Uiso   1.00
Zn609  Zn    0.16667   0.21771   0.75000   0.00000  Uiso   1.00
Zn610  Zn    0.16667   0.11563   0.75000   0.00000  Uiso   1.00
H611   H     0.16671   0.05314   0.95925   0.00000  Uiso   1.00
H612   H     0.16662   0.28020   0.54075   0.00000  Uiso   1.00
O613   O     0.22606   0.04440   0.80136   0.00000  Uiso   1.00
H614   H     0.21794   0.07570   0.80556   0.00000  Uiso   1.00
O615   O     0.10728   0.28893   0.69864   0.00000  Uiso   1.00
H616   H     0.11540   0.25764   0.69444   0.00000  Uiso   1.00
O617   O     0.10732   0.04437   0.69857   0.00000  Uiso   1.00
H618   H     0.11541   0.07569   0.69444   0.00000  Uiso   1.00
O619   O     0.22601   0.28896   0.80143   0.00000  Uiso   1.00
H620   H     0.21793   0.25764   0.80556   0.00000  Uiso   1.00
C621   C     0.42006   0.16667   0.74988   0.00000  Uiso   1.00
C622   C     0.57994   0.16667   0.75012   0.00000  Uiso   1.00
C623   C     0.49982   0.08484   0.52313   0.00000  Uiso   1.00
C624   C     0.50018   0.24849   0.97686   0.00000  Uiso   1.00
C625   C     0.35441   0.12619   0.74438   0.00000  Uiso   1.00
C626   C     0.64559   0.20715   0.75561   0.00000  Uiso   1.00
C627   C     0.64515   0.12618   0.74452   0.00000  Uiso   1.00
C628   C     0.35485   0.20715   0.75548   0.00000  Uiso   1.00
C629   C     0.62415   0.16666   0.75011   0.00000  Uiso   1.00
C630   C     0.37585   0.16667   0.74989   0.00000  Uiso   1.00
C631   C     0.52921   0.02368   0.77494   0.00000  Uiso   1.00
C632   C     0.47079   0.30965   0.72506   0.00000  Uiso   1.00
C633   C     0.47080   0.02367   0.72505   0.00000  Uiso   1.00
C634   C     0.52920   0.30967   0.77495   0.00000  Uiso   1.00
C635   C     0.49985   0.16667   0.66339   0.00000  Uiso   1.00
C636   C     0.50015   0.16667   0.83661   0.00000  Uiso   1.00
C637   C     0.50035   0.20749   0.90757   0.00000  Uiso   1.00
C638   C     0.49965   0.12585   0.59243   0.00000  Uiso   1.00
C639   C     0.50028   0.16667   0.88463   0.00000  Uiso   1.00
C640   C     0.49972   0.16667   0.61537   0.00000  Uiso   1.00
C641   C     0.50026   0.12585   0.90757   0.00000  Uiso   1.00
C642   C     0.49974   0.20749   0.59243   0.00000  Uiso   1.00
C643   C     0.50014   0.12554   0.95365   0.00000  Uiso   1.00
C644   C     0.49986   0.20779   0.54635   0.00000  Uiso   1.00
C645   C     0.50009   0.16667   0.97682   0.00000  Uiso   1.00
C646   C     0.49991   0.16667   0.52318   0.00000  Uiso   1.00
C647   C     0.50023   0.20779   0.95365   0.00000  Uiso   1.00
C648   C     0.49977   0.12554   0.54635   0.00000  Uiso   1.00
C649   C     0.50001   0.08484   0.97686   0.00000  Uiso   1.00
C650   C     0.49999   0.24849   0.52314   0.00000  Uiso   1.00
H651   H     0.50044   0.23906   0.88968   0.00000  Uiso   1.00
H652   H     0.49956   0.09427   0.61032   0.00000  Uiso   1.00
H653   H     0.50028   0.09427   0.88967   0.00000  Uiso   1.00
H654   H     0.49972   0.23906   0.61033   0.00000  Uiso   1.00
H655   H     0.49972   0.05314   0.54074   0.00000  Uiso   1.00
H656   H     0.50028   0.28020   0.95926   0.00000  Uiso   1.00
H657   H     0.37037   0.09465   0.73983   0.00000  Uiso   1.00
H658   H     0.62963   0.23868   0.76017   0.00000  Uiso   1.00
H659   H     0.62882   0.09463   0.74004   0.00000  Uiso   1.00
H660   H     0.37118   0.23870   0.75995   0.00000  Uiso   1.00
N661   N     0.50000   0.28573   0.75000   0.00000  Uiso   1.00
N662   N     0.50000   0.04760   0.75000   0.00000  Uiso   1.00
O663   O     0.43892   0.20487   0.74999   0.00000  Uiso   1.00
O664   O     0.56108   0.12846   0.75000   0.00000  Uiso   1.00
O665   O     0.56108   0.20487   0.75000   0.00000  Uiso   1.00
O666   O     0.43892   0.12846   0.74999   0.00000  Uiso   1.00
O667   O     0.49999   0.20489   0.68392   0.00000  Uiso   1.00
O668   O     0.50001   0.12844   0.81607   0.00000  Uiso   1.00
O669   O     0.50001   0.20489   0.81607   0.00000  Uiso   1.00
O670   O     0.49999   0.12844   0.68392   0.00000  Uiso   1.00
Zn671  Zn    0.50000   0.21771   0.75000   0.00000  Uiso   1.00
Zn672  Zn    0.50000   0.11563   0.75000   0.00000  Uiso   1.00
H673   H     0.50004   0.05314   0.95925   0.00000  Uiso   1.00
H674   H     0.49996   0.28020   0.54075   0.00000  Uiso   1.00
O675   O     0.55939   0.04440   0.80136   0.00000  Uiso   1.00
H676   H     0.55127   0.07570   0.80556   0.00000  Uiso   1.00
O677   O     0.44061   0.28893   0.69864   0.00000  Uiso   1.00
H678   H     0.44873   0.25764   0.69444   0.00000  Uiso   1.00
O679   O     0.44066   0.04437   0.69857   0.00000  Uiso   1.00
H680   H     0.44874   0.07569   0.69444   0.00000  Uiso   1.00
O681   O     0.55934   0.28896   0.80143   0.00000  Uiso   1.00
H682   H     0.55126   0.25764   0.80556   0.00000  Uiso   1.00
C683   C     0.75339   0.16667   0.74988   0.00000  Uiso   1.00
C684   C     0.91327   0.16667   0.75012   0.00000  Uiso   1.00
C685   C     0.83315   0.08484   0.52313   0.00000  Uiso   1.00
C686   C     0.83352   0.24849   0.97686   0.00000  Uiso   1.00
C687   C     0.68774   0.12619   0.74438   0.00000  Uiso   1.00
C688   C     0.97893   0.20715   0.75561   0.00000  Uiso   1.00
C689   C     0.97848   0.12618   0.74452   0.00000  Uiso   1.00
C690   C     0.68818   0.20715   0.75548   0.00000  Uiso   1.00
C691   C     0.95749   0.16666   0.75011   0.00000  Uiso   1.00
C692   C     0.70918   0.16667   0.74989   0.00000  Uiso   1.00
C693   C     0.86254   0.02368   0.77494   0.00000  Uiso   1.00
C694   C     0.80412   0.30965   0.72506   0.00000  Uiso   1.00
C695   C     0.80413   0.02367   0.72505   0.00000  Uiso   1.00
C696   C     0.86254   0.30967   0.77495   0.00000  Uiso   1.00
C697   C     0.83318   0.16667   0.66339   0.00000  Uiso   1.00
C698   C     0.83348   0.16667   0.83661   0.00000  Uiso   1.00
C699   C     0.83368   0.20749   0.90757   0.00000  Uiso   1.00
C700   C     0.83298   0.12585   0.59243   0.00000  Uiso   1.00
C701   C     0.83362   0.16667   0.88463   0.00000  Uiso   1.00
C702   C     0.83305   0.16667   0.61537   0.00000  Uiso   1.00
C703   C     0.83360   0.12585   0.90757   0.00000  Uiso   1.00
C704   C     0.83307   0.20749   0.59243   0.00000  Uiso   1.00
C705   C     0.83347   0.12554   0.95365   0.00000  Uiso   1.00
C706   C     0.83319   0.20779   0.54635   0.00000  Uiso   1.00
C707   C     0.83343   0.16667   0.97682   0.00000  Uiso   1.00
C708   C     0.83324   0.16667   0.52318   0.00000  Uiso   1.00
C709   C     0.83356   0.20779   0.95365   0.00000  Uiso   1.00
C710   C     0.83310   0.12554   0.54635   0.00000  Uiso   1.00
C711   C     0.83334   0.08484   0.97686   0.00000  Uiso   1.00
C712   C     0.83332   0.24849   0.52314   0.00000  Uiso   1.00
H713   H     0.83377   0.23906   0.88968   0.00000  Uiso   1.00
H714   H     0.83290   0.09427   0.61032   0.00000  Uiso   1.00
H715   H     0.83361   0.09427   0.88967   0.00000  Uiso   1.00
H716   H     0.83305   0.23906   0.61033   0.00000  Uiso   1.00
H717   H     0.83305   0.05314   0.54074   0.00000  Uiso   1.00
H718   H     0.83362   0.28020   0.95926   0.00000  Uiso   1.00
H719   H     0.70370   0.09465   0.73983   0.00000  Uiso   1.00
H720   H     0.96296   0.23868   0.76017   0.00000  Uiso   1.00
H721   H     0.96216   0.09463   0.74004   0.00000  Uiso   1.00
H722   H     0.70451   0.23870   0.75995   0.00000  Uiso   1.00
N723   N     0.83333   0.28573   0.75000   0.00000  Uiso   1.00
N724   N     0.83333   0.04760   0.75000   0.00000  Uiso   1.00
O725   O     0.77226   0.20487   0.74999   0.00000  Uiso   1.00
O726   O     0.89441   0.12846   0.75000   0.00000  Uiso   1.00
O727   O     0.89441   0.20487   0.75000   0.00000  Uiso   1.00
O728   O     0.77226   0.12846   0.74999   0.00000  Uiso   1.00
O729   O     0.83333   0.20489   0.68392   0.00000  Uiso   1.00
O730   O     0.83334   0.12844   0.81607   0.00000  Uiso   1.00
O731   O     0.83334   0.20489   0.81607   0.00000  Uiso   1.00
O732   O     0.83333   0.12844   0.68392   0.00000  Uiso   1.00
Zn733  Zn    0.83333   0.21771   0.75000   0.00000  Uiso   1.00
Zn734  Zn    0.83333   0.11563   0.75000   0.00000  Uiso   1.00
H735   H     0.83338   0.05314   0.95925   0.00000  Uiso   1.00
H736   H     0.83329   0.28020   0.54075   0.00000  Uiso   1.00
O737   O     0.89272   0.04440   0.80136   0.00000  Uiso   1.00
H738   H     0.88460   0.07570   0.80556   0.00000  Uiso   1.00
O739   O     0.77394   0.28893   0.69864   0.00000  Uiso   1.00
H740   H     0.78206   0.25764   0.69444   0.00000  Uiso   1.00
O741   O     0.77399   0.04437   0.69857   0.00000  Uiso   1.00
H742   H     0.78207   0.07569   0.69444   0.00000  Uiso   1.00
O743   O     0.89268   0.28896   0.80143   0.00000  Uiso   1.00
H744   H     0.88459   0.25764   0.80556   0.00000  Uiso   1.00
C745   C     0.08673   0.50000   0.74988   0.00000  Uiso   1.00
C746   C     0.24661   0.50000   0.75012   0.00000  Uiso   1.00
C747   C     0.16648   0.41818   0.52313   0.00000  Uiso   1.00
C748   C     0.16685   0.58182   0.97686   0.00000  Uiso   1.00
C749   C     0.02107   0.45952   0.74438   0.00000  Uiso   1.00
C750   C     0.31226   0.54048   0.75561   0.00000  Uiso   1.00
C751   C     0.31182   0.45951   0.74452   0.00000  Uiso   1.00
C752   C     0.02152   0.54049   0.75548   0.00000  Uiso   1.00
C753   C     0.29082   0.50000   0.75011   0.00000  Uiso   1.00
C754   C     0.04251   0.50000   0.74989   0.00000  Uiso   1.00
C755   C     0.19588   0.35701   0.77494   0.00000  Uiso   1.00
C756   C     0.13746   0.64299   0.72506   0.00000  Uiso   1.00
C757   C     0.13746   0.35700   0.72505   0.00000  Uiso   1.00
C758   C     0.19587   0.64300   0.77495   0.00000  Uiso   1.00
C759   C     0.16651   0.50000   0.66339   0.00000  Uiso   1.00
C760   C     0.16682   0.50000   0.83661   0.00000  Uiso   1.00
C761   C     0.16702   0.54082   0.90757   0.00000  Uiso   1.00
C762   C     0.16632   0.45918   0.59243   0.00000  Uiso   1.00
C763   C     0.16695   0.50000   0.88463   0.00000  Uiso   1.00
C764   C     0.16638   0.50000   0.61537   0.00000  Uiso   1.00
C765   C     0.16693   0.45918   0.90757   0.00000  Uiso   1.00
C766   C     0.16640   0.54082   0.59243   0.00000  Uiso   1.00
C767   C     0.16681   0.45887   0.95365   0.00000  Uiso   1.00
C768   C     0.16652   0.54113   0.54635   0.00000  Uiso   1.00
C769   C     0.16676   0.50000   0.97682   0.00000  Uiso   1.00
C770   C     0.16657   0.50000   0.52318   0.00000  Uiso   1.00
C771   C     0.16690   0.54113   0.95365   0.00000  Uiso   1.00
C772   C     0.16644   0.45887   0.54635   0.00000  Uiso   1.00
C773   C     0.16668   0.41818   0.97686   0.00000  Uiso   1.00
C774   C     0.16666   0.58182   0.52314   0.00000  Uiso   1.00
H775   H     0.16710   0.57239   0.88968   0.00000  Uiso   1.00
H776   H     0.16623   0.42761   0.61032   0.00000  Uiso   1.00
H777   H     0.16695   0.42761   0.88967   0.00000  Uiso   1.00
H778   H     0.16639   0.57239   0.61033   0.00000  Uiso   1.00
H779   H     0.16638   0.38647   0.54074   0.00000  Uiso   1.00
H780   H     0.16695   0.61353   0.95926   0.00000  Uiso   1.00
H781   H     0.03704   0.42798   0.73983   0.00000  Uiso   1.00
H782   H     0.29630   0.57202   0.76017   0.00000  Uiso   1.00
H783   H     0.29549   0.42797   0.74004   0.00000  Uiso   1.00
H784   H     0.03784   0.57203   0.75995   0.00000  Uiso   1.00
N785   N     0.16667   0.61907   0.75000   0.00000  Uiso   1.00
N786   N     0.16667   0.38093   0.75000   0.00000  Uiso   1.00
O787   O     0.10559   0.53821   0.74999   0.00000  Uiso   1.00
O788   O     0.22774   0.46179   0.75000   0.00000  Uiso   1.00
O789   O     0.22774   0.53821   0.75000   0.00000  Uiso   1.00
O790   O     0.10559   0.46179   0.74999   0.00000  Uiso   1.00
O791   O     0.16666   0.53823   0.68392   0.00000  Uiso   1.00
O792   O     0.16667   0.46177   0.81607   0.00000  Uiso   1.00
O793   O     0.16667   0.53823   0.81607   0.00000  Uiso   1.00
O794   O     0.16666   0.46177   0.68392   0.00000  Uiso   1.00
Zn795  Zn    0.16667   0.55104   0.75000   0.00000  Uiso   1.00
Zn796  Zn    0.16667   0.44896   0.75000   0.00000  Uiso   1.00
H797   H     0.16671   0.38647   0.95925   0.00000  Uiso   1.00
H798   H     0.16662   0.61353   0.54075   0.00000  Uiso   1.00
O799   O     0.22606   0.37774   0.80136   0.00000  Uiso   1.00
H800   H     0.21794   0.40903   0.80556   0.00000  Uiso   1.00
O801   O     0.10728   0.62227   0.69864   0.00000  Uiso   1.00
H802   H     0.11540   0.59097   0.69444   0.00000  Uiso   1.00
O803   O     0.10732   0.37770   0.69857   0.00000  Uiso   1.00
H804   H     0.11541   0.40902   0.69444   0.00000  Uiso   1.00
O805   O     0.22601   0.62230   0.80143   0.00000  Uiso   1.00
H806   H     0.21793   0.59098   0.80556   0.00000  Uiso   1.00
C807   C     0.42006   0.50000   0.74988   0.00000  Uiso   1.00
C808   C     0.57994   0.50000   0.75012   0.00000  Uiso   1.00
C809   C     0.49982   0.41818   0.52313   0.00000  Uiso   1.00
C810   C     0.50018   0.58182   0.97686   0.00000  Uiso   1.00
C811   C     0.35441   0.45952   0.74438   0.00000  Uiso   1.00
C812   C     0.64559   0.54048   0.75561   0.00000  Uiso   1.00
C813   C     0.64515   0.45951   0.74452   0.00000  Uiso   1.00
C814   C     0.35485   0.54049   0.75548   0.00000  Uiso   1.00
C815   C     0.62415   0.50000   0.75011   0.00000  Uiso   1.00
C816   C     0.37585   0.50000   0.74989   0.00000  Uiso   1.00
C817   C     0.52921   0.35701   0.77494   0.00000  Uiso   1.00
C818   C     0.47079   0.64299   0.72506   0.00000  Uiso   1.00
C819   C     0.47080   0.35700   0.72505   0.00000  Uiso   1.00
C820   C     0.52920   0.64300   0.77495   0.00000  Uiso   1.00
C821   C     0.49985   0.50000   0.66339   0.00000  Uiso   1.00
C822   C     0.50015   0.50000   0.83661   0.00000  Uiso   1.00
C823   C     0.50035   0.54082   0.90757   0.00000  Uiso   1.00
C824   C     0.49965   0.45918   0.59243   0.00000  Uiso   1.00
C825   C     0.50028   0.50000   0.88463   0.00000  Uiso   1.00
C826   C     0.49972   0.50000   0.61537   0.00000  Uiso   1.00
C827   C     0.50026   0.45918   0.90757   0.00000  Uiso   1.00
C828   C     0.49974   0.54082   0.59243   0.00000  Uiso   1.00
C829   C     0.50014   0.45887   0.95365   0.00000  Uiso   1.00
C830   C     0.49986   0.54113   0.54635   0.00000  Uiso   1.00
C831   C     0.50009   0.50000   0.97682   0.00000  Uiso   1.00
C832   C     0.49991   0.50000   0.52318   0.00000  Uiso   1.00
C833   C     0.50023   0.54113   0.95365   0.00000  Uiso   1.00
C834   C     0.49977   0.45887   0.54635   0.00000  Uiso   1.00
C835   C     0.50001   0.41818   0.97686   0.00000  Uiso   1.00
C836   C     0.49999   0.58182   0.52314   0.00000  Uiso   1.00
H837   H     0.50044   0.57239   0.88968   0.00000  Uiso   1.00
H838   H     0.49956   0.42761   0.61032   0.00000  Uiso   1.00
H839   H     0.50028   0.42761   0.88967   0.00000  Uiso   1.00
H840   H     0.49972   0.57239   0.61033   0.00000  Uiso   1.00
H841   H     0.49972   0.38647   0.54074   0.00000  Uiso   1.00
H842   H     0.50028   0.61353   0.95926   0.00000  Uiso   1.00
H843   H     0.37037   0.42798   0.73983   0.00000  Uiso   1.00
H844   H     0.62963   0.57202   0.76017   0.00000  Uiso   1.00
H845   H     0.62882   0.42797   0.74004   0.00000  Uiso   1.00
H846   H     0.37118   0.57203   0.75995   0.00000  Uiso   1.00
N847   N     0.50000   0.61907   0.75000   0.00000  Uiso   1.00
N848   N     0.50000   0.38093   0.75000   0.00000  Uiso   1.00
O849   O     0.43892   0.53821   0.74999   0.00000  Uiso   1.00
O850   O     0.56108   0.46179   0.75000   0.00000  Uiso   1.00
O851   O     0.56108   0.53821   0.75000   0.00000  Uiso   1.00
O852   O     0.43892   0.46179   0.74999   0.00000  Uiso   1.00
O853   O     0.49999   0.53823   0.68392   0.00000  Uiso   1.00
O854   O     0.50001   0.46177   0.81607   0.00000  Uiso   1.00
O855   O     0.50001   0.53823   0.81607   0.00000  Uiso   1.00
O856   O     0.49999   0.46177   0.68392   0.00000  Uiso   1.00
Zn857  Zn    0.50000   0.55104   0.75000   0.00000  Uiso   1.00
Zn858  Zn    0.50000   0.44896   0.75000   0.00000  Uiso   1.00
H859   H     0.50004   0.38647   0.95925   0.00000  Uiso   1.00
H860   H     0.49996   0.61353   0.54075   0.00000  Uiso   1.00
O861   O     0.55939   0.37774   0.80136   0.00000  Uiso   1.00
H862   H     0.55127   0.40903   0.80556   0.00000  Uiso   1.00
O863   O     0.44061   0.62227   0.69864   0.00000  Uiso   1.00
H864   H     0.44873   0.59097   0.69444   0.00000  Uiso   1.00
O865   O     0.44066   0.37770   0.69857   0.00000  Uiso   1.00
H866   H     0.44874   0.40902   0.69444   0.00000  Uiso   1.00
O867   O     0.55934   0.62230   0.80143   0.00000  Uiso   1.00
H868   H     0.55126   0.59098   0.80556   0.00000  Uiso   1.00
C869   C     0.75339   0.50000   0.74988   0.00000  Uiso   1.00
C870   C     0.91327   0.50000   0.75012   0.00000  Uiso   1.00
C871   C     0.83315   0.41818   0.52313   0.00000  Uiso   1.00
C872   C     0.83352   0.58182   0.97686   0.00000  Uiso   1.00
C873   C     0.68774   0.45952   0.74438   0.00000  Uiso   1.00
C874   C     0.97893   0.54048   0.75561   0.00000  Uiso   1.00
C875   C     0.97848   0.45951   0.74452   0.00000  Uiso   1.00
C876   C     0.68818   0.54049   0.75548   0.00000  Uiso   1.00
C877   C     0.95749   0.50000   0.75011   0.00000  Uiso   1.00
C878   C     0.70918   0.50000   0.74989   0.00000  Uiso   1.00
C879   C     0.86254   0.35701   0.77494   0.00000  Uiso   1.00
C880   C     0.80412   0.64299   0.72506   0.00000  Uiso   1.00
C881   C     0.80413   0.35700   0.72505   0.00000  Uiso   1.00
C882   C     0.86254   0.64300   0.77495   0.00000  Uiso   1.00
C883   C     0.83318   0.50000   0.66339   0.00000  Uiso   1.00
C884   C     0.83348   0.50000   0.83661   0.00000  Uiso   1.00
C885   C     0.83368   0.54082   0.90757   0.00000  Uiso   1.00
C886   C     0.83298   0.45918   0.59243   0.00000  Uiso   1.00
C887   C     0.83362   0.50000   0.88463   0.00000  Uiso   1.00
C888   C     0.83305   0.50000   0.61537   0.00000  Uiso   1.00
C889   C     0.83360   0.45918   0.90757   0.00000  Uiso   1.00
C890   C     0.83307   0.54082   0.59243   0.00000  Uiso   1.00
C891   C     0.83347   0.45887   0.95365   0.00000  Uiso   1.00
C892   C     0.83319   0.54113   0.54635   0.00000  Uiso   1.00
C893   C     0.83343   0.50000   0.97682   0.00000  Uiso   1.00
C894   C     0.83324   0.50000   0.52318   0.00000  Uiso   1.00
C895   C     0.83356   0.54113   0.95365   0.00000  Uiso   1.00
C896   C     0.83310   0.45887   0.54635   0.00000  Uiso   1.00
C897   C     0.83334   0.41818   0.97686   0.00000  Uiso   1.00
C898   C     0.83332   0.58182   0.52314   0.00000  Uiso   1.00
H899   H     0.83377   0.57239   0.88968   0.00000  Uiso   1.00
H900   H     0.83290   0.42761   0.61032   0.00000  Uiso   1.00
H901   H     0.83361   0.42761   0.88967   0.00000  Uiso   1.00
H902   H     0.83305   0.57239   0.61033   0.00000  Uiso   1.00
H903   H     0.83305   0.38647   0.54074   0.00000  Uiso   1.00
H904   H     0.83362   0.61353   0.95926   0.00000  Uiso   1.00
H905   H     0.70370   0.42798   0.73983   0.00000  Uiso   1.00
H906   H     0.96296   0.57202   0.76017   0.00000  Uiso   1.00
H907   H     0.96216   0.42797   0.74004   0.00000  Uiso   1.00
H908   H     0.70451   0.57203   0.75995   0.00000  Uiso   1.00
N909   N     0.83333   0.61907   0.75000   0.00000  Uiso   1.00
N910   N     0.83333   0.38093   0.75000   0.00000  Uiso   1.00
O911   O     0.77226   0.53821   0.74999   0.00000  Uiso   1.00
O912   O     0.89441   0.46179   0.75000   0.00000  Uiso   1.00
O913   O     0.89441   0.53821   0.75000   0.00000  Uiso   1.00
O914   O     0.77226   0.46179   0.74999   0.00000  Uiso   1.00
O915   O     0.83333   0.53823   0.68392   0.00000  Uiso   1.00
O916   O     0.83334   0.46177   0.81607   0.00000  Uiso   1.00
O917   O     0.83334   0.53823   0.81607   0.00000  Uiso   1.00
O918   O     0.83333   0.46177   0.68392   0.00000  Uiso   1.00
Zn919  Zn    0.83333   0.55104   0.75000   0.00000  Uiso   1.00
Zn920  Zn    0.83333   0.44896   0.75000   0.00000  Uiso   1.00
H921   H     0.83338   0.38647   0.95925   0.00000  Uiso   1.00
H922   H     0.83329   0.61353   0.54075   0.00000  Uiso   1.00
O923   O     0.89272   0.37774   0.80136   0.00000  Uiso   1.00
H924   H     0.88460   0.40903   0.80556   0.00000  Uiso   1.00
O925   O     0.77394   0.62227   0.69864   0.00000  Uiso   1.00
H926   H     0.78206   0.59097   0.69444   0.00000  Uiso   1.00
O927   O     0.77399   0.37770   0.69857   0.00000  Uiso   1.00
H928   H     0.78207   0.40902   0.69444   0.00000  Uiso   1.00
O929   O     0.89268   0.62230   0.80143   0.00000  Uiso   1.00
H930   H     0.88459   0.59098   0.80556   0.00000  Uiso   1.00
C931   C     0.08673   0.83333   0.74988   0.00000  Uiso   1.00
C932   C     0.24661   0.83333   0.75012   0.00000  Uiso   1.00
C933   C     0.16648   0.75151   0.52313   0.00000  Uiso   1.00
C934   C     0.16685   0.91516   0.97686   0.00000  Uiso   1.00
C935   C     0.02107   0.79285   0.74438   0.00000  Uiso   1.00
C936   C     0.31226   0.87381   0.75561   0.00000  Uiso   1.00
C937   C     0.31182   0.79285   0.74452   0.00000  Uiso   1.00
C938   C     0.02152   0.87382   0.75548   0.00000  Uiso   1.00
C939   C     0.29082   0.83333   0.75011   0.00000  Uiso   1.00
C940   C     0.04251   0.83334   0.74989   0.00000  Uiso   1.00
C941   C     0.19588   0.69035   0.77494   0.00000  Uiso   1.00
C942   C     0.13746   0.97632   0.72506   0.00000  Uiso   1.00
C943   C     0.13746   0.69033   0.72505   0.00000  Uiso   1.00
C944   C     0.19587   0.97633   0.77495   0.00000  Uiso   1.00
C945   C     0.16651   0.83333   0.66339   0.00000  Uiso   1.00
C946   C     0.16682   0.83333   0.83661   0.00000  Uiso   1.00
C947   C     0.16702   0.87415   0.90757   0.00000  Uiso   1.00
C948   C     0.16632   0.79251   0.59243   0.00000  Uiso   1.00
C949   C     0.16695   0.83333   0.88463   0.00000  Uiso   1.00
C950   C     0.16638   0.83333   0.61537   0.00000  Uiso   1.00
C951   C     0.16693   0.79251   0.90757   0.00000  Uiso   1.00
C952   C     0.16640   0.87416   0.59243   0.00000  Uiso   1.00
C953   C     0.16681   0.79221   0.95365   0.00000  Uiso   1.00
C954   C     0.16652   0.87446   0.54635   0.00000  Uiso   1.00
C955   C     0.16676   0.83333   0.97682   0.00000  Uiso   1.00
C956   C     0.16657   0.83333   0.52318   0.00000  Uiso   1.00
C957   C     0.16690   0.87446   0.95365   0.00000  Uiso   1.00
C958   C     0.16644   0.79221   0.54635   0.00000  Uiso   1.00
C959   C     0.16668   0.75151   0.97686   0.00000  Uiso   1.00
C960   C     0.16666   0.91516   0.52314   0.00000  Uiso   1.00
H961   H     0.16710   0.90573   0.88968   0.00000  Uiso   1.00
H962   H     0.16623   0.76094   0.61032   0.00000  Uiso   1.00
H963   H     0.16695   0.76094   0.88967   0.00000  Uiso   1.00
H964   H     0.16639   0.90573   0.61033   0.00000  Uiso   1.00
H965   H     0.16638   0.71980   0.54074   0.00000  Uiso   1.00
H966   H     0.16695   0.94686   0.95926   0.00000  Uiso   1.00
H967   H     0.03704   0.76132   0.73983   0.00000  Uiso   1.00
H968   H     0.29630   0.90535   0.76017   0.00000  Uiso   1.00
H969   H     0.29549   0.76130   0.74004   0.00000  Uiso   1.00
H970   H     0.03784   0.90537   0.75995   0.00000  Uiso   1.00
N971   N     0.16667   0.95240   0.75000   0.00000  Uiso   1.00
N972   N     0.16667   0.71427   0.75000   0.00000  Uiso   1.00
O973   O     0.10559   0.87154   0.74999   0.00000  Uiso   1.00
O974   O     0.22774   0.79513   0.75000   0.00000  Uiso   1.00
O975   O     0.22774   0.87154   0.75000   0.00000  Uiso   1.00
O976   O     0.10559   0.79513   0.74999   0.00000  Uiso   1.00
O977   O     0.16666   0.87156   0.68392   0.00000  Uiso   1.00
O978   O     0.16667   0.79511   0.81607   0.00000  Uiso   1.00
O979   O     0.16667   0.87156   0.81607   0.00000  Uiso   1.00
O980   O     0.16666   0.79511   0.68392   0.00000  Uiso   1.00
Zn981  Zn    0.16667   0.88437   0.75000   0.00000  Uiso   1.00
Zn982  Zn    0.16667   0.78229   0.75000   0.00000  Uiso   1.00
H983   H     0.16671   0.71980   0.95925   0.00000  Uiso   1.00
H984   H     0.16662   0.94686   0.54075   0.00000  Uiso   1.00
O985   O     0.22606   0.71107   0.80136   0.00000  Uiso   1.00
H986   H     0.21794   0.74236   0.80556   0.00000  Uiso   1.00
O987   O     0.10728   0.95560   0.69864   0.00000  Uiso   1.00
H988   H     0.11540   0.92430   0.69444   0.00000  Uiso   1.00
O989   O     0.10732   0.71104   0.69857   0.00000  Uiso   1.00
H990   H     0.11541   0.74236   0.69444   0.00000  Uiso   1.00
O991   O     0.22601   0.95563   0.80143   0.00000  Uiso   1.00
H992   H     0.21793   0.92431   0.80556   0.00000  Uiso   1.00
C993   C     0.42006   0.83333   0.74988   0.00000  Uiso   1.00
C994   C     0.57994   0.83333   0.75012   0.00000  Uiso   1.00
C995   C     0.49982   0.75151   0.52313   0.00000  Uiso   1.00
C996   C     0.50018   0.91516   0.97686   0.00000  Uiso   1.00
C997   C     0.35441   0.79285   0.74438   0.00000  Uiso   1.00
C998   C     0.64559   0.87381   0.75561   0.00000  Uiso   1.00
C999   C     0.64515   0.79285   0.74452   0.00000  Uiso   1.00
C1000  C     0.35485   0.87382   0.75548   0.00000  Uiso   1.00
C1001  C     0.62415   0.83333   0.75011   0.00000  Uiso   1.00
C1002  C     0.37585   0.83334   0.74989   0.00000  Uiso   1.00
C1003  C     0.52921   0.69035   0.77494   0.00000  Uiso   1.00
C1004  C     0.47079   0.97632   0.72506   0.00000  Uiso   1.00
C1005  C     0.47080   0.69033   0.72505   0.00000  Uiso   1.00
C1006  C     0.52920   0.97633   0.77495   0.00000  Uiso   1.00
C1007  C     0.49985   0.83333   0.66339   0.00000  Uiso   1.00
C1008  C     0.50015   0.83333   0.83661   0.00000  Uiso   1.00
C1009  C     0.50035   0.87415   0.90757   0.00000  Uiso   1.00
C1010  C     0.49965   0.79251   0.59243   0.00000  Uiso   1.00
C1011  C     0.50028   0.83333   0.88463   0.00000  Uiso   1.00
C1012  C     0.49972   0.83333   0.61537   0.00000  Uiso   1.00
C1013  C     0.50026   0.79251   0.90757   0.00000  Uiso   1.00
C1014  C     0.49974   0.87416   0.59243   0.00000  Uiso   1.00
C1015  C     0.50014   0.79221   0.95365   0.00000  Uiso   1.00
C1016  C     0.49986   0.87446   0.54635   0.00000  Uiso   1.00
C1017  C     0.50009   0.83333   0.97682   0.00000  Uiso   1.00
C1018  C     0.49991   0.83333   0.52318   0.00000  Uiso   1.00
C1019  C     0.50023   0.87446   0.95365   0.00000  Uiso   1.00
C1020  C     0.49977   0.79221   0.54635   0.00000  Uiso   1.00
C1021  C     0.50001   0.75151   0.97686   0.00000  Uiso   1.00
C1022  C     0.49999   0.91516   0.52314   0.00000  Uiso   1.00
H1023  H     0.50044   0.90573   0.88968   0.00000  Uiso   1.00
H1024  H     0.49956   0.76094   0.61032   0.00000  Uiso   1.00
H1025  H     0.50028   0.76094   0.88967   0.00000  Uiso   1.00
H1026  H     0.49972   0.90573   0.61033   0.00000  Uiso   1.00
H1027  H     0.49972   0.71980   0.54074   0.00000  Uiso   1.00
H1028  H     0.50028   0.94686   0.95926   0.00000  Uiso   1.00
H1029  H     0.37037   0.76132   0.73983   0.00000  Uiso   1.00
H1030  H     0.62963   0.90535   0.76017   0.00000  Uiso   1.00
H1031  H     0.62882   0.76130   0.74004   0.00000  Uiso   1.00
H1032  H     0.37118   0.90537   0.75995   0.00000  Uiso   1.00
N1033  N     0.50000   0.95240   0.75000   0.00000  Uiso   1.00
N1034  N     0.50000   0.71427   0.75000   0.00000  Uiso   1.00
O1035  O     0.43892   0.87154   0.74999   0.00000  Uiso   1.00
O1036  O     0.56108   0.79513   0.75000   0.00000  Uiso   1.00
O1037  O     0.56108   0.87154   0.75000   0.00000  Uiso   1.00
O1038  O     0.43892   0.79513   0.74999   0.00000  Uiso   1.00
O1039  O     0.49999   0.87156   0.68392   0.00000  Uiso   1.00
O1040  O     0.50001   0.79511   0.81607   0.00000  Uiso   1.00
O1041  O     0.50001   0.87156   0.81607   0.00000  Uiso   1.00
O1042  O     0.49999   0.79511   0.68392   0.00000  Uiso   1.00
Zn1043 Zn    0.50000   0.88437   0.75000   0.00000  Uiso   1.00
Zn1044 Zn    0.50000   0.78229   0.75000   0.00000  Uiso   1.00
H1045  H     0.50004   0.71980   0.95925   0.00000  Uiso   1.00
H1046  H     0.49996   0.94686   0.54075   0.00000  Uiso   1.00
O1047  O     0.55939   0.71107   0.80136   0.00000  Uiso   1.00
H1048  H     0.55127   0.74236   0.80556   0.00000  Uiso   1.00
O1049  O     0.44061   0.95560   0.69864   0.00000  Uiso   1.00
H1050  H     0.44873   0.92430   0.69444   0.00000  Uiso   1.00
O1051  O     0.44066   0.71104   0.69857   0.00000  Uiso   1.00
H1052  H     0.44874   0.74236   0.69444   0.00000  Uiso   1.00
O1053  O     0.55934   0.95563   0.80143   0.00000  Uiso   1.00
H1054  H     0.55126   0.92431   0.80556   0.00000  Uiso   1.00
C1055  C     0.75339   0.83333   0.74988   0.00000  Uiso   1.00
C1056  C     0.91327   0.83333   0.75012   0.00000  Uiso   1.00
C1057  C     0.83315   0.75151   0.52313   0.00000  Uiso   1.00
C1058  C     0.83352   0.91516   0.97686   0.00000  Uiso   1.00
C1059  C     0.68774   0.79285   0.74438   0.00000  Uiso   1.00
C1060  C     0.97893   0.87381   0.75561   0.00000  Uiso   1.00
C1061  C     0.97848   0.79285   0.74452   0.00000  Uiso   1.00
C1062  C     0.68818   0.87382   0.75548   0.00000  Uiso   1.00
C1063  C     0.95749   0.83333   0.75011   0.00000  Uiso   1.00
C1064  C     0.70918   0.83334   0.74989   0.00000  Uiso   1.00
C1065  C     0.86254   0.69035   0.77494   0.00000  Uiso   1.00
C1066  C     0.80412   0.97632   0.72506   0.00000  Uiso   1.00
C1067  C     0.80413   0.69033   0.72505   0.00000  Uiso   1.00
C1068  C     0.86254   0.97633   0.77495   0.00000  Uiso   1.00
C1069  C     0.83318   0.83333   0.66339   0.00000  Uiso   1.00
C1070  C     0.83348   0.83333   0.83661   0.00000  Uiso   1.00
C1071  C     0.83368   0.87415   0.90757   0.00000  Uiso   1.00
C1072  C     0.83298   0.79251   0.59243   0.00000  Uiso   1.00
C1073  C     0.83362   0.83333   0.88463   0.00000  Uiso   1.00
C1074  C     0.83305   0.83333   0.61537   0.00000  Uiso   1.00
C1075  C     0.83360   0.79251   0.90757   0.00000  Uiso   1.00
C1076  C     0.83307   0.87416   0.59243   0.00000  Uiso   1.00
C1077  C     0.83347   0.79221   0.95365   0.00000  Uiso   1.00
C1078  C     0.83319   0.87446   0.54635   0.00000  Uiso   1.00
C1079  C     0.83343   0.83333   0.97682   0.00000  Uiso   1.00
C1080  C     0.83324   0.83333   0.52318   0.00000  Uiso   1.00
C1081  C     0.83356   0.87446   0.95365   0.00000  Uiso   1.00
C1082  C     0.83310   0.79221   0.54635   0.00000  Uiso   1.00
C1083  C     0.83334   0.75151   0.97686   0.00000  Uiso   1.00
C1084  C     0.83332   0.91516   0.52314   0.00000  Uiso   1.00
H1085  H     0.83377   0.90573   0.88968   0.00000  Uiso   1.00
H1086  H     0.83290   0.76094   0.61032   0.00000  Uiso   1.00
H1087  H     0.83361   0.76094   0.88967   0.00000  Uiso   1.00
H1088  H     0.83305   0.90573   0.61033   0.00000  Uiso   1.00
H1089  H     0.83305   0.71980   0.54074   0.00000  Uiso   1.00
H1090  H     0.83362   0.94686   0.95926   0.00000  Uiso   1.00
H1091  H     0.70370   0.76132   0.73983   0.00000  Uiso   1.00
H1092  H     0.96296   0.90535   0.76017   0.00000  Uiso   1.00
H1093  H     0.96216   0.76130   0.74004   0.00000  Uiso   1.00
H1094  H     0.70451   0.90537   0.75995   0.00000  Uiso   1.00
N1095  N     0.83333   0.95240   0.75000   0.00000  Uiso   1.00
N1096  N     0.83333   0.71427   0.75000   0.00000  Uiso   1.00
O1097  O     0.77226   0.87154   0.74999   0.00000  Uiso   1.00
O1098  O     0.89441   0.79513   0.75000   0.00000  Uiso   1.00
O1099  O     0.89441   0.87154   0.75000   0.00000  Uiso   1.00
O1100  O     0.77226   0.79513   0.74999   0.00000  Uiso   1.00
O1101  O     0.83333   0.87156   0.68392   0.00000  Uiso   1.00
O1102  O     0.83334   0.79511   0.81607   0.00000  Uiso   1.00
O1103  O     0.83334   0.87156   0.81607   0.00000  Uiso   1.00
O1104  O     0.83333   0.79511   0.68392   0.00000  Uiso   1.00
Zn1105 Zn    0.83333   0.88437   0.75000   0.00000  Uiso   1.00
Zn1106 Zn    0.83333   0.78229   0.75000   0.00000  Uiso   1.00
H1107  H     0.83338   0.71980   0.95925   0.00000  Uiso   1.00
H1108  H     0.83329   0.94686   0.54075   0.00000  Uiso   1.00
O1109  O     0.89272   0.71107   0.80136   0.00000  Uiso   1.00
H1110  H     0.88460   0.74236   0.80556   0.00000  Uiso   1.00
O1111  O     0.77394   0.95560   0.69864   0.00000  Uiso   1.00
H1112  H     0.78206   0.92430   0.69444   0.00000  Uiso   1.00
O1113  O     0.77399   0.71104   0.69857   0.00000  Uiso   1.00
H1114  H     0.78207   0.74236   0.69444   0.00000  Uiso   1.00
O1115  O     0.89268   0.95563   0.80143   0.00000  Uiso   1.00
H1116  H     0.88459   0.92431   0.80556   0.00000  Uiso   1.00
loop_
_geom_bond_atom_site_label_1
_geom_bond_atom_site_label_2
_geom_bond_distance
_geom_bond_site_symmetry_2
_ccdc_geom_bond_type
C1     O46     1.292   .     A
C1     O43     1.291   .     A
C1     C10     1.422   .     S
C2     C9      1.422   .     S
C2     O45     1.292   .     A
C2     O44     1.291   .     A
C3     H35     1.084   .     S
C3     C28     1.400   .     A
C3     C587    1.390   1_554 S
C4     H36     1.084   .     S
C4     C27     1.400   .     A
C4     C588    1.390   .     S
C5     H37     1.083   .     S
C5     C10     1.398   .     A
C5     C131    1.370   1_455 S
C6     C9      1.398   .     A
C6     H38     1.083   .     S
C6     C70     1.370   .     S
C7     C9      1.398   .     A
C7     H39     1.084   .     S
C7     C67     1.370   .     S
C8     C10     1.398   .     A
C8     H40     1.084   .     S
C8     C130    1.370   1_455 S
C11    O55     1.376   .     S
C11    N42     1.377   .     A
C11    C386    1.413   1_545 S
C12    N41     1.377   .     A
C12    O57     1.376   .     S
C12    C199    1.413   .     S
C13    O59     1.376   .     S
C13    N42     1.377   .     A
C13    C384    1.413   1_545 S
C14    N41     1.377   .     A
C14    O61     1.376   .     S
C14    C197    1.413   .     S
C15    O47     1.297   .     A
C15    C20     1.441   .     S
C15    O50     1.297   .     A
C16    O48     1.297   .     A
C16    O49     1.297   .     A
C16    C19     1.441   .     S
C17    H31     1.085   .     S
C17    C19     1.399   .     A
C17    C27     1.384   .     A
C18    C28     1.384   .     A
C18    H32     1.085   .     S
C18    C20     1.399   .     A
C19    C21     1.399   .     A
C20    C22     1.399   .     A
C21    H33     1.085   .     S
C21    C23     1.384   .     A
C22    H34     1.085   .     S
C22    C24     1.384   .     A
C23    C29     1.400   .     A
C23    C25     1.411   .     A
C24    C26     1.411   .     A
C24    C30     1.400   .     A
C25    C27     1.411   .     A
C25    C584    1.392   .     S
C26    C28     1.411   .     A
C26    C583    1.392   1_554 S
C29    H53     1.084   .     S
C29    C561    1.390   .     S
C30    H54     1.084   .     S
C30    C562    1.390   1_554 S
N41    Zn51    2.030   .     S
N42    Zn52    2.030   .     S
O43    Zn51    2.002   .     S
O44    Zn52    2.002   .     S
O45    Zn51    2.002   .     S
O46    Zn52    2.002   .     S
O47    Zn51    2.020   .     S
O48    Zn52    2.020   .     S
O49    Zn51    2.020   .     S
O50    Zn52    2.020   .     S
O55    H56     0.979   .     S
O57    H58     0.979   .     S
O59    H60     0.979   .     S
O61    H62     0.979   .     S
C63    O108    1.292   .     A
C63    O105    1.291   .     A
C63    C72     1.422   .     S
C64    C71     1.422   .     S
C64    O107    1.292   .     A
C64    O106    1.291   .     A
C65    H97     1.084   .     S
C65    C90     1.400   .     A
C65    C649    1.390   1_554 S
C66    H98     1.084   .     S
C66    C89     1.400   .     A
C66    C650    1.390   .     S
C67    H99     1.083   .     S
C67    C72     1.398   .     A
C68    C71     1.398   .     A
C68    H100    1.083   .     S
C68    C132    1.370   .     S
C69    C71     1.398   .     A
C69    H101    1.084   .     S
C69    C129    1.370   .     S
C70    C72     1.398   .     A
C70    H102    1.084   .     S
C73    O117    1.376   .     S
C73    N104    1.377   .     A
C73    C448    1.413   1_545 S
C74    N103    1.377   .     A
C74    O119    1.376   .     S
C74    C261    1.413   .     S
C75    O121    1.376   .     S
C75    N104    1.377   .     A
C75    C446    1.413   1_545 S
C76    N103    1.377   .     A
C76    O123    1.376   .     S
C76    C259    1.413   .     S
C77    O109    1.297   .     A
C77    C82     1.441   .     S
C77    O112    1.297   .     A
C78    O110    1.297   .     A
C78    O111    1.297   .     A
C78    C81     1.441   .     S
C79    H93     1.085   .     S
C79    C81     1.399   .     A
C79    C89     1.384   .     A
C80    C90     1.384   .     A
C80    H94     1.085   .     S
C80    C82     1.399   .     A
C81    C83     1.399   .     A
C82    C84     1.399   .     A
C83    H95     1.085   .     S
C83    C85     1.384   .     A
C84    H96     1.085   .     S
C84    C86     1.384   .     A
C85    C91     1.400   .     A
C85    C87     1.411   .     A
C86    C88     1.411   .     A
C86    C92     1.400   .     A
C87    C89     1.411   .     A
C87    C646    1.392   .     S
C88    C90     1.411   .     A
C88    C645    1.392   1_554 S
C91    H115    1.084   .     S
C91    C623    1.390   .     S
C92    H116    1.084   .     S
C92    C624    1.390   1_554 S
N103   Zn113   2.030   .     S
N104   Zn114   2.030   .     S
O105   Zn113   2.002   .     S
O106   Zn114   2.002   .     S
O107   Zn113   2.002   .     S
O108   Zn114   2.002   .     S
O109   Zn113   2.020   .     S
O110   Zn114   2.020   .     S
O111   Zn113   2.020   .     S
O112   Zn114   2.020   .     S
O117   H118    0.979   .     S
O119   H120    0.979   .     S
O121   H122    0.979   .     S
O123   H124    0.979   .     S
C125   O170    1.292   .     A
C125   O167    1.291   .     A
C125   C134    1.422   .     S
C126   C133    1.422   .     S
C126   O169    1.292   .     A
C126   O168    1.291   .     A
C127   H159    1.084   .     S
C127   C152    1.400   .     A
C127   C711    1.390   1_554 S
C128   H160    1.084   .     S
C128   C151    1.400   .     A
C128   C712    1.390   .     S
C129   H161    1.083   .     S
C129   C134    1.398   .     A
C130   C133    1.398   .     A
C130   H162    1.083   .     S
C130   C8      1.370   1_655 S
C131   C133    1.398   .     A
C131   H163    1.084   .     S
C131   C5      1.370   1_655 S
C132   C134    1.398   .     A
C132   H164    1.084   .     S
C135   O179    1.376   .     S
C135   N166    1.377   .     A
C135   C510    1.413   1_545 S
C136   N165    1.377   .     A
C136   O181    1.376   .     S
C136   C323    1.413   .     S
C137   O183    1.376   .     S
C137   N166    1.377   .     A
C137   C508    1.413   1_545 S
C138   N165    1.377   .     A
C138   O185    1.376   .     S
C138   C321    1.413   .     S
C139   O171    1.297   .     A
C139   C144    1.441   .     S
C139   O174    1.297   .     A
C140   O172    1.297   .     A
C140   O173    1.297   .     A
C140   C143    1.441   .     S
C141   H155    1.085   .     S
C141   C143    1.399   .     A
C141   C151    1.384   .     A
C142   C152    1.384   .     A
C142   H156    1.085   .     S
C142   C144    1.399   .     A
C143   C145    1.399   .     A
C144   C146    1.399   .     A
C145   H157    1.085   .     S
C145   C147    1.384   .     A
C146   H158    1.085   .     S
C146   C148    1.384   .     A
C147   C153    1.400   .     A
C147   C149    1.411   .     A
C148   C150    1.411   .     A
C148   C154    1.400   .     A
C149   C151    1.411   .     A
C149   C708    1.392   .     S
C150   C152    1.411   .     A
C150   C707    1.392   1_554 S
C153   H177    1.084   .     S
C153   C685    1.390   .     S
C154   H178    1.084   .     S
C154   C686    1.390   1_554 S
N165   Zn175   2.030   .     S
N166   Zn176   2.030   .     S
O167   Zn175   2.002   .     S
O168   Zn176   2.002   .     S
O169   Zn175   2.002   .     S
O170   Zn176   2.002   .     S
O171   Zn175   2.020   .     S
O172   Zn176   2.020   .     S
O173   Zn175   2.020   .     S
O174   Zn176   2.020   .     S
O179   H180    0.979   .     S
O181   H182    0.979   .     S
O183   H184    0.979   .     S
O185   H186    0.979   .     S
C187   O232    1.292   .     A
C187   O229    1.291   .     A
C187   C196    1.422   .     S
C188   C195    1.422   .     S
C188   O231    1.292   .     A
C188   O230    1.291   .     A
C189   H221    1.084   .     S
C189   C214    1.400   .     A
C189   C773    1.390   1_554 S
C190   H222    1.084   .     S
C190   C213    1.400   .     A
C190   C774    1.390   .     S
C191   H223    1.083   .     S
C191   C196    1.398   .     A
C191   C317    1.370   1_455 S
C192   C195    1.398   .     A
C192   H224    1.083   .     S
C192   C256    1.370   .     S
C193   C195    1.398   .     A
C193   H225    1.084   .     S
C193   C253    1.370   .     S
C194   C196    1.398   .     A
C194   H226    1.084   .     S
C194   C316    1.370   1_455 S
C197   O241    1.376   .     S
C197   N228    1.377   .     A
C198   N227    1.377   .     A
C198   O243    1.376   .     S
C198   C385    1.413   .     S
C199   O245    1.376   .     S
C199   N228    1.377   .     A
C200   N227    1.377   .     A
C200   O247    1.376   .     S
C200   C383    1.413   .     S
C201   O233    1.297   .     A
C201   C206    1.441   .     S
C201   O236    1.297   .     A
C202   O234    1.297   .     A
C202   O235    1.297   .     A
C202   C205    1.441   .     S
C203   H217    1.085   .     S
C203   C205    1.399   .     A
C203   C213    1.384   .     A
C204   C214    1.384   .     A
C204   H218    1.085   .     S
C204   C206    1.399   .     A
C205   C207    1.399   .     A
C206   C208    1.399   .     A
C207   H219    1.085   .     S
C207   C209    1.384   .     A
C208   H220    1.085   .     S
C208   C210    1.384   .     A
C209   C215    1.400   .     A
C209   C211    1.411   .     A
C210   C212    1.411   .     A
C210   C216    1.400   .     A
C211   C213    1.411   .     A
C211   C770    1.392   .     S
C212   C214    1.411   .     A
C212   C769    1.392   1_554 S
C215   H239    1.084   .     S
C215   C747    1.390   .     S
C216   H240    1.084   .     S
C216   C748    1.390   1_554 S
N227   Zn237   2.030   .     S
N228   Zn238   2.030   .     S
O229   Zn237   2.002   .     S
O230   Zn238   2.002   .     S
O231   Zn237   2.002   .     S
O232   Zn238   2.002   .     S
O233   Zn237   2.020   .     S
O234   Zn238   2.020   .     S
O235   Zn237   2.020   .     S
O236   Zn238   2.020   .     S
O241   H242    0.979   .     S
O243   H244    0.979   .     S
O245   H246    0.979   .     S
O247   H248    0.979   .     S
C249   O294    1.292   .     A
C249   O291    1.291   .     A
C249   C258    1.422   .     S
C250   C257    1.422   .     S
C250   O293    1.292   .     A
C250   O292    1.291   .     A
C251   H283    1.084   .     S
C251   C276    1.400   .     A
C251   C835    1.390   1_554 S
C252   H284    1.084   .     S
C252   C275    1.400   .     A
C252   C836    1.390   .     S
C253   H285    1.083   .     S
C253   C258    1.398   .     A
C254   C257    1.398   .     A
C254   H286    1.083   .     S
C254   C318    1.370   .     S
C255   C257    1.398   .     A
C255   H287    1.084   .     S
C255   C315    1.370   .     S
C256   C258    1.398   .     A
C256   H288    1.084   .     S
C259   O303    1.376   .     S
C259   N290    1.377   .     A
C260   N289    1.377   .     A
C260   O305    1.376   .     S
C260   C447    1.413   .     S
C261   O307    1.376   .     S
C261   N290    1.377   .     A
C262   N289    1.377   .     A
C262   O309    1.376   .     S
C262   C445    1.413   .     S
C263   O295    1.297   .     A
C263   C268    1.441   .     S
C263   O298    1.297   .     A
C264   O296    1.297   .     A
C264   O297    1.297   .     A
C264   C267    1.441   .     S
C265   H279    1.085   .     S
C265   C267    1.399   .     A
C265   C275    1.384   .     A
C266   C276    1.384   .     A
C266   H280    1.085   .     S
C266   C268    1.399   .     A
C267   C269    1.399   .     A
C268   C270    1.399   .     A
C269   H281    1.085   .     S
C269   C271    1.384   .     A
C270   H282    1.085   .     S
C270   C272    1.384   .     A
C271   C277    1.400   .     A
C271   C273    1.411   .     A
C272   C274    1.411   .     A
C272   C278    1.400   .     A
C273   C275    1.411   .     A
C273   C832    1.392   .     S
C274   C276    1.411   .     A
C274   C831    1.392   1_554 S
C277   H301    1.084   .     S
C277   C809    1.390   .     S
C278   H302    1.084   .     S
C278   C810    1.390   1_554 S
N289   Zn299   2.030   .     S
N290   Zn300   2.030   .     S
O291   Zn299   2.002   .     S
O292   Zn300   2.002   .     S
O293   Zn299   2.002   .     S
O294   Zn300   2.002   .     S
O295   Zn299   2.020   .     S
O296   Zn300   2.020   .     S
O297   Zn299   2.020   .     S
O298   Zn300   2.020   .     S
O303   H304    0.979   .     S
O305   H306    0.979   .     S
O307   H308    0.979   .     S
O309   H310    0.979   .     S
C311   O356    1.292   .     A
C311   O353    1.291   .     A
C311   C320    1.422   .     S
C312   C319    1.422   .     S
C312   O355    1.292   .     A
C312   O354    1.291   .     A
C313   H345    1.084   .     S
C313   C338    1.400   .     A
C313   C897    1.390   1_554 S
C314   H346    1.084   .     S
C314   C337    1.400   .     A
C314   C898    1.390   .     S
C315   H347    1.083   .     S
C315   C320    1.398   .     A
C316   C319    1.398   .     A
C316   H348    1.083   .     S
C316   C194    1.370   1_655 S
C317   C319    1.398   .     A
C317   H349    1.084   .     S
C317   C191    1.370   1_655 S
C318   C320    1.398   .     A
C318   H350    1.084   .     S
C321   O365    1.376   .     S
C321   N352    1.377   .     A
C322   N351    1.377   .     A
C322   O367    1.376   .     S
C322   C509    1.413   .     S
C323   O369    1.376   .     S
C323   N352    1.377   .     A
C324   N351    1.377   .     A
C324   O371    1.376   .     S
C324   C507    1.413   .     S
C325   O357    1.297   .     A
C325   C330    1.441   .     S
C325   O360    1.297   .     A
C326   O358    1.297   .     A
C326   O359    1.297   .     A
C326   C329    1.441   .     S
C327   H341    1.085   .     S
C327   C329    1.399   .     A
C327   C337    1.384   .     A
C328   C338    1.384   .     A
C328   H342    1.085   .     S
C328   C330    1.399   .     A
C329   C331    1.399   .     A
C330   C332    1.399   .     A
C331   H343    1.085   .     S
C331   C333    1.384   .     A
C332   H344    1.085   .     S
C332   C334    1.384   .     A
C333   C339    1.400   .     A
C333   C335    1.411   .     A
C334   C336    1.411   .     A
C334   C340    1.400   .     A
C335   C337    1.411   .     A
C335   C894    1.392   .     S
C336   C338    1.411   .     A
C336   C893    1.392   1_554 S
C339   H363    1.084   .     S
C339   C871    1.390   .     S
C340   H364    1.084   .     S
C340   C872    1.390   1_554 S
N351   Zn361   2.030   .     S
N352   Zn362   2.030   .     S
O353   Zn361   2.002   .     S
O354   Zn362   2.002   .     S
O355   Zn361   2.002   .     S
O356   Zn362   2.002   .     S
O357   Zn361   2.020   .     S
O358   Zn362   2.020   .     S
O359   Zn361   2.020   .     S
O360   Zn362   2.020   .     S
O365   H366    0.979   .     S
O367   H368    0.979   .     S
O369   H370    0.979   .     S
O371   H372    0.979   .     S
C373   O418    1.292   .     A
C373   O415    1.291   .     A
C373   C382    1.422   .     S
C374   C381    1.422   .     S
C374   O417    1.292   .     A
C374   O416    1.291   .     A
C375   H407    1.084   .     S
C375   C400    1.400   .     A
C375   C959    1.390   1_554 S
C376   H408    1.084   .     S
C376   C399    1.400   .     A
C376   C960    1.390   .     S
C377   H409    1.083   .     S
C377   C382    1.398   .     A
C377   C503    1.370   1_455 S
C378   C381    1.398   .     A
C378   H410    1.083   .     S
C378   C442    1.370   .     S
C379   C381    1.398   .     A
C379   H411    1.084   .     S
C379   C439    1.370   .     S
C380   C382    1.398   .     A
C380   H412    1.084   .     S
C380   C502    1.370   1_455 S
C383   O427    1.376   .     S
C383   N414    1.377   .     A
C384   N413    1.377   .     A
C384   O429    1.376   .     S
C384   C13     1.413   1_565 S
C385   O431    1.376   .     S
C385   N414    1.377   .     A
C386   N413    1.377   .     A
C386   O433    1.376   .     S
C386   C11     1.413   1_565 S
C387   O419    1.297   .     A
C387   C392    1.441   .     S
C387   O422    1.297   .     A
C388   O420    1.297   .     A
C388   O421    1.297   .     A
C388   C391    1.441   .     S
C389   H403    1.085   .     S
C389   C391    1.399   .     A
C389   C399    1.384   .     A
C390   C400    1.384   .     A
C390   H404    1.085   .     S
C390   C392    1.399   .     A
C391   C393    1.399   .     A
C392   C394    1.399   .     A
C393   H405    1.085   .     S
C393   C395    1.384   .     A
C394   H406    1.085   .     S
C394   C396    1.384   .     A
C395   C401    1.400   .     A
C395   C397    1.411   .     A
C396   C398    1.411   .     A
C396   C402    1.400   .     A
C397   C399    1.411   .     A
C397   C956    1.392   .     S
C398   C400    1.411   .     A
C398   C955    1.392   1_554 S
C401   H425    1.084   .     S
C401   C933    1.390   .     S
C402   H426    1.084   .     S
C402   C934    1.390   1_554 S
N413   Zn423   2.030   .     S
N414   Zn424   2.030   .     S
O415   Zn423   2.002   .     S
O416   Zn424   2.002   .     S
O417   Zn423   2.002   .     S
O418   Zn424   2.002   .     S
O419   Zn423   2.020   .     S
O420   Zn424   2.020   .     S
O421   Zn423   2.020   .     S
O422   Zn424   2.020   .     S
O427   H428    0.979   .     S
O429   H430    0.979   .     S
O431   H432    0.979   .     S
O433   H434    0.979   .     S
C435   O480    1.292   .     A
C435   O477    1.291   .     A
C435   C444    1.422   .     S
C436   C443    1.422   .     S
C436   O479    1.292   .     A
C436   O478    1.291   .     A
C437   H469    1.084   .     S
C437   C462    1.400   .     A
C437   C1021   1.390   1_554 S
C438   H470    1.084   .     S
C438   C461    1.400   .     A
C438   C1022   1.390   .     S
C439   H471    1.083   .     S
C439   C444    1.398   .     A
C440   C443    1.398   .     A
C440   H472    1.083   .     S
C440   C504    1.370   .     S
C441   C443    1.398   .     A
C441   H473    1.084   .     S
C441   C501    1.370   .     S
C442   C444    1.398   .     A
C442   H474    1.084   .     S
C445   O489    1.376   .     S
C445   N476    1.377   .     A
C446   N475    1.377   .     A
C446   O491    1.376   .     S
C446   C75     1.413   1_565 S
C447   O493    1.376   .     S
C447   N476    1.377   .     A
C448   N475    1.377   .     A
C448   O495    1.376   .     S
C448   C73     1.413   1_565 S
C449   O481    1.297   .     A
C449   C454    1.441   .     S
C449   O484    1.297   .     A
C450   O482    1.297   .     A
C450   O483    1.297   .     A
C450   C453    1.441   .     S
C451   H465    1.085   .     S
C451   C453    1.399   .     A
C451   C461    1.384   .     A
C452   C462    1.384   .     A
C452   H466    1.085   .     S
C452   C454    1.399   .     A
C453   C455    1.399   .     A
C454   C456    1.399   .     A
C455   H467    1.085   .     S
C455   C457    1.384   .     A
C456   H468    1.085   .     S
C456   C458    1.384   .     A
C457   C463    1.400   .     A
C457   C459    1.411   .     A
C458   C460    1.411   .     A
C458   C464    1.400   .     A
C459   C461    1.411   .     A
C459   C1018   1.392   .     S
C460   C462    1.411   .     A
C460   C1017   1.392   1_554 S
C463   H487    1.084   .     S
C463   C995    1.390   .     S
C464   H488    1.084   .     S
C464   C996    1.390   1_554 S
N475   Zn485   2.030   .     S
N476   Zn486   2.030   .     S
O477   Zn485   2.002   .     S
O478   Zn486   2.002   .     S
O479   Zn485   2.002   .     S
O480   Zn486   2.002   .     S
O481   Zn485   2.020   .     S
O482   Zn486   2.020   .     S
O483   Zn485   2.020   .     S
O484   Zn486   2.020   .     S
O489   H490    0.979   .     S
O491   H492    0.979   .     S
O493   H494    0.979   .     S
O495   H496    0.979   .     S
C497   O542    1.292   .     A
C497   O539    1.291   .     A
C497   C506    1.422   .     S
C498   C505    1.422   .     S
C498   O541    1.292   .     A
C498   O540    1.291   .     A
C499   H531    1.084   .     S
C499   C524    1.400   .     A
C499   C1083   1.390   1_554 S
C500   H532    1.084   .     S
C500   C523    1.400   .     A
C500   C1084   1.390   .     S
C501   H533    1.083   .     S
C501   C506    1.398   .     A
C502   C505    1.398   .     A
C502   H534    1.083   .     S
C502   C380    1.370   1_655 S
C503   C505    1.398   .     A
C503   H535    1.084   .     S
C503   C377    1.370   1_655 S
C504   C506    1.398   .     A
C504   H536    1.084   .     S
C507   O551    1.376   .     S
C507   N538    1.377   .     A
C508   N537    1.377   .     A
C508   O553    1.376   .     S
C508   C137    1.413   1_565 S
C509   O555    1.376   .     S
C509   N538    1.377   .     A
C510   N537    1.377   .     A
C510   O557    1.376   .     S
C510   C135    1.413   1_565 S
C511   O543    1.297   .     A
C511   C516    1.441   .     S
C511   O546    1.297   .     A
C512   O544    1.297   .     A
C512   O545    1.297   .     A
C512   C515    1.441   .     S
C513   H527    1.085   .     S
C513   C515    1.399   .     A
C513   C523    1.384   .     A
C514   C524    1.384   .     A
C514   H528    1.085   .     S
C514   C516    1.399   .     A
C515   C517    1.399   .     A
C516   C518    1.399   .     A
C517   H529    1.085   .     S
C517   C519    1.384   .     A
C518   H530    1.085   .     S
C518   C520    1.384   .     A
C519   C525    1.400   .     A
C519   C521    1.411   .     A
C520   C522    1.411   .     A
C520   C526    1.400   .     A
C521   C523    1.411   .     A
C521   C1080   1.392   .     S
C522   C524    1.411   .     A
C522   C1079   1.392   1_554 S
C525   H549    1.084   .     S
C525   C1057   1.390   .     S
C526   H550    1.084   .     S
C526   C1058   1.390   1_554 S
N537   Zn547   2.030   .     S
N538   Zn548   2.030   .     S
O539   Zn547   2.002   .     S
O540   Zn548   2.002   .     S
O541   Zn547   2.002   .     S
O542   Zn548   2.002   .     S
O543   Zn547   2.020   .     S
O544   Zn548   2.020   .     S
O545   Zn547   2.020   .     S
O546   Zn548   2.020   .     S
O551   H552    0.979   .     S
O553   H554    0.979   .     S
O555   H556    0.979   .     S
O557   H558    0.979   .     S
C559   O604    1.292   .     A
C559   O601    1.291   .     A
C559   C568    1.422   .     S
C560   C567    1.422   .     S
C560   O603    1.292   .     A
C560   O602    1.291   .     A
C561   H593    1.084   .     S
C561   C586    1.400   .     A
C562   H594    1.084   .     S
C562   C585    1.400   .     A
C562   C30     1.390   1_556 S
C563   H595    1.083   .     S
C563   C568    1.398   .     A
C563   C689    1.370   1_455 S
C564   C567    1.398   .     A
C564   H596    1.083   .     S
C564   C628    1.370   .     S
C565   C567    1.398   .     A
C565   H597    1.084   .     S
C565   C625    1.370   .     S
C566   C568    1.398   .     A
C566   H598    1.084   .     S
C566   C688    1.370   1_455 S
C569   O613    1.376   .     S
C569   N600    1.377   .     A
C569   C944    1.413   1_545 S
C570   N599    1.377   .     A
C570   O615    1.376   .     S
C570   C757    1.413   .     S
C571   O617    1.376   .     S
C571   N600    1.377   .     A
C571   C942    1.413   1_545 S
C572   N599    1.377   .     A
C572   O619    1.376   .     S
C572   C755    1.413   .     S
C573   O605    1.297   .     A
C573   C578    1.441   .     S
C573   O608    1.297   .     A
C574   O606    1.297   .     A
C574   O607    1.297   .     A
C574   C577    1.441   .     S
C575   H589    1.085   .     S
C575   C577    1.399   .     A
C575   C585    1.384   .     A
C576   C586    1.384   .     A
C576   H590    1.085   .     S
C576   C578    1.399   .     A
C577   C579    1.399   .     A
C578   C580    1.399   .     A
C579   H591    1.085   .     S
C579   C581    1.384   .     A
C580   H592    1.085   .     S
C580   C582    1.384   .     A
C581   C587    1.400   .     A
C581   C583    1.411   .     A
C582   C584    1.411   .     A
C582   C588    1.400   .     A
C583   C585    1.411   .     A
C583   C26     1.392   1_556 S
C584   C586    1.411   .     A
C587   H611    1.084   .     S
C587   C3      1.390   1_556 S
C588   H612    1.084   .     S
N599   Zn609   2.030   .     S
N600   Zn610   2.030   .     S
O601   Zn609   2.002   .     S
O602   Zn610   2.002   .     S
O603   Zn609   2.002   .     S
O604   Zn610   2.002   .     S
O605   Zn609   2.020   .     S
O606   Zn610   2.020   .     S
O607   Zn609   2.020   .     S
O608   Zn610   2.020   .     S
O613   H614    0.979   .     S
O615   H616    0.979   .     S
O617   H618    0.979   .     S
O619   H620    0.979   .     S
C621   O666    1.292   .     A
C621   O663    1.291   .     A
C621   C630    1.422   .     S
C622   C629    1.422   .     S
C622   O665    1.292   .     A
C622   O664    1.291   .     A
C623   H655    1.084   .     S
C623   C648    1.400   .     A
C624   H656    1.084   .     S
C624   C647    1.400   .     A
C624   C92     1.390   1_556 S
C625   H657    1.083   .     S
C625   C630    1.398   .     A
C626   C629    1.398   .     A
C626   H658    1.083   .     S
C626   C690    1.370   .     S
C627   C629    1.398   .     A
C627   H659    1.084   .     S
C627   C687    1.370   .     S
C628   C630    1.398   .     A
C628   H660    1.084   .     S
C631   O675    1.376   .     S
C631   N662    1.377   .     A
C631   C1006   1.413   1_545 S
C632   N661    1.377   .     A
C632   O677    1.376   .     S
C632   C819    1.413   .     S
C633   O679    1.376   .     S
C633   N662    1.377   .     A
C633   C1004   1.413   1_545 S
C634   N661    1.377   .     A
C634   O681    1.376   .     S
C634   C817    1.413   .     S
C635   O667    1.297   .     A
C635   C640    1.441   .     S
C635   O670    1.297   .     A
C636   O668    1.297   .     A
C636   O669    1.297   .     A
C636   C639    1.441   .     S
C637   H651    1.085   .     S
C637   C639    1.399   .     A
C637   C647    1.384   .     A
C638   C648    1.384   .     A
C638   H652    1.085   .     S
C638   C640    1.399   .     A
C639   C641    1.399   .     A
C640   C642    1.399   .     A
C641   H653    1.085   .     S
C641   C643    1.384   .     A
C642   H654    1.085   .     S
C642   C644    1.384   .     A
C643   C649    1.400   .     A
C643   C645    1.411   .     A
C644   C646    1.411   .     A
C644   C650    1.400   .     A
C645   C647    1.411   .     A
C645   C88     1.392   1_556 S
C646   C648    1.411   .     A
C649   H673    1.084   .     S
C649   C65     1.390   1_556 S
C650   H674    1.084   .     S
N661   Zn671   2.030   .     S
N662   Zn672   2.030   .     S
O663   Zn671   2.002   .     S
O664   Zn672   2.002   .     S
O665   Zn671   2.002   .     S
O666   Zn672   2.002   .     S
O667   Zn671   2.020   .     S
O668   Zn672   2.020   .     S
O669   Zn671   2.020   .     S
O670   Zn672   2.020   .     S
O675   H676    0.979   .     S
O677   H678    0.979   .     S
O679   H680    0.979   .     S
O681   H682    0.979   .     S
C683   O728    1.292   .     A
C683   O725    1.291   .     A
C683   C692    1.422   .     S
C684   C691    1.422   .     S
C684   O727    1.292   .     A
C684   O726    1.291   .     A
C685   H717    1.084   .     S
C685   C710    1.400   .     A
C686   H718    1.084   .     S
C686   C709    1.400   .     A
C686   C154    1.390   1_556 S
C687   H719    1.083   .     S
C687   C692    1.398   .     A
C688   C691    1.398   .     A
C688   H720    1.083   .     S
C688   C566    1.370   1_655 S
C689   C691    1.398   .     A
C689   H721    1.084   .     S
C689   C563    1.370   1_655 S
C690   C692    1.398   .     A
C690   H722    1.084   .     S
C693   O737    1.376   .     S
C693   N724    1.377   .     A
C693   C1068   1.413   1_545 S
C694   N723    1.377   .     A
C694   O739    1.376   .     S
C694   C881    1.413   .     S
C695   O741    1.376   .     S
C695   N724    1.377   .     A
C695   C1066   1.413   1_545 S
C696   N723    1.377   .     A
C696   O743    1.376   .     S
C696   C879    1.413   .     S
C697   O729    1.297   .     A
C697   C702    1.441   .     S
C697   O732    1.297   .     A
C698   O730    1.297   .     A
C698   O731    1.297   .     A
C698   C701    1.441   .     S
C699   H713    1.085   .     S
C699   C701    1.399   .     A
C699   C709    1.384   .     A
C700   C710    1.384   .     A
C700   H714    1.085   .     S
C700   C702    1.399   .     A
C701   C703    1.399   .     A
C702   C704    1.399   .     A
C703   H715    1.085   .     S
C703   C705    1.384   .     A
C704   H716    1.085   .     S
C704   C706    1.384   .     A
C705   C711    1.400   .     A
C705   C707    1.411   .     A
C706   C708    1.411   .     A
C706   C712    1.400   .     A
C707   C709    1.411   .     A
C707   C150    1.392   1_556 S
C708   C710    1.411   .     A
C711   H735    1.084   .     S
C711   C127    1.390   1_556 S
C712   H736    1.084   .     S
N723   Zn733   2.030   .     S
N724   Zn734   2.030   .     S
O725   Zn733   2.002   .     S
O726   Zn734   2.002   .     S
O727   Zn733   2.002   .     S
O728   Zn734   2.002   .     S
O729   Zn733   2.020   .     S
O730   Zn734   2.020   .     S
O731   Zn733   2.020   .     S
O732   Zn734   2.020   .     S
O737   H738    0.979   .     S
O739   H740    0.979   .     S
O741   H742    0.979   .     S
O743   H744    0.979   .     S
C745   O790    1.292   .     A
C745   O787    1.291   .     A
C745   C754    1.422   .     S
C746   C753    1.422   .     S
C746   O789    1.292   .     A
C746   O788    1.291   .     A
C747   H779    1.084   .     S
C747   C772    1.400   .     A
C748   H780    1.084   .     S
C748   C771    1.400   .     A
C748   C216    1.390   1_556 S
C749   H781    1.083   .     S
C749   C754    1.398   .     A
C749   C875    1.370   1_455 S
C750   C753    1.398   .     A
C750   H782    1.083   .     S
C750   C814    1.370   .     S
C751   C753    1.398   .     A
C751   H783    1.084   .     S
C751   C811    1.370   .     S
C752   C754    1.398   .     A
C752   H784    1.084   .     S
C752   C874    1.370   1_455 S
C755   O799    1.376   .     S
C755   N786    1.377   .     A
C756   N785    1.377   .     A
C756   O801    1.376   .     S
C756   C943    1.413   .     S
C757   O803    1.376   .     S
C757   N786    1.377   .     A
C758   N785    1.377   .     A
C758   O805    1.376   .     S
C758   C941    1.413   .     S
C759   O791    1.297   .     A
C759   C764    1.441   .     S
C759   O794    1.297   .     A
C760   O792    1.297   .     A
C760   O793    1.297   .     A
C760   C763    1.441   .     S
C761   H775    1.085   .     S
C761   C763    1.399   .     A
C761   C771    1.384   .     A
C762   C772    1.384   .     A
C762   H776    1.085   .     S
C762   C764    1.399   .     A
C763   C765    1.399   .     A
C764   C766    1.399   .     A
C765   H777    1.085   .     S
C765   C767    1.384   .     A
C766   H778    1.085   .     S
C766   C768    1.384   .     A
C767   C773    1.400   .     A
C767   C769    1.411   .     A
C768   C770    1.411   .     A
C768   C774    1.400   .     A
C769   C771    1.411   .     A
C769   C212    1.392   1_556 S
C770   C772    1.411   .     A
C773   H797    1.084   .     S
C773   C189    1.390   1_556 S
C774   H798    1.084   .     S
N785   Zn795   2.030   .     S
N786   Zn796   2.030   .     S
O787   Zn795   2.002   .     S
O788   Zn796   2.002   .     S
O789   Zn795   2.002   .     S
O790   Zn796   2.002   .     S
O791   Zn795   2.020   .     S
O792   Zn796   2.020   .     S
O793   Zn795   2.020   .     S
O794   Zn796   2.020   .     S
O799   H800    0.979   .     S
O801   H802    0.979   .     S
O803   H804    0.979   .     S
O805   H806    0.979   .     S
C807   O852    1.292   .     A
C807   O849    1.291   .     A
C807   C816    1.422   .     S
C808   C815    1.422   .     S
C808   O851    1.292   .     A
C808   O850    1.291   .     A
C809   H841    1.084   .     S
C809   C834    1.400   .     A
C810   H842    1.084   .     S
C810   C833    1.400   .     A
C810   C278    1.390   1_556 S
C811   H843    1.083   .     S
C811   C816    1.398   .     A
C812   C815    1.398   .     A
C812   H844    1.083   .     S
C812   C876    1.370   .     S
C813   C815    1.398   .     A
C813   H845    1.084   .     S
C813   C873    1.370   .     S
C814   C816    1.398   .     A
C814   H846    1.084   .     S
C817   O861    1.376   .     S
C817   N848    1.377   .     A
C818   N847    1.377   .     A
C818   O863    1.376   .     S
C818   C1005   1.413   .     S
C819   O865    1.376   .     S
C819   N848    1.377   .     A
C820   N847    1.377   .     A
C820   O867    1.376   .     S
C820   C1003   1.413   .     S
C821   O853    1.297   .     A
C821   C826    1.441   .     S
C821   O856    1.297   .     A
C822   O854    1.297   .     A
C822   O855    1.297   .     A
C822   C825    1.441   .     S
C823   H837    1.085   .     S
C823   C825    1.399   .     A
C823   C833    1.384   .     A
C824   C834    1.384   .     A
C824   H838    1.085   .     S
C824   C826    1.399   .     A
C825   C827    1.399   .     A
C826   C828    1.399   .     A
C827   H839    1.085   .     S
C827   C829    1.384   .     A
C828   H840    1.085   .     S
C828   C830    1.384   .     A
C829   C835    1.400   .     A
C829   C831    1.411   .     A
C830   C832    1.411   .     A
C830   C836    1.400   .     A
C831   C833    1.411   .     A
C831   C274    1.392   1_556 S
C832   C834    1.411   .     A
C835   H859    1.084   .     S
C835   C251    1.390   1_556 S
C836   H860    1.084   .     S
N847   Zn857   2.030   .     S
N848   Zn858   2.030   .     S
O849   Zn857   2.002   .     S
O850   Zn858   2.002   .     S
O851   Zn857   2.002   .     S
O852   Zn858   2.002   .     S
O853   Zn857   2.020   .     S
O854   Zn858   2.020   .     S
O855   Zn857   2.020   .     S
O856   Zn858   2.020   .     S
O861   H862    0.979   .     S
O863   H864    0.979   .     S
O865   H866    0.979   .     S
O867   H868    0.979   .     S
C869   O914    1.292   .     A
C869   O911    1.291   .     A
C869   C878    1.422   .     S
C870   C877    1.422   .     S
C870   O913    1.292   .     A
C870   O912    1.291   .     A
C871   H903    1.084   .     S
C871   C896    1.400   .     A
C872   H904    1.084   .     S
C872   C895    1.400   .     A
C872   C340    1.390   1_556 S
C873   H905    1.083   .     S
C873   C878    1.398   .     A
C874   C877    1.398   .     A
C874   H906    1.083   .     S
C874   C752    1.370   1_655 S
C875   C877    1.398   .     A
C875   H907    1.084   .     S
C875   C749    1.370   1_655 S
C876   C878    1.398   .     A
C876   H908    1.084   .     S
C879   O923    1.376   .     S
C879   N910    1.377   .     A
C880   N909    1.377   .     A
C880   O925    1.376   .     S
C880   C1067   1.413   .     S
C881   O927    1.376   .     S
C881   N910    1.377   .     A
C882   N909    1.377   .     A
C882   O929    1.376   .     S
C882   C1065   1.413   .     S
C883   O915    1.297   .     A
C883   C888    1.441   .     S
C883   O918    1.297   .     A
C884   O916    1.297   .     A
C884   O917    1.297   .     A
C884   C887    1.441   .     S
C885   H899    1.085   .     S
C885   C887    1.399   .     A
C885   C895    1.384   .     A
C886   C896    1.384   .     A
C886   H900    1.085   .     S
C886   C888    1.399   .     A
C887   C889    1.399   .     A
C888   C890    1.399   .     A
C889   H901    1.085   .     S
C889   C891    1.384   .     A
C890   H902    1.085   .     S
C890   C892    1.384   .     A
C891   C897    1.400   .     A
C891   C893    1.411   .     A
C892   C894    1.411   .     A
C892   C898    1.400   .     A
C893   C895    1.411   .     A
C893   C336    1.392   1_556 S
C894   C896    1.411   .     A
C897   H921    1.084   .     S
C897   C313    1.390   1_556 S
C898   H922    1.084   .     S
N909   Zn919   2.030   .     S
N910   Zn920   2.030   .     S
O911   Zn919   2.002   .     S
O912   Zn920   2.002   .     S
O913   Zn919   2.002   .     S
O914   Zn920   2.002   .     S
O915   Zn919   2.020   .     S
O916   Zn920   2.020   .     S
O917   Zn919   2.020   .     S
O918   Zn920   2.020   .     S
O923   H924    0.979   .     S
O925   H926    0.979   .     S
O927   H928    0.979   .     S
O929   H930    0.979   .     S
C931   O976    1.292   .     A
C931   O973    1.291   .     A
C931   C940    1.422   .     S
C932   C939    1.422   .     S
C932   O975    1.292   .     A
C932   O974    1.291   .     A
C933   H965    1.084   .     S
C933   C958    1.400   .     A
C934   H966    1.084   .     S
C934   C957    1.400   .     A
C934   C402    1.390   1_556 S
C935   H967    1.083   .     S
C935   C940    1.398   .     A
C935   C1061   1.370   1_455 S
C936   C939    1.398   .     A
C936   H968    1.083   .     S
C936   C1000   1.370   .     S
C937   C939    1.398   .     A
C937   H969    1.084   .     S
C937   C997    1.370   .     S
C938   C940    1.398   .     A
C938   H970    1.084   .     S
C938   C1060   1.370   1_455 S
C941   O985    1.376   .     S
C941   N972    1.377   .     A
C942   N971    1.377   .     A
C942   O987    1.376   .     S
C942   C571    1.413   1_565 S
C943   O989    1.376   .     S
C943   N972    1.377   .     A
C944   N971    1.377   .     A
C944   O991    1.376   .     S
C944   C569    1.413   1_565 S
C945   O977    1.297   .     A
C945   C950    1.441   .     S
C945   O980    1.297   .     A
C946   O978    1.297   .     A
C946   O979    1.297   .     A
C946   C949    1.441   .     S
C947   H961    1.085   .     S
C947   C949    1.399   .     A
C947   C957    1.384   .     A
C948   C958    1.384   .     A
C948   H962    1.085   .     S
C948   C950    1.399   .     A
C949   C951    1.399   .     A
C950   C952    1.399   .     A
C951   H963    1.085   .     S
C951   C953    1.384   .     A
C952   H964    1.085   .     S
C952   C954    1.384   .     A
C953   C959    1.400   .     A
C953   C955    1.411   .     A
C954   C956    1.411   .     A
C954   C960    1.400   .     A
C955   C957    1.411   .     A
C955   C398    1.392   1_556 S
C956   C958    1.411   .     A
C959   H983    1.084   .     S
C959   C375    1.390   1_556 S
C960   H984    1.084   .     S
N971   Zn981   2.030   .     S
N972   Zn982   2.030   .     S
O973   Zn981   2.002   .     S
O974   Zn982   2.002   .     S
O975   Zn981   2.002   .     S
O976   Zn982   2.002   .     S
O977   Zn981   2.020   .     S
O978   Zn982   2.020   .     S
O979   Zn981   2.020   .     S
O980   Zn982   2.020   .     S
O985   H986    0.979   .     S
O987   H988    0.979   .     S
O989   H990    0.979   .     S
O991   H992    0.979   .     S
C993   O1038   1.292   .     A
C993   O1035   1.291   .     A
C993   C1002   1.422   .     S
C994   C1001   1.422   .     S
C994   O1037   1.292   .     A
C994   O1036   1.291   .     A
C995   H1027   1.084   .     S
C995   C1020   1.400   .     A
C996   H1028   1.084   .     S
C996   C1019   1.400   .     A
C996   C464    1.390   1_556 S
C997   H1029   1.083   .     S
C997   C1002   1.398   .     A
C998   C1001   1.398   .     A
C998   H1030   1.083   .     S
C998   C1062   1.370   .     S
C999   C1001   1.398   .     A
C999   H1031   1.084   .     S
C999   C1059   1.370   .     S
C1000  C1002   1.398   .     A
C1000  H1032   1.084   .     S
C1003  O1047   1.376   .     S
C1003  N1034   1.377   .     A
C1004  N1033   1.377   .     A
C1004  O1049   1.376   .     S
C1004  C633    1.413   1_565 S
C1005  O1051   1.376   .     S
C1005  N1034   1.377   .     A
C1006  N1033   1.377   .     A
C1006  O1053   1.376   .     S
C1006  C631    1.413   1_565 S
C1007  O1039   1.297   .     A
C1007  C1012   1.441   .     S
C1007  O1042   1.297   .     A
C1008  O1040   1.297   .     A
C1008  O1041   1.297   .     A
C1008  C1011   1.441   .     S
C1009  H1023   1.085   .     S
C1009  C1011   1.399   .     A
C1009  C1019   1.384   .     A
C1010  C1020   1.384   .     A
C1010  H1024   1.085   .     S
C1010  C1012   1.399   .     A
C1011  C1013   1.399   .     A
C1012  C1014   1.399   .     A
C1013  H1025   1.085   .     S
C1013  C1015   1.384   .     A
C1014  H1026   1.085   .     S
C1014  C1016   1.384   .     A
C1015  C1021   1.400   .     A
C1015  C1017   1.411   .     A
C1016  C1018   1.411   .     A
C1016  C1022   1.400   .     A
C1017  C1019   1.411   .     A
C1017  C460    1.392   1_556 S
C1018  C1020   1.411   .     A
C1021  H1045   1.084   .     S
C1021  C437    1.390   1_556 S
C1022  H1046   1.084   .     S
N1033  Zn1043  2.030   .     S
N1034  Zn1044  2.030   .     S
O1035  Zn1043  2.002   .     S
O1036  Zn1044  2.002   .     S
O1037  Zn1043  2.002   .     S
O1038  Zn1044  2.002   .     S
O1039  Zn1043  2.020   .     S
O1040  Zn1044  2.020   .     S
O1041  Zn1043  2.020   .     S
O1042  Zn1044  2.020   .     S
O1047  H1048   0.979   .     S
O1049  H1050   0.979   .     S
O1051  H1052   0.979   .     S
O1053  H1054   0.979   .     S
C1055  O1100   1.292   .     A
C1055  O1097   1.291   .     A
C1055  C1064   1.422   .     S
C1056  C1063   1.422   .     S
C1056  O1099   1.292   .     A
C1056  O1098   1.291   .     A
C1057  H1089   1.084   .     S
C1057  C1082   1.400   .     A
C1058  H1090   1.084   .     S
C1058  C1081   1.400   .     A
C1058  C526    1.390   1_556 S
C1059  H1091   1.083   .     S
C1059  C1064   1.398   .     A
C1060  C1063   1.398   .     A
C1060  H1092   1.083   .     S
C1060  C938    1.370   1_655 S
C1061  C1063   1.398   .     A
C1061  H1093   1.084   .     S
C1061  C935    1.370   1_655 S
C1062  C1064   1.398   .     A
C1062  H1094   1.084   .     S
C1065  O1109   1.376   .     S
C1065  N1096   1.377   .     A
C1066  N1095   1.377   .     A
C1066  O1111   1.376   .     S
C1066  C695    1.413   1_565 S
C1067  O1113   1.376   .     S
C1067  N1096   1.377   .     A
C1068  N1095   1.377   .     A
C1068  O1115   1.376   .     S
C1068  C693    1.413   1_565 S
C1069  O1101   1.297   .     A
C1069  C1074   1.441   .     S
C1069  O1104   1.297   .     A
C1070  O1102   1.297   .     A
C1070  O1103   1.297   .     A
C1070  C1073   1.441   .     S
C1071  H1085   1.085   .     S
C1071  C1073   1.399   .     A
C1071  C1081   1.384   .     A
C1072  C1082   1.384   .     A
C1072  H1086   1.085   .     S
C1072  C1074   1.399   .     A
C1073  C1075   1.399   .     A
C1074  C1076   1.399   .     A
C1075  H1087   1.085   .     S
C1075  C1077   1.384   .     A
C1076  H1088   1.085   .     S
C1076  C1078   1.384   .     A
C1077  C1083   1.400   .     A
C1077  C1079   1.411   .     A
C1078  C1080   1.411   .     A
C1078  C1084   1.400   .     A
C1079  C1081   1.411   .     A
C1079  C522    1.392   1_556 S
C1080  C1082   1.411   .     A
C1083  H1107   1.084   .     S
C1083  C499    1.390   1_556 S
C1084  H1108   1.084   .     S
N1095  Zn1105  2.030   .     S
N1096  Zn1106  2.030   .     S
O1097  Zn1105  2.002   .     S
O1098  Zn1106  2.002   .     S
O1099  Zn1105  2.002   .     S
O1100  Zn1106  2.002   .     S
O1101  Zn1105  2.020   .     S
O1102  Zn1106  2.020   .     S
O1103  Zn1105  2.020   .     S
O1104  Zn1106  2.020   .     S
O1109  H1110   0.979   .     S
O1111  H1112   0.979   .     S
O1113  H1114   0.979   .     S
O1115  H1116   0.979   .     S
