data_str_m3_o2_o10_pcu_sym.67
_audit_creation_date              2020-01-03
_audit_creation_method            'Materials Studio'
_symmetry_space_group_name_H-M    'P1'
_symmetry_Int_Tables_number       1
_symmetry_cell_setting            triclinic
loop_
_symmetry_equiv_pos_as_xyz
  x,y,z
_cell_length_a                    25.7507
_cell_length_b                    29.9095
_cell_length_c                    28.3092
_cell_angle_alpha                 89.6463
_cell_angle_beta                  98.7151
_cell_angle_gamma                 90.0443
loop_
_atom_site_label
_atom_site_type_symbol
_atom_site_fract_x
_atom_site_fract_y
_atom_site_fract_z
_atom_site_U_iso_or_equiv
_atom_site_adp_type
_atom_site_occupancy
C1     C     0.16597   0.16394   0.25010   0.00000  Uiso   1.00
C2     C     0.12429   0.23290   0.44198   0.00000  Uiso   1.00
C3     C     0.16629   0.25057   0.02660   0.00000  Uiso   1.00
C4     C     0.16682   0.25056   0.47341   0.00000  Uiso   1.00
C5     C     0.06698   0.24996   0.23751   0.00000  Uiso   1.00
C6     C     0.26636   0.24995   0.26249   0.00000  Uiso   1.00
C7     C     0.01195   0.24990   0.23076   0.00000  Uiso   1.00
C8     C     0.32139   0.24984   0.26924   0.00000  Uiso   1.00
C9     C     0.13619   0.04501   0.27470   0.00000  Uiso   1.00
C10    C     0.14186   0.45559   0.21415   0.00000  Uiso   1.00
C11    C     0.13223   0.09125   0.27439   0.00000  Uiso   1.00
C12    C     0.16598   0.33616   0.24969   0.00000  Uiso   1.00
C13    C     0.13791   0.40937   0.21247   0.00000  Uiso   1.00
C14    C     0.16727   0.11605   0.25081   0.00000  Uiso   1.00
C15    C     0.16751   0.38423   0.24944   0.00000  Uiso   1.00
C16    C     0.20509   0.09507   0.22800   0.00000  Uiso   1.00
C17    C     0.19992   0.40515   0.28704   0.00000  Uiso   1.00
C18    C     0.20912   0.04882   0.22861   0.00000  Uiso   1.00
C19    C     0.20393   0.45134   0.28852   0.00000  Uiso   1.00
C20    C     0.17420   0.02423   0.25217   0.00000  Uiso   1.00
C21    C     0.17445   0.47622   0.25158   0.00000  Uiso   1.00
C22    C     0.08976   0.11313   0.29757   0.00000  Uiso   1.00
C23    C     0.12442   0.26973   0.04653   0.00000  Uiso   1.00
C24    C     0.10094   0.38809   0.17236   0.00000  Uiso   1.00
C25    C     0.25023   0.02624   0.20443   0.00000  Uiso   1.00
C26    C     0.23955   0.47237   0.32962   0.00000  Uiso   1.00
C27    C     0.08050   0.33426   0.02354   0.00000  Uiso   1.00
C28    C     0.24897   0.33227   0.48260   0.00000  Uiso   1.00
C29    C     0.20946   0.26841   0.45332   0.00000  Uiso   1.00
C30    C     0.12538   0.26840   0.09669   0.00000  Uiso   1.00
C31    C     0.20851   0.26735   0.40327   0.00000  Uiso   1.00
C32    C     0.20769   0.23188   0.10769   0.00000  Uiso   1.00
C33    C     0.12503   0.23283   0.39241   0.00000  Uiso   1.00
C34    C     0.20827   0.23188   0.05811   0.00000  Uiso   1.00
H35    H     0.32461   0.24999   0.19427   0.00000  Uiso   1.00
H36    H     0.09219   0.21879   0.36882   0.00000  Uiso   1.00
H37    H     0.24115   0.21684   0.04438   0.00000  Uiso   1.00
H38    H     0.09087   0.21869   0.45576   0.00000  Uiso   1.00
H39    H     0.10759   0.13264   0.32913   0.00000  Uiso   1.00
H40    H     0.06582   0.13568   0.27156   0.00000  Uiso   1.00
H41    H     0.06291   0.08804   0.30997   0.00000  Uiso   1.00
H42    H     0.07375   0.36487   0.18719   0.00000  Uiso   1.00
H43    H     0.07671   0.41347   0.15024   0.00000  Uiso   1.00
H44    H     0.12361   0.36958   0.14842   0.00000  Uiso   1.00
H45    H     0.27673   0.00612   0.23100   0.00000  Uiso   1.00
H46    H     0.00873   0.24976   0.30573   0.00000  Uiso   1.00
H47    H     0.23100   0.00391   0.17581   0.00000  Uiso   1.00
H48    H     0.27453   0.05088   0.18803   0.00000  Uiso   1.00
H49    H     0.24051   0.00937   0.32737   0.00000  Uiso   1.00
H50    H     0.22606   0.46296   0.36378   0.00000  Uiso   1.00
H51    H     0.28027   0.45995   0.33021   0.00000  Uiso   1.00
H52    H     0.11895   0.35018   0.02030   0.00000  Uiso   1.00
H53    H     0.06834   0.34251   0.05850   0.00000  Uiso   1.00
H54    H     0.05081   0.34889   0.49519   0.00000  Uiso   1.00
H55    H     0.21228   0.34334   0.49543   0.00000  Uiso   1.00
H56    H     0.25124   0.34665   0.44662   0.00000  Uiso   1.00
H57    H     0.10942   0.02489   0.29205   0.00000  Uiso   1.00
H58    H     0.28257   0.34571   0.00766   0.00000  Uiso   1.00
H59    H     0.11917   0.47588   0.18653   0.00000  Uiso   1.00
H60    H     0.23180   0.11494   0.21032   0.00000  Uiso   1.00
H61    H     0.22268   0.38536   0.31507   0.00000  Uiso   1.00
H62    H     0.09290   0.28209   0.11207   0.00000  Uiso   1.00
H63    H     0.24141   0.28064   0.38803   0.00000  Uiso   1.00
H64    H     0.24013   0.21710   0.13136   0.00000  Uiso   1.00
N65    N     0.16667   0.24999   0.12623   0.00000  Uiso   1.00
N66    N     0.16667   0.25001   0.37376   0.00000  Uiso   1.00
O67    O     0.16667   0.18453   0.28974   0.00000  Uiso   1.00
O68    O     0.25287   0.28527   0.48246   0.00000  Uiso   1.00
O69    O     0.16666   0.31546   0.21026   0.00000  Uiso   1.00
O70    O     0.16667   0.18453   0.21026   0.00000  Uiso   1.00
O71    O     0.16666   0.31547   0.28974   0.00000  Uiso   1.00
O72    O     0.09058   0.25000   0.28044   0.00000  Uiso   1.00
O73    O     0.24275   0.25000   0.21955   0.00000  Uiso   1.00
O74    O     0.09058   0.24999   0.20096   0.00000  Uiso   1.00
O75    O     0.24275   0.25000   0.29903   0.00000  Uiso   1.00
O76    O     0.08179   0.28762   0.01678   0.00000  Uiso   1.00
Zn77   Zn    0.16667   0.25000   0.30307   0.00000  Uiso   1.00
Zn78   Zn    0.16667   0.24999   0.19693   0.00000  Uiso   1.00
C79    C     0.49930   0.16394   0.25010   0.00000  Uiso   1.00
C80    C     0.45762   0.23290   0.44198   0.00000  Uiso   1.00
C81    C     0.49963   0.25057   0.02660   0.00000  Uiso   1.00
C82    C     0.50015   0.25056   0.47341   0.00000  Uiso   1.00
C83    C     0.40031   0.24996   0.23751   0.00000  Uiso   1.00
C84    C     0.59969   0.24995   0.26249   0.00000  Uiso   1.00
C85    C     0.34529   0.24990   0.23076   0.00000  Uiso   1.00
C86    C     0.65472   0.24984   0.26924   0.00000  Uiso   1.00
C87    C     0.46952   0.04501   0.27470   0.00000  Uiso   1.00
C88    C     0.47519   0.45559   0.21415   0.00000  Uiso   1.00
C89    C     0.46557   0.09125   0.27439   0.00000  Uiso   1.00
C90    C     0.49931   0.33616   0.24969   0.00000  Uiso   1.00
C91    C     0.47124   0.40937   0.21247   0.00000  Uiso   1.00
C92    C     0.50061   0.11605   0.25081   0.00000  Uiso   1.00
C93    C     0.50084   0.38423   0.24944   0.00000  Uiso   1.00
C94    C     0.53842   0.09507   0.22800   0.00000  Uiso   1.00
C95    C     0.53326   0.40515   0.28704   0.00000  Uiso   1.00
C96    C     0.54246   0.04882   0.22861   0.00000  Uiso   1.00
C97    C     0.53727   0.45134   0.28852   0.00000  Uiso   1.00
C98    C     0.50753   0.02423   0.25217   0.00000  Uiso   1.00
C99    C     0.50779   0.47622   0.25158   0.00000  Uiso   1.00
C100   C     0.42309   0.11313   0.29757   0.00000  Uiso   1.00
C101   C     0.45776   0.26973   0.04653   0.00000  Uiso   1.00
C102   C     0.43428   0.38809   0.17236   0.00000  Uiso   1.00
C103   C     0.58356   0.02624   0.20443   0.00000  Uiso   1.00
C104   C     0.57288   0.47237   0.32962   0.00000  Uiso   1.00
C105   C     0.41383   0.33426   0.02354   0.00000  Uiso   1.00
C106   C     0.58230   0.33227   0.48260   0.00000  Uiso   1.00
C107   C     0.54280   0.26841   0.45332   0.00000  Uiso   1.00
C108   C     0.45871   0.26840   0.09669   0.00000  Uiso   1.00
C109   C     0.54185   0.26735   0.40327   0.00000  Uiso   1.00
C110   C     0.54103   0.23188   0.10769   0.00000  Uiso   1.00
C111   C     0.45836   0.23283   0.39241   0.00000  Uiso   1.00
C112   C     0.54161   0.23188   0.05811   0.00000  Uiso   1.00
H113   H     0.65794   0.24999   0.19427   0.00000  Uiso   1.00
H114   H     0.42552   0.21879   0.36882   0.00000  Uiso   1.00
H115   H     0.57449   0.21684   0.04438   0.00000  Uiso   1.00
H116   H     0.42420   0.21869   0.45576   0.00000  Uiso   1.00
H117   H     0.44092   0.13264   0.32913   0.00000  Uiso   1.00
H118   H     0.39916   0.13568   0.27156   0.00000  Uiso   1.00
H119   H     0.39624   0.08804   0.30997   0.00000  Uiso   1.00
H120   H     0.40708   0.36487   0.18719   0.00000  Uiso   1.00
H121   H     0.41004   0.41347   0.15024   0.00000  Uiso   1.00
H122   H     0.45694   0.36958   0.14842   0.00000  Uiso   1.00
H123   H     0.61007   0.00612   0.23100   0.00000  Uiso   1.00
H124   H     0.34207   0.24976   0.30573   0.00000  Uiso   1.00
H125   H     0.56433   0.00391   0.17581   0.00000  Uiso   1.00
H126   H     0.60787   0.05088   0.18803   0.00000  Uiso   1.00
H127   H     0.57385   0.00937   0.32737   0.00000  Uiso   1.00
H128   H     0.55939   0.46296   0.36378   0.00000  Uiso   1.00
H129   H     0.61360   0.45995   0.33021   0.00000  Uiso   1.00
H130   H     0.45228   0.35018   0.02030   0.00000  Uiso   1.00
H131   H     0.40167   0.34251   0.05850   0.00000  Uiso   1.00
H132   H     0.38414   0.34889   0.49519   0.00000  Uiso   1.00
H133   H     0.54561   0.34334   0.49543   0.00000  Uiso   1.00
H134   H     0.58457   0.34665   0.44662   0.00000  Uiso   1.00
H135   H     0.44276   0.02489   0.29205   0.00000  Uiso   1.00
H136   H     0.61590   0.34571   0.00766   0.00000  Uiso   1.00
H137   H     0.45251   0.47588   0.18653   0.00000  Uiso   1.00
H138   H     0.56514   0.11494   0.21032   0.00000  Uiso   1.00
H139   H     0.55602   0.38536   0.31507   0.00000  Uiso   1.00
H140   H     0.42624   0.28209   0.11207   0.00000  Uiso   1.00
H141   H     0.57474   0.28064   0.38803   0.00000  Uiso   1.00
H142   H     0.57346   0.21710   0.13136   0.00000  Uiso   1.00
N143   N     0.50000   0.24999   0.12623   0.00000  Uiso   1.00
N144   N     0.50000   0.25001   0.37376   0.00000  Uiso   1.00
O145   O     0.50000   0.18453   0.28974   0.00000  Uiso   1.00
O146   O     0.58621   0.28527   0.48246   0.00000  Uiso   1.00
O147   O     0.50000   0.31546   0.21026   0.00000  Uiso   1.00
O148   O     0.50000   0.18453   0.21026   0.00000  Uiso   1.00
O149   O     0.50000   0.31547   0.28974   0.00000  Uiso   1.00
O150   O     0.42392   0.25000   0.28044   0.00000  Uiso   1.00
O151   O     0.57608   0.25000   0.21955   0.00000  Uiso   1.00
O152   O     0.42392   0.24999   0.20096   0.00000  Uiso   1.00
O153   O     0.57608   0.25000   0.29903   0.00000  Uiso   1.00
O154   O     0.41513   0.28762   0.01678   0.00000  Uiso   1.00
Zn155  Zn    0.50000   0.25000   0.30307   0.00000  Uiso   1.00
Zn156  Zn    0.50000   0.24999   0.19693   0.00000  Uiso   1.00
C157   C     0.83264   0.16394   0.25010   0.00000  Uiso   1.00
C158   C     0.79095   0.23290   0.44198   0.00000  Uiso   1.00
C159   C     0.83296   0.25057   0.02660   0.00000  Uiso   1.00
C160   C     0.83349   0.25056   0.47341   0.00000  Uiso   1.00
C161   C     0.73365   0.24996   0.23751   0.00000  Uiso   1.00
C162   C     0.93302   0.24995   0.26249   0.00000  Uiso   1.00
C163   C     0.67862   0.24990   0.23076   0.00000  Uiso   1.00
C164   C     0.98805   0.24984   0.26924   0.00000  Uiso   1.00
C165   C     0.80286   0.04501   0.27470   0.00000  Uiso   1.00
C166   C     0.80853   0.45559   0.21415   0.00000  Uiso   1.00
C167   C     0.79890   0.09125   0.27439   0.00000  Uiso   1.00
C168   C     0.83264   0.33616   0.24969   0.00000  Uiso   1.00
C169   C     0.80458   0.40937   0.21247   0.00000  Uiso   1.00
C170   C     0.83394   0.11605   0.25081   0.00000  Uiso   1.00
C171   C     0.83417   0.38423   0.24944   0.00000  Uiso   1.00
C172   C     0.87175   0.09507   0.22800   0.00000  Uiso   1.00
C173   C     0.86659   0.40515   0.28704   0.00000  Uiso   1.00
C174   C     0.87579   0.04882   0.22861   0.00000  Uiso   1.00
C175   C     0.87060   0.45134   0.28852   0.00000  Uiso   1.00
C176   C     0.84086   0.02423   0.25217   0.00000  Uiso   1.00
C177   C     0.84112   0.47622   0.25158   0.00000  Uiso   1.00
C178   C     0.75643   0.11313   0.29757   0.00000  Uiso   1.00
C179   C     0.79109   0.26973   0.04653   0.00000  Uiso   1.00
C180   C     0.76761   0.38809   0.17236   0.00000  Uiso   1.00
C181   C     0.91690   0.02624   0.20443   0.00000  Uiso   1.00
C182   C     0.90622   0.47237   0.32962   0.00000  Uiso   1.00
C183   C     0.74717   0.33426   0.02354   0.00000  Uiso   1.00
C184   C     0.91564   0.33227   0.48260   0.00000  Uiso   1.00
C185   C     0.87613   0.26841   0.45332   0.00000  Uiso   1.00
C186   C     0.79205   0.26840   0.09669   0.00000  Uiso   1.00
C187   C     0.87518   0.26735   0.40327   0.00000  Uiso   1.00
C188   C     0.87436   0.23188   0.10769   0.00000  Uiso   1.00
C189   C     0.79170   0.23283   0.39241   0.00000  Uiso   1.00
C190   C     0.87494   0.23188   0.05811   0.00000  Uiso   1.00
H191   H     0.99127   0.24999   0.19427   0.00000  Uiso   1.00
H192   H     0.75885   0.21879   0.36882   0.00000  Uiso   1.00
H193   H     0.90782   0.21684   0.04438   0.00000  Uiso   1.00
H194   H     0.75753   0.21869   0.45576   0.00000  Uiso   1.00
H195   H     0.77426   0.13264   0.32913   0.00000  Uiso   1.00
H196   H     0.73249   0.13568   0.27156   0.00000  Uiso   1.00
H197   H     0.72958   0.08804   0.30997   0.00000  Uiso   1.00
H198   H     0.74042   0.36487   0.18719   0.00000  Uiso   1.00
H199   H     0.74337   0.41347   0.15024   0.00000  Uiso   1.00
H200   H     0.79028   0.36958   0.14842   0.00000  Uiso   1.00
H201   H     0.94340   0.00612   0.23100   0.00000  Uiso   1.00
H202   H     0.67540   0.24976   0.30573   0.00000  Uiso   1.00
H203   H     0.89767   0.00391   0.17581   0.00000  Uiso   1.00
H204   H     0.94120   0.05088   0.18803   0.00000  Uiso   1.00
H205   H     0.90718   0.00937   0.32737   0.00000  Uiso   1.00
H206   H     0.89272   0.46296   0.36378   0.00000  Uiso   1.00
H207   H     0.94694   0.45995   0.33021   0.00000  Uiso   1.00
H208   H     0.78561   0.35018   0.02030   0.00000  Uiso   1.00
H209   H     0.73501   0.34251   0.05850   0.00000  Uiso   1.00
H210   H     0.71747   0.34889   0.49519   0.00000  Uiso   1.00
H211   H     0.87894   0.34334   0.49543   0.00000  Uiso   1.00
H212   H     0.91790   0.34665   0.44662   0.00000  Uiso   1.00
H213   H     0.77609   0.02489   0.29205   0.00000  Uiso   1.00
H214   H     0.94923   0.34571   0.00766   0.00000  Uiso   1.00
H215   H     0.78584   0.47588   0.18653   0.00000  Uiso   1.00
H216   H     0.89847   0.11494   0.21032   0.00000  Uiso   1.00
H217   H     0.88935   0.38536   0.31507   0.00000  Uiso   1.00
H218   H     0.75957   0.28209   0.11207   0.00000  Uiso   1.00
H219   H     0.90808   0.28064   0.38803   0.00000  Uiso   1.00
H220   H     0.90679   0.21710   0.13136   0.00000  Uiso   1.00
N221   N     0.83333   0.24999   0.12623   0.00000  Uiso   1.00
N222   N     0.83333   0.25001   0.37376   0.00000  Uiso   1.00
O223   O     0.83334   0.18453   0.28974   0.00000  Uiso   1.00
O224   O     0.91954   0.28527   0.48246   0.00000  Uiso   1.00
O225   O     0.83333   0.31546   0.21026   0.00000  Uiso   1.00
O226   O     0.83334   0.18453   0.21026   0.00000  Uiso   1.00
O227   O     0.83333   0.31547   0.28974   0.00000  Uiso   1.00
O228   O     0.75725   0.25000   0.28044   0.00000  Uiso   1.00
O229   O     0.90942   0.25000   0.21955   0.00000  Uiso   1.00
O230   O     0.75725   0.24999   0.20096   0.00000  Uiso   1.00
O231   O     0.90942   0.25000   0.29903   0.00000  Uiso   1.00
O232   O     0.74846   0.28762   0.01678   0.00000  Uiso   1.00
Zn233  Zn    0.83333   0.25000   0.30307   0.00000  Uiso   1.00
Zn234  Zn    0.83333   0.24999   0.19693   0.00000  Uiso   1.00
C235   C     0.16597   0.66394   0.25010   0.00000  Uiso   1.00
C236   C     0.12429   0.73290   0.44198   0.00000  Uiso   1.00
C237   C     0.16629   0.75057   0.02660   0.00000  Uiso   1.00
C238   C     0.16682   0.75056   0.47341   0.00000  Uiso   1.00
C239   C     0.06698   0.74996   0.23751   0.00000  Uiso   1.00
C240   C     0.26636   0.74995   0.26249   0.00000  Uiso   1.00
C241   C     0.01195   0.74990   0.23076   0.00000  Uiso   1.00
C242   C     0.32139   0.74984   0.26924   0.00000  Uiso   1.00
C243   C     0.13619   0.54501   0.27470   0.00000  Uiso   1.00
C244   C     0.14186   0.95559   0.21415   0.00000  Uiso   1.00
C245   C     0.13223   0.59125   0.27439   0.00000  Uiso   1.00
C246   C     0.16598   0.83616   0.24969   0.00000  Uiso   1.00
C247   C     0.13791   0.90937   0.21247   0.00000  Uiso   1.00
C248   C     0.16727   0.61605   0.25081   0.00000  Uiso   1.00
C249   C     0.16751   0.88423   0.24944   0.00000  Uiso   1.00
C250   C     0.20509   0.59507   0.22800   0.00000  Uiso   1.00
C251   C     0.19992   0.90515   0.28704   0.00000  Uiso   1.00
C252   C     0.20912   0.54882   0.22861   0.00000  Uiso   1.00
C253   C     0.20393   0.95134   0.28852   0.00000  Uiso   1.00
C254   C     0.17420   0.52423   0.25217   0.00000  Uiso   1.00
C255   C     0.17445   0.97622   0.25158   0.00000  Uiso   1.00
C256   C     0.08976   0.61313   0.29757   0.00000  Uiso   1.00
C257   C     0.12442   0.76973   0.04653   0.00000  Uiso   1.00
C258   C     0.10094   0.88809   0.17236   0.00000  Uiso   1.00
C259   C     0.25023   0.52624   0.20443   0.00000  Uiso   1.00
C260   C     0.23955   0.97237   0.32962   0.00000  Uiso   1.00
C261   C     0.08050   0.83426   0.02354   0.00000  Uiso   1.00
C262   C     0.24897   0.83227   0.48260   0.00000  Uiso   1.00
C263   C     0.20946   0.76841   0.45332   0.00000  Uiso   1.00
C264   C     0.12538   0.76840   0.09669   0.00000  Uiso   1.00
C265   C     0.20851   0.76735   0.40327   0.00000  Uiso   1.00
C266   C     0.20769   0.73188   0.10769   0.00000  Uiso   1.00
C267   C     0.12503   0.73283   0.39241   0.00000  Uiso   1.00
C268   C     0.20827   0.73188   0.05811   0.00000  Uiso   1.00
H269   H     0.32461   0.74999   0.19427   0.00000  Uiso   1.00
H270   H     0.09219   0.71879   0.36882   0.00000  Uiso   1.00
H271   H     0.24115   0.71684   0.04438   0.00000  Uiso   1.00
H272   H     0.09087   0.71869   0.45576   0.00000  Uiso   1.00
H273   H     0.10759   0.63264   0.32913   0.00000  Uiso   1.00
H274   H     0.06582   0.63568   0.27156   0.00000  Uiso   1.00
H275   H     0.06291   0.58804   0.30997   0.00000  Uiso   1.00
H276   H     0.07375   0.86487   0.18719   0.00000  Uiso   1.00
H277   H     0.07671   0.91347   0.15024   0.00000  Uiso   1.00
H278   H     0.12361   0.86958   0.14842   0.00000  Uiso   1.00
H279   H     0.27673   0.50612   0.23100   0.00000  Uiso   1.00
H280   H     0.00873   0.74976   0.30573   0.00000  Uiso   1.00
H281   H     0.23100   0.50391   0.17581   0.00000  Uiso   1.00
H282   H     0.27453   0.55088   0.18803   0.00000  Uiso   1.00
H283   H     0.24051   0.50937   0.32737   0.00000  Uiso   1.00
H284   H     0.22606   0.96296   0.36378   0.00000  Uiso   1.00
H285   H     0.28027   0.95995   0.33021   0.00000  Uiso   1.00
H286   H     0.11895   0.85018   0.02030   0.00000  Uiso   1.00
H287   H     0.06834   0.84251   0.05850   0.00000  Uiso   1.00
H288   H     0.05081   0.84889   0.49519   0.00000  Uiso   1.00
H289   H     0.21228   0.84334   0.49543   0.00000  Uiso   1.00
H290   H     0.25124   0.84665   0.44662   0.00000  Uiso   1.00
H291   H     0.10942   0.52489   0.29205   0.00000  Uiso   1.00
H292   H     0.28257   0.84571   0.00766   0.00000  Uiso   1.00
H293   H     0.11917   0.97588   0.18653   0.00000  Uiso   1.00
H294   H     0.23180   0.61494   0.21032   0.00000  Uiso   1.00
H295   H     0.22268   0.88536   0.31507   0.00000  Uiso   1.00
H296   H     0.09290   0.78209   0.11207   0.00000  Uiso   1.00
H297   H     0.24141   0.78064   0.38803   0.00000  Uiso   1.00
H298   H     0.24013   0.71710   0.13136   0.00000  Uiso   1.00
N299   N     0.16667   0.74999   0.12623   0.00000  Uiso   1.00
N300   N     0.16667   0.75001   0.37376   0.00000  Uiso   1.00
O301   O     0.16667   0.68453   0.28974   0.00000  Uiso   1.00
O302   O     0.25287   0.78527   0.48246   0.00000  Uiso   1.00
O303   O     0.16666   0.81546   0.21026   0.00000  Uiso   1.00
O304   O     0.16667   0.68453   0.21026   0.00000  Uiso   1.00
O305   O     0.16666   0.81547   0.28974   0.00000  Uiso   1.00
O306   O     0.09058   0.75000   0.28044   0.00000  Uiso   1.00
O307   O     0.24275   0.75000   0.21955   0.00000  Uiso   1.00
O308   O     0.09058   0.74999   0.20096   0.00000  Uiso   1.00
O309   O     0.24275   0.75000   0.29903   0.00000  Uiso   1.00
O310   O     0.08179   0.78762   0.01678   0.00000  Uiso   1.00
Zn311  Zn    0.16667   0.75000   0.30307   0.00000  Uiso   1.00
Zn312  Zn    0.16667   0.74999   0.19693   0.00000  Uiso   1.00
C313   C     0.49930   0.66394   0.25010   0.00000  Uiso   1.00
C314   C     0.45762   0.73290   0.44198   0.00000  Uiso   1.00
C315   C     0.49963   0.75057   0.02660   0.00000  Uiso   1.00
C316   C     0.50015   0.75056   0.47341   0.00000  Uiso   1.00
C317   C     0.40031   0.74996   0.23751   0.00000  Uiso   1.00
C318   C     0.59969   0.74995   0.26249   0.00000  Uiso   1.00
C319   C     0.34529   0.74990   0.23076   0.00000  Uiso   1.00
C320   C     0.65472   0.74984   0.26924   0.00000  Uiso   1.00
C321   C     0.46952   0.54501   0.27470   0.00000  Uiso   1.00
C322   C     0.47519   0.95559   0.21415   0.00000  Uiso   1.00
C323   C     0.46557   0.59125   0.27439   0.00000  Uiso   1.00
C324   C     0.49931   0.83616   0.24969   0.00000  Uiso   1.00
C325   C     0.47124   0.90937   0.21247   0.00000  Uiso   1.00
C326   C     0.50061   0.61605   0.25081   0.00000  Uiso   1.00
C327   C     0.50084   0.88423   0.24944   0.00000  Uiso   1.00
C328   C     0.53842   0.59507   0.22800   0.00000  Uiso   1.00
C329   C     0.53326   0.90515   0.28704   0.00000  Uiso   1.00
C330   C     0.54246   0.54882   0.22861   0.00000  Uiso   1.00
C331   C     0.53727   0.95134   0.28852   0.00000  Uiso   1.00
C332   C     0.50753   0.52423   0.25217   0.00000  Uiso   1.00
C333   C     0.50779   0.97622   0.25158   0.00000  Uiso   1.00
C334   C     0.42309   0.61313   0.29757   0.00000  Uiso   1.00
C335   C     0.45776   0.76973   0.04653   0.00000  Uiso   1.00
C336   C     0.43428   0.88809   0.17236   0.00000  Uiso   1.00
C337   C     0.58356   0.52624   0.20443   0.00000  Uiso   1.00
C338   C     0.57288   0.97237   0.32962   0.00000  Uiso   1.00
C339   C     0.41383   0.83426   0.02354   0.00000  Uiso   1.00
C340   C     0.58230   0.83227   0.48260   0.00000  Uiso   1.00
C341   C     0.54280   0.76841   0.45332   0.00000  Uiso   1.00
C342   C     0.45871   0.76840   0.09669   0.00000  Uiso   1.00
C343   C     0.54185   0.76735   0.40327   0.00000  Uiso   1.00
C344   C     0.54103   0.73188   0.10769   0.00000  Uiso   1.00
C345   C     0.45836   0.73283   0.39241   0.00000  Uiso   1.00
C346   C     0.54161   0.73188   0.05811   0.00000  Uiso   1.00
H347   H     0.65794   0.74999   0.19427   0.00000  Uiso   1.00
H348   H     0.42552   0.71879   0.36882   0.00000  Uiso   1.00
H349   H     0.57449   0.71684   0.04438   0.00000  Uiso   1.00
H350   H     0.42420   0.71869   0.45576   0.00000  Uiso   1.00
H351   H     0.44092   0.63264   0.32913   0.00000  Uiso   1.00
H352   H     0.39916   0.63568   0.27156   0.00000  Uiso   1.00
H353   H     0.39624   0.58804   0.30997   0.00000  Uiso   1.00
H354   H     0.40708   0.86487   0.18719   0.00000  Uiso   1.00
H355   H     0.41004   0.91347   0.15024   0.00000  Uiso   1.00
H356   H     0.45694   0.86958   0.14842   0.00000  Uiso   1.00
H357   H     0.61007   0.50612   0.23100   0.00000  Uiso   1.00
H358   H     0.34207   0.74976   0.30573   0.00000  Uiso   1.00
H359   H     0.56433   0.50391   0.17581   0.00000  Uiso   1.00
H360   H     0.60787   0.55088   0.18803   0.00000  Uiso   1.00
H361   H     0.57385   0.50937   0.32737   0.00000  Uiso   1.00
H362   H     0.55939   0.96296   0.36378   0.00000  Uiso   1.00
H363   H     0.61360   0.95995   0.33021   0.00000  Uiso   1.00
H364   H     0.45228   0.85018   0.02030   0.00000  Uiso   1.00
H365   H     0.40167   0.84251   0.05850   0.00000  Uiso   1.00
H366   H     0.38414   0.84889   0.49519   0.00000  Uiso   1.00
H367   H     0.54561   0.84334   0.49543   0.00000  Uiso   1.00
H368   H     0.58457   0.84665   0.44662   0.00000  Uiso   1.00
H369   H     0.44276   0.52489   0.29205   0.00000  Uiso   1.00
H370   H     0.61590   0.84571   0.00766   0.00000  Uiso   1.00
H371   H     0.45251   0.97588   0.18653   0.00000  Uiso   1.00
H372   H     0.56514   0.61494   0.21032   0.00000  Uiso   1.00
H373   H     0.55602   0.88536   0.31507   0.00000  Uiso   1.00
H374   H     0.42624   0.78209   0.11207   0.00000  Uiso   1.00
H375   H     0.57474   0.78064   0.38803   0.00000  Uiso   1.00
H376   H     0.57346   0.71710   0.13136   0.00000  Uiso   1.00
N377   N     0.50000   0.74999   0.12623   0.00000  Uiso   1.00
N378   N     0.50000   0.75001   0.37376   0.00000  Uiso   1.00
O379   O     0.50000   0.68453   0.28974   0.00000  Uiso   1.00
O380   O     0.58621   0.78527   0.48246   0.00000  Uiso   1.00
O381   O     0.50000   0.81546   0.21026   0.00000  Uiso   1.00
O382   O     0.50000   0.68453   0.21026   0.00000  Uiso   1.00
O383   O     0.50000   0.81547   0.28974   0.00000  Uiso   1.00
O384   O     0.42392   0.75000   0.28044   0.00000  Uiso   1.00
O385   O     0.57608   0.75000   0.21955   0.00000  Uiso   1.00
O386   O     0.42392   0.74999   0.20096   0.00000  Uiso   1.00
O387   O     0.57608   0.75000   0.29903   0.00000  Uiso   1.00
O388   O     0.41513   0.78762   0.01678   0.00000  Uiso   1.00
Zn389  Zn    0.50000   0.75000   0.30307   0.00000  Uiso   1.00
Zn390  Zn    0.50000   0.74999   0.19693   0.00000  Uiso   1.00
C391   C     0.83264   0.66394   0.25010   0.00000  Uiso   1.00
C392   C     0.79095   0.73290   0.44198   0.00000  Uiso   1.00
C393   C     0.83296   0.75057   0.02660   0.00000  Uiso   1.00
C394   C     0.83349   0.75056   0.47341   0.00000  Uiso   1.00
C395   C     0.73365   0.74996   0.23751   0.00000  Uiso   1.00
C396   C     0.93302   0.74995   0.26249   0.00000  Uiso   1.00
C397   C     0.67862   0.74990   0.23076   0.00000  Uiso   1.00
C398   C     0.98805   0.74984   0.26924   0.00000  Uiso   1.00
C399   C     0.80286   0.54501   0.27470   0.00000  Uiso   1.00
C400   C     0.80853   0.95559   0.21415   0.00000  Uiso   1.00
C401   C     0.79890   0.59125   0.27439   0.00000  Uiso   1.00
C402   C     0.83264   0.83616   0.24969   0.00000  Uiso   1.00
C403   C     0.80458   0.90937   0.21247   0.00000  Uiso   1.00
C404   C     0.83394   0.61605   0.25081   0.00000  Uiso   1.00
C405   C     0.83417   0.88423   0.24944   0.00000  Uiso   1.00
C406   C     0.87175   0.59507   0.22800   0.00000  Uiso   1.00
C407   C     0.86659   0.90515   0.28704   0.00000  Uiso   1.00
C408   C     0.87579   0.54882   0.22861   0.00000  Uiso   1.00
C409   C     0.87060   0.95134   0.28852   0.00000  Uiso   1.00
C410   C     0.84086   0.52423   0.25217   0.00000  Uiso   1.00
C411   C     0.84112   0.97622   0.25158   0.00000  Uiso   1.00
C412   C     0.75643   0.61313   0.29757   0.00000  Uiso   1.00
C413   C     0.79109   0.76973   0.04653   0.00000  Uiso   1.00
C414   C     0.76761   0.88809   0.17236   0.00000  Uiso   1.00
C415   C     0.91690   0.52624   0.20443   0.00000  Uiso   1.00
C416   C     0.90622   0.97237   0.32962   0.00000  Uiso   1.00
C417   C     0.74717   0.83426   0.02354   0.00000  Uiso   1.00
C418   C     0.91564   0.83227   0.48260   0.00000  Uiso   1.00
C419   C     0.87613   0.76841   0.45332   0.00000  Uiso   1.00
C420   C     0.79205   0.76840   0.09669   0.00000  Uiso   1.00
C421   C     0.87518   0.76735   0.40327   0.00000  Uiso   1.00
C422   C     0.87436   0.73188   0.10769   0.00000  Uiso   1.00
C423   C     0.79170   0.73283   0.39241   0.00000  Uiso   1.00
C424   C     0.87494   0.73188   0.05811   0.00000  Uiso   1.00
H425   H     0.99127   0.74999   0.19427   0.00000  Uiso   1.00
H426   H     0.75885   0.71879   0.36882   0.00000  Uiso   1.00
H427   H     0.90782   0.71684   0.04438   0.00000  Uiso   1.00
H428   H     0.75753   0.71869   0.45576   0.00000  Uiso   1.00
H429   H     0.77426   0.63264   0.32913   0.00000  Uiso   1.00
H430   H     0.73249   0.63568   0.27156   0.00000  Uiso   1.00
H431   H     0.72958   0.58804   0.30997   0.00000  Uiso   1.00
H432   H     0.74042   0.86487   0.18719   0.00000  Uiso   1.00
H433   H     0.74337   0.91347   0.15024   0.00000  Uiso   1.00
H434   H     0.79028   0.86958   0.14842   0.00000  Uiso   1.00
H435   H     0.94340   0.50612   0.23100   0.00000  Uiso   1.00
H436   H     0.67540   0.74976   0.30573   0.00000  Uiso   1.00
H437   H     0.89767   0.50391   0.17581   0.00000  Uiso   1.00
H438   H     0.94120   0.55088   0.18803   0.00000  Uiso   1.00
H439   H     0.90718   0.50937   0.32737   0.00000  Uiso   1.00
H440   H     0.89272   0.96296   0.36378   0.00000  Uiso   1.00
H441   H     0.94694   0.95995   0.33021   0.00000  Uiso   1.00
H442   H     0.78561   0.85018   0.02030   0.00000  Uiso   1.00
H443   H     0.73501   0.84251   0.05850   0.00000  Uiso   1.00
H444   H     0.71747   0.84889   0.49519   0.00000  Uiso   1.00
H445   H     0.87894   0.84334   0.49543   0.00000  Uiso   1.00
H446   H     0.91790   0.84665   0.44662   0.00000  Uiso   1.00
H447   H     0.77609   0.52489   0.29205   0.00000  Uiso   1.00
H448   H     0.94923   0.84571   0.00766   0.00000  Uiso   1.00
H449   H     0.78584   0.97588   0.18653   0.00000  Uiso   1.00
H450   H     0.89847   0.61494   0.21032   0.00000  Uiso   1.00
H451   H     0.88935   0.88536   0.31507   0.00000  Uiso   1.00
H452   H     0.75957   0.78209   0.11207   0.00000  Uiso   1.00
H453   H     0.90808   0.78064   0.38803   0.00000  Uiso   1.00
H454   H     0.90679   0.71710   0.13136   0.00000  Uiso   1.00
N455   N     0.83333   0.74999   0.12623   0.00000  Uiso   1.00
N456   N     0.83333   0.75001   0.37376   0.00000  Uiso   1.00
O457   O     0.83334   0.68453   0.28974   0.00000  Uiso   1.00
O458   O     0.91954   0.78527   0.48246   0.00000  Uiso   1.00
O459   O     0.83333   0.81546   0.21026   0.00000  Uiso   1.00
O460   O     0.83334   0.68453   0.21026   0.00000  Uiso   1.00
O461   O     0.83333   0.81547   0.28974   0.00000  Uiso   1.00
O462   O     0.75725   0.75000   0.28044   0.00000  Uiso   1.00
O463   O     0.90942   0.75000   0.21955   0.00000  Uiso   1.00
O464   O     0.75725   0.74999   0.20096   0.00000  Uiso   1.00
O465   O     0.90942   0.75000   0.29903   0.00000  Uiso   1.00
O466   O     0.74846   0.78762   0.01678   0.00000  Uiso   1.00
Zn467  Zn    0.83333   0.75000   0.30307   0.00000  Uiso   1.00
Zn468  Zn    0.83333   0.74999   0.19693   0.00000  Uiso   1.00
C469   C     0.16597   0.16394   0.75010   0.00000  Uiso   1.00
C470   C     0.12429   0.23290   0.94198   0.00000  Uiso   1.00
C471   C     0.16629   0.25057   0.52660   0.00000  Uiso   1.00
C472   C     0.16682   0.25056   0.97341   0.00000  Uiso   1.00
C473   C     0.06698   0.24996   0.73751   0.00000  Uiso   1.00
C474   C     0.26636   0.24995   0.76249   0.00000  Uiso   1.00
C475   C     0.01195   0.24990   0.73076   0.00000  Uiso   1.00
C476   C     0.32139   0.24984   0.76924   0.00000  Uiso   1.00
C477   C     0.13619   0.04501   0.77470   0.00000  Uiso   1.00
C478   C     0.14186   0.45559   0.71415   0.00000  Uiso   1.00
C479   C     0.13223   0.09125   0.77439   0.00000  Uiso   1.00
C480   C     0.16598   0.33616   0.74969   0.00000  Uiso   1.00
C481   C     0.13791   0.40937   0.71247   0.00000  Uiso   1.00
C482   C     0.16727   0.11605   0.75081   0.00000  Uiso   1.00
C483   C     0.16751   0.38423   0.74944   0.00000  Uiso   1.00
C484   C     0.20509   0.09507   0.72800   0.00000  Uiso   1.00
C485   C     0.19992   0.40515   0.78704   0.00000  Uiso   1.00
C486   C     0.20912   0.04882   0.72861   0.00000  Uiso   1.00
C487   C     0.20393   0.45134   0.78852   0.00000  Uiso   1.00
C488   C     0.17420   0.02423   0.75217   0.00000  Uiso   1.00
C489   C     0.17445   0.47622   0.75158   0.00000  Uiso   1.00
C490   C     0.08976   0.11313   0.79757   0.00000  Uiso   1.00
C491   C     0.12442   0.26973   0.54653   0.00000  Uiso   1.00
C492   C     0.10094   0.38809   0.67236   0.00000  Uiso   1.00
C493   C     0.25023   0.02624   0.70443   0.00000  Uiso   1.00
C494   C     0.23955   0.47237   0.82962   0.00000  Uiso   1.00
C495   C     0.08050   0.33426   0.52354   0.00000  Uiso   1.00
C496   C     0.24897   0.33227   0.98260   0.00000  Uiso   1.00
C497   C     0.20946   0.26841   0.95332   0.00000  Uiso   1.00
C498   C     0.12538   0.26840   0.59669   0.00000  Uiso   1.00
C499   C     0.20851   0.26735   0.90327   0.00000  Uiso   1.00
C500   C     0.20769   0.23188   0.60769   0.00000  Uiso   1.00
C501   C     0.12503   0.23283   0.89241   0.00000  Uiso   1.00
C502   C     0.20827   0.23188   0.55811   0.00000  Uiso   1.00
H503   H     0.32461   0.24999   0.69427   0.00000  Uiso   1.00
H504   H     0.09219   0.21879   0.86882   0.00000  Uiso   1.00
H505   H     0.24115   0.21684   0.54438   0.00000  Uiso   1.00
H506   H     0.09087   0.21869   0.95576   0.00000  Uiso   1.00
H507   H     0.10759   0.13264   0.82913   0.00000  Uiso   1.00
H508   H     0.06582   0.13568   0.77156   0.00000  Uiso   1.00
H509   H     0.06291   0.08804   0.80997   0.00000  Uiso   1.00
H510   H     0.07375   0.36487   0.68719   0.00000  Uiso   1.00
H511   H     0.07671   0.41347   0.65024   0.00000  Uiso   1.00
H512   H     0.12361   0.36958   0.64842   0.00000  Uiso   1.00
H513   H     0.27673   0.00612   0.73100   0.00000  Uiso   1.00
H514   H     0.00873   0.24976   0.80573   0.00000  Uiso   1.00
H515   H     0.23100   0.00391   0.67581   0.00000  Uiso   1.00
H516   H     0.27453   0.05088   0.68803   0.00000  Uiso   1.00
H517   H     0.24051   0.00937   0.82737   0.00000  Uiso   1.00
H518   H     0.22606   0.46296   0.86378   0.00000  Uiso   1.00
H519   H     0.28027   0.45995   0.83021   0.00000  Uiso   1.00
H520   H     0.11895   0.35018   0.52030   0.00000  Uiso   1.00
H521   H     0.06834   0.34251   0.55850   0.00000  Uiso   1.00
H522   H     0.05081   0.34889   0.99519   0.00000  Uiso   1.00
H523   H     0.21228   0.34334   0.99543   0.00000  Uiso   1.00
H524   H     0.25124   0.34665   0.94662   0.00000  Uiso   1.00
H525   H     0.10942   0.02489   0.79205   0.00000  Uiso   1.00
H526   H     0.28257   0.34571   0.50766   0.00000  Uiso   1.00
H527   H     0.11917   0.47588   0.68653   0.00000  Uiso   1.00
H528   H     0.23180   0.11494   0.71032   0.00000  Uiso   1.00
H529   H     0.22268   0.38536   0.81507   0.00000  Uiso   1.00
H530   H     0.09290   0.28209   0.61207   0.00000  Uiso   1.00
H531   H     0.24141   0.28064   0.88803   0.00000  Uiso   1.00
H532   H     0.24013   0.21710   0.63136   0.00000  Uiso   1.00
N533   N     0.16667   0.24999   0.62623   0.00000  Uiso   1.00
N534   N     0.16667   0.25001   0.87376   0.00000  Uiso   1.00
O535   O     0.16667   0.18453   0.78974   0.00000  Uiso   1.00
O536   O     0.25287   0.28527   0.98246   0.00000  Uiso   1.00
O537   O     0.16666   0.31546   0.71026   0.00000  Uiso   1.00
O538   O     0.16667   0.18453   0.71026   0.00000  Uiso   1.00
O539   O     0.16666   0.31547   0.78974   0.00000  Uiso   1.00
O540   O     0.09058   0.25000   0.78044   0.00000  Uiso   1.00
O541   O     0.24275   0.25000   0.71955   0.00000  Uiso   1.00
O542   O     0.09058   0.24999   0.70096   0.00000  Uiso   1.00
O543   O     0.24275   0.25000   0.79903   0.00000  Uiso   1.00
O544   O     0.08179   0.28762   0.51678   0.00000  Uiso   1.00
Zn545  Zn    0.16667   0.25000   0.80307   0.00000  Uiso   1.00
Zn546  Zn    0.16667   0.24999   0.69693   0.00000  Uiso   1.00
C547   C     0.49930   0.16394   0.75010   0.00000  Uiso   1.00
C548   C     0.45762   0.23290   0.94198   0.00000  Uiso   1.00
C549   C     0.49963   0.25057   0.52660   0.00000  Uiso   1.00
C550   C     0.50015   0.25056   0.97341   0.00000  Uiso   1.00
C551   C     0.40031   0.24996   0.73751   0.00000  Uiso   1.00
C552   C     0.59969   0.24995   0.76249   0.00000  Uiso   1.00
C553   C     0.34529   0.24990   0.73076   0.00000  Uiso   1.00
C554   C     0.65472   0.24984   0.76924   0.00000  Uiso   1.00
C555   C     0.46952   0.04501   0.77470   0.00000  Uiso   1.00
C556   C     0.47519   0.45559   0.71415   0.00000  Uiso   1.00
C557   C     0.46557   0.09125   0.77439   0.00000  Uiso   1.00
C558   C     0.49931   0.33616   0.74969   0.00000  Uiso   1.00
C559   C     0.47124   0.40937   0.71247   0.00000  Uiso   1.00
C560   C     0.50061   0.11605   0.75081   0.00000  Uiso   1.00
C561   C     0.50084   0.38423   0.74944   0.00000  Uiso   1.00
C562   C     0.53842   0.09507   0.72800   0.00000  Uiso   1.00
C563   C     0.53326   0.40515   0.78704   0.00000  Uiso   1.00
C564   C     0.54246   0.04882   0.72861   0.00000  Uiso   1.00
C565   C     0.53727   0.45134   0.78852   0.00000  Uiso   1.00
C566   C     0.50753   0.02423   0.75217   0.00000  Uiso   1.00
C567   C     0.50779   0.47622   0.75158   0.00000  Uiso   1.00
C568   C     0.42309   0.11313   0.79757   0.00000  Uiso   1.00
C569   C     0.45776   0.26973   0.54653   0.00000  Uiso   1.00
C570   C     0.43428   0.38809   0.67236   0.00000  Uiso   1.00
C571   C     0.58356   0.02624   0.70443   0.00000  Uiso   1.00
C572   C     0.57288   0.47237   0.82962   0.00000  Uiso   1.00
C573   C     0.41383   0.33426   0.52354   0.00000  Uiso   1.00
C574   C     0.58230   0.33227   0.98260   0.00000  Uiso   1.00
C575   C     0.54280   0.26841   0.95332   0.00000  Uiso   1.00
C576   C     0.45871   0.26840   0.59669   0.00000  Uiso   1.00
C577   C     0.54185   0.26735   0.90327   0.00000  Uiso   1.00
C578   C     0.54103   0.23188   0.60769   0.00000  Uiso   1.00
C579   C     0.45836   0.23283   0.89241   0.00000  Uiso   1.00
C580   C     0.54161   0.23188   0.55811   0.00000  Uiso   1.00
H581   H     0.65794   0.24999   0.69427   0.00000  Uiso   1.00
H582   H     0.42552   0.21879   0.86882   0.00000  Uiso   1.00
H583   H     0.57449   0.21684   0.54438   0.00000  Uiso   1.00
H584   H     0.42420   0.21869   0.95576   0.00000  Uiso   1.00
H585   H     0.44092   0.13264   0.82913   0.00000  Uiso   1.00
H586   H     0.39916   0.13568   0.77156   0.00000  Uiso   1.00
H587   H     0.39624   0.08804   0.80997   0.00000  Uiso   1.00
H588   H     0.40708   0.36487   0.68719   0.00000  Uiso   1.00
H589   H     0.41004   0.41347   0.65024   0.00000  Uiso   1.00
H590   H     0.45694   0.36958   0.64842   0.00000  Uiso   1.00
H591   H     0.61007   0.00612   0.73100   0.00000  Uiso   1.00
H592   H     0.34207   0.24976   0.80573   0.00000  Uiso   1.00
H593   H     0.56433   0.00391   0.67581   0.00000  Uiso   1.00
H594   H     0.60787   0.05088   0.68803   0.00000  Uiso   1.00
H595   H     0.57385   0.00937   0.82737   0.00000  Uiso   1.00
H596   H     0.55939   0.46296   0.86378   0.00000  Uiso   1.00
H597   H     0.61360   0.45995   0.83021   0.00000  Uiso   1.00
H598   H     0.45228   0.35018   0.52030   0.00000  Uiso   1.00
H599   H     0.40167   0.34251   0.55850   0.00000  Uiso   1.00
H600   H     0.38414   0.34889   0.99519   0.00000  Uiso   1.00
H601   H     0.54561   0.34334   0.99543   0.00000  Uiso   1.00
H602   H     0.58457   0.34665   0.94662   0.00000  Uiso   1.00
H603   H     0.44276   0.02489   0.79205   0.00000  Uiso   1.00
H604   H     0.61590   0.34571   0.50766   0.00000  Uiso   1.00
H605   H     0.45251   0.47588   0.68653   0.00000  Uiso   1.00
H606   H     0.56514   0.11494   0.71032   0.00000  Uiso   1.00
H607   H     0.55602   0.38536   0.81507   0.00000  Uiso   1.00
H608   H     0.42624   0.28209   0.61207   0.00000  Uiso   1.00
H609   H     0.57474   0.28064   0.88803   0.00000  Uiso   1.00
H610   H     0.57346   0.21710   0.63136   0.00000  Uiso   1.00
N611   N     0.50000   0.24999   0.62623   0.00000  Uiso   1.00
N612   N     0.50000   0.25001   0.87376   0.00000  Uiso   1.00
O613   O     0.50000   0.18453   0.78974   0.00000  Uiso   1.00
O614   O     0.58621   0.28527   0.98246   0.00000  Uiso   1.00
O615   O     0.50000   0.31546   0.71026   0.00000  Uiso   1.00
O616   O     0.50000   0.18453   0.71026   0.00000  Uiso   1.00
O617   O     0.50000   0.31547   0.78974   0.00000  Uiso   1.00
O618   O     0.42392   0.25000   0.78044   0.00000  Uiso   1.00
O619   O     0.57608   0.25000   0.71955   0.00000  Uiso   1.00
O620   O     0.42392   0.24999   0.70096   0.00000  Uiso   1.00
O621   O     0.57608   0.25000   0.79903   0.00000  Uiso   1.00
O622   O     0.41513   0.28762   0.51678   0.00000  Uiso   1.00
Zn623  Zn    0.50000   0.25000   0.80307   0.00000  Uiso   1.00
Zn624  Zn    0.50000   0.24999   0.69693   0.00000  Uiso   1.00
C625   C     0.83264   0.16394   0.75010   0.00000  Uiso   1.00
C626   C     0.79095   0.23290   0.94198   0.00000  Uiso   1.00
C627   C     0.83296   0.25057   0.52660   0.00000  Uiso   1.00
C628   C     0.83349   0.25056   0.97341   0.00000  Uiso   1.00
C629   C     0.73365   0.24996   0.73751   0.00000  Uiso   1.00
C630   C     0.93302   0.24995   0.76249   0.00000  Uiso   1.00
C631   C     0.67862   0.24990   0.73076   0.00000  Uiso   1.00
C632   C     0.98805   0.24984   0.76924   0.00000  Uiso   1.00
C633   C     0.80286   0.04501   0.77470   0.00000  Uiso   1.00
C634   C     0.80853   0.45559   0.71415   0.00000  Uiso   1.00
C635   C     0.79890   0.09125   0.77439   0.00000  Uiso   1.00
C636   C     0.83264   0.33616   0.74969   0.00000  Uiso   1.00
C637   C     0.80458   0.40937   0.71247   0.00000  Uiso   1.00
C638   C     0.83394   0.11605   0.75081   0.00000  Uiso   1.00
C639   C     0.83417   0.38423   0.74944   0.00000  Uiso   1.00
C640   C     0.87175   0.09507   0.72800   0.00000  Uiso   1.00
C641   C     0.86659   0.40515   0.78704   0.00000  Uiso   1.00
C642   C     0.87579   0.04882   0.72861   0.00000  Uiso   1.00
C643   C     0.87060   0.45134   0.78852   0.00000  Uiso   1.00
C644   C     0.84086   0.02423   0.75217   0.00000  Uiso   1.00
C645   C     0.84112   0.47622   0.75158   0.00000  Uiso   1.00
C646   C     0.75643   0.11313   0.79757   0.00000  Uiso   1.00
C647   C     0.79109   0.26973   0.54653   0.00000  Uiso   1.00
C648   C     0.76761   0.38809   0.67236   0.00000  Uiso   1.00
C649   C     0.91690   0.02624   0.70443   0.00000  Uiso   1.00
C650   C     0.90622   0.47237   0.82962   0.00000  Uiso   1.00
C651   C     0.74717   0.33426   0.52354   0.00000  Uiso   1.00
C652   C     0.91564   0.33227   0.98260   0.00000  Uiso   1.00
C653   C     0.87613   0.26841   0.95332   0.00000  Uiso   1.00
C654   C     0.79205   0.26840   0.59669   0.00000  Uiso   1.00
C655   C     0.87518   0.26735   0.90327   0.00000  Uiso   1.00
C656   C     0.87436   0.23188   0.60769   0.00000  Uiso   1.00
C657   C     0.79170   0.23283   0.89241   0.00000  Uiso   1.00
C658   C     0.87494   0.23188   0.55811   0.00000  Uiso   1.00
H659   H     0.99127   0.24999   0.69427   0.00000  Uiso   1.00
H660   H     0.75885   0.21879   0.86882   0.00000  Uiso   1.00
H661   H     0.90782   0.21684   0.54438   0.00000  Uiso   1.00
H662   H     0.75753   0.21869   0.95576   0.00000  Uiso   1.00
H663   H     0.77426   0.13264   0.82913   0.00000  Uiso   1.00
H664   H     0.73249   0.13568   0.77156   0.00000  Uiso   1.00
H665   H     0.72958   0.08804   0.80997   0.00000  Uiso   1.00
H666   H     0.74042   0.36487   0.68719   0.00000  Uiso   1.00
H667   H     0.74337   0.41347   0.65024   0.00000  Uiso   1.00
H668   H     0.79028   0.36958   0.64842   0.00000  Uiso   1.00
H669   H     0.94340   0.00612   0.73100   0.00000  Uiso   1.00
H670   H     0.67540   0.24976   0.80573   0.00000  Uiso   1.00
H671   H     0.89767   0.00391   0.67581   0.00000  Uiso   1.00
H672   H     0.94120   0.05088   0.68803   0.00000  Uiso   1.00
H673   H     0.90718   0.00937   0.82737   0.00000  Uiso   1.00
H674   H     0.89272   0.46296   0.86378   0.00000  Uiso   1.00
H675   H     0.94694   0.45995   0.83021   0.00000  Uiso   1.00
H676   H     0.78561   0.35018   0.52030   0.00000  Uiso   1.00
H677   H     0.73501   0.34251   0.55850   0.00000  Uiso   1.00
H678   H     0.71747   0.34889   0.99519   0.00000  Uiso   1.00
H679   H     0.87894   0.34334   0.99543   0.00000  Uiso   1.00
H680   H     0.91790   0.34665   0.94662   0.00000  Uiso   1.00
H681   H     0.77609   0.02489   0.79205   0.00000  Uiso   1.00
H682   H     0.94923   0.34571   0.50766   0.00000  Uiso   1.00
H683   H     0.78584   0.47588   0.68653   0.00000  Uiso   1.00
H684   H     0.89847   0.11494   0.71032   0.00000  Uiso   1.00
H685   H     0.88935   0.38536   0.81507   0.00000  Uiso   1.00
H686   H     0.75957   0.28209   0.61207   0.00000  Uiso   1.00
H687   H     0.90808   0.28064   0.88803   0.00000  Uiso   1.00
H688   H     0.90679   0.21710   0.63136   0.00000  Uiso   1.00
N689   N     0.83333   0.24999   0.62623   0.00000  Uiso   1.00
N690   N     0.83333   0.25001   0.87376   0.00000  Uiso   1.00
O691   O     0.83334   0.18453   0.78974   0.00000  Uiso   1.00
O692   O     0.91954   0.28527   0.98246   0.00000  Uiso   1.00
O693   O     0.83333   0.31546   0.71026   0.00000  Uiso   1.00
O694   O     0.83334   0.18453   0.71026   0.00000  Uiso   1.00
O695   O     0.83333   0.31547   0.78974   0.00000  Uiso   1.00
O696   O     0.75725   0.25000   0.78044   0.00000  Uiso   1.00
O697   O     0.90942   0.25000   0.71955   0.00000  Uiso   1.00
O698   O     0.75725   0.24999   0.70096   0.00000  Uiso   1.00
O699   O     0.90942   0.25000   0.79903   0.00000  Uiso   1.00
O700   O     0.74846   0.28762   0.51678   0.00000  Uiso   1.00
Zn701  Zn    0.83333   0.25000   0.80307   0.00000  Uiso   1.00
Zn702  Zn    0.83333   0.24999   0.69693   0.00000  Uiso   1.00
C703   C     0.16597   0.66394   0.75010   0.00000  Uiso   1.00
C704   C     0.12429   0.73290   0.94198   0.00000  Uiso   1.00
C705   C     0.16629   0.75057   0.52660   0.00000  Uiso   1.00
C706   C     0.16682   0.75056   0.97341   0.00000  Uiso   1.00
C707   C     0.06698   0.74996   0.73751   0.00000  Uiso   1.00
C708   C     0.26636   0.74995   0.76249   0.00000  Uiso   1.00
C709   C     0.01195   0.74990   0.73076   0.00000  Uiso   1.00
C710   C     0.32139   0.74984   0.76924   0.00000  Uiso   1.00
C711   C     0.13619   0.54501   0.77470   0.00000  Uiso   1.00
C712   C     0.14186   0.95559   0.71415   0.00000  Uiso   1.00
C713   C     0.13223   0.59125   0.77439   0.00000  Uiso   1.00
C714   C     0.16598   0.83616   0.74969   0.00000  Uiso   1.00
C715   C     0.13791   0.90937   0.71247   0.00000  Uiso   1.00
C716   C     0.16727   0.61605   0.75081   0.00000  Uiso   1.00
C717   C     0.16751   0.88423   0.74944   0.00000  Uiso   1.00
C718   C     0.20509   0.59507   0.72800   0.00000  Uiso   1.00
C719   C     0.19992   0.90515   0.78704   0.00000  Uiso   1.00
C720   C     0.20912   0.54882   0.72861   0.00000  Uiso   1.00
C721   C     0.20393   0.95134   0.78852   0.00000  Uiso   1.00
C722   C     0.17420   0.52423   0.75217   0.00000  Uiso   1.00
C723   C     0.17445   0.97622   0.75158   0.00000  Uiso   1.00
C724   C     0.08976   0.61313   0.79757   0.00000  Uiso   1.00
C725   C     0.12442   0.76973   0.54653   0.00000  Uiso   1.00
C726   C     0.10094   0.88809   0.67236   0.00000  Uiso   1.00
C727   C     0.25023   0.52624   0.70443   0.00000  Uiso   1.00
C728   C     0.23955   0.97237   0.82962   0.00000  Uiso   1.00
C729   C     0.08050   0.83426   0.52354   0.00000  Uiso   1.00
C730   C     0.24897   0.83227   0.98260   0.00000  Uiso   1.00
C731   C     0.20946   0.76841   0.95332   0.00000  Uiso   1.00
C732   C     0.12538   0.76840   0.59669   0.00000  Uiso   1.00
C733   C     0.20851   0.76735   0.90327   0.00000  Uiso   1.00
C734   C     0.20769   0.73188   0.60769   0.00000  Uiso   1.00
C735   C     0.12503   0.73283   0.89241   0.00000  Uiso   1.00
C736   C     0.20827   0.73188   0.55811   0.00000  Uiso   1.00
H737   H     0.32461   0.74999   0.69427   0.00000  Uiso   1.00
H738   H     0.09219   0.71879   0.86882   0.00000  Uiso   1.00
H739   H     0.24115   0.71684   0.54438   0.00000  Uiso   1.00
H740   H     0.09087   0.71869   0.95576   0.00000  Uiso   1.00
H741   H     0.10759   0.63264   0.82913   0.00000  Uiso   1.00
H742   H     0.06582   0.63568   0.77156   0.00000  Uiso   1.00
H743   H     0.06291   0.58804   0.80997   0.00000  Uiso   1.00
H744   H     0.07375   0.86487   0.68719   0.00000  Uiso   1.00
H745   H     0.07671   0.91347   0.65024   0.00000  Uiso   1.00
H746   H     0.12361   0.86958   0.64842   0.00000  Uiso   1.00
H747   H     0.27673   0.50612   0.73100   0.00000  Uiso   1.00
H748   H     0.00873   0.74976   0.80573   0.00000  Uiso   1.00
H749   H     0.23100   0.50391   0.67581   0.00000  Uiso   1.00
H750   H     0.27453   0.55088   0.68803   0.00000  Uiso   1.00
H751   H     0.24051   0.50937   0.82737   0.00000  Uiso   1.00
H752   H     0.22606   0.96296   0.86378   0.00000  Uiso   1.00
H753   H     0.28027   0.95995   0.83021   0.00000  Uiso   1.00
H754   H     0.11895   0.85018   0.52030   0.00000  Uiso   1.00
H755   H     0.06834   0.84251   0.55850   0.00000  Uiso   1.00
H756   H     0.05081   0.84889   0.99519   0.00000  Uiso   1.00
H757   H     0.21228   0.84334   0.99543   0.00000  Uiso   1.00
H758   H     0.25124   0.84665   0.94662   0.00000  Uiso   1.00
H759   H     0.10942   0.52489   0.79205   0.00000  Uiso   1.00
H760   H     0.28257   0.84571   0.50766   0.00000  Uiso   1.00
H761   H     0.11917   0.97588   0.68653   0.00000  Uiso   1.00
H762   H     0.23180   0.61494   0.71032   0.00000  Uiso   1.00
H763   H     0.22268   0.88536   0.81507   0.00000  Uiso   1.00
H764   H     0.09290   0.78209   0.61207   0.00000  Uiso   1.00
H765   H     0.24141   0.78064   0.88803   0.00000  Uiso   1.00
H766   H     0.24013   0.71710   0.63136   0.00000  Uiso   1.00
N767   N     0.16667   0.74999   0.62623   0.00000  Uiso   1.00
N768   N     0.16667   0.75001   0.87376   0.00000  Uiso   1.00
O769   O     0.16667   0.68453   0.78974   0.00000  Uiso   1.00
O770   O     0.25287   0.78527   0.98246   0.00000  Uiso   1.00
O771   O     0.16666   0.81546   0.71026   0.00000  Uiso   1.00
O772   O     0.16667   0.68453   0.71026   0.00000  Uiso   1.00
O773   O     0.16666   0.81547   0.78974   0.00000  Uiso   1.00
O774   O     0.09058   0.75000   0.78044   0.00000  Uiso   1.00
O775   O     0.24275   0.75000   0.71955   0.00000  Uiso   1.00
O776   O     0.09058   0.74999   0.70096   0.00000  Uiso   1.00
O777   O     0.24275   0.75000   0.79903   0.00000  Uiso   1.00
O778   O     0.08179   0.78762   0.51678   0.00000  Uiso   1.00
Zn779  Zn    0.16667   0.75000   0.80307   0.00000  Uiso   1.00
Zn780  Zn    0.16667   0.74999   0.69693   0.00000  Uiso   1.00
C781   C     0.49930   0.66394   0.75010   0.00000  Uiso   1.00
C782   C     0.45762   0.73290   0.94198   0.00000  Uiso   1.00
C783   C     0.49963   0.75057   0.52660   0.00000  Uiso   1.00
C784   C     0.50015   0.75056   0.97341   0.00000  Uiso   1.00
C785   C     0.40031   0.74996   0.73751   0.00000  Uiso   1.00
C786   C     0.59969   0.74995   0.76249   0.00000  Uiso   1.00
C787   C     0.34529   0.74990   0.73076   0.00000  Uiso   1.00
C788   C     0.65472   0.74984   0.76924   0.00000  Uiso   1.00
C789   C     0.46952   0.54501   0.77470   0.00000  Uiso   1.00
C790   C     0.47519   0.95559   0.71415   0.00000  Uiso   1.00
C791   C     0.46557   0.59125   0.77439   0.00000  Uiso   1.00
C792   C     0.49931   0.83616   0.74969   0.00000  Uiso   1.00
C793   C     0.47124   0.90937   0.71247   0.00000  Uiso   1.00
C794   C     0.50061   0.61605   0.75081   0.00000  Uiso   1.00
C795   C     0.50084   0.88423   0.74944   0.00000  Uiso   1.00
C796   C     0.53842   0.59507   0.72800   0.00000  Uiso   1.00
C797   C     0.53326   0.90515   0.78704   0.00000  Uiso   1.00
C798   C     0.54246   0.54882   0.72861   0.00000  Uiso   1.00
C799   C     0.53727   0.95134   0.78852   0.00000  Uiso   1.00
C800   C     0.50753   0.52423   0.75217   0.00000  Uiso   1.00
C801   C     0.50779   0.97622   0.75158   0.00000  Uiso   1.00
C802   C     0.42309   0.61313   0.79757   0.00000  Uiso   1.00
C803   C     0.45776   0.76973   0.54653   0.00000  Uiso   1.00
C804   C     0.43428   0.88809   0.67236   0.00000  Uiso   1.00
C805   C     0.58356   0.52624   0.70443   0.00000  Uiso   1.00
C806   C     0.57288   0.97237   0.82962   0.00000  Uiso   1.00
C807   C     0.41383   0.83426   0.52354   0.00000  Uiso   1.00
C808   C     0.58230   0.83227   0.98260   0.00000  Uiso   1.00
C809   C     0.54280   0.76841   0.95332   0.00000  Uiso   1.00
C810   C     0.45871   0.76840   0.59669   0.00000  Uiso   1.00
C811   C     0.54185   0.76735   0.90327   0.00000  Uiso   1.00
C812   C     0.54103   0.73188   0.60769   0.00000  Uiso   1.00
C813   C     0.45836   0.73283   0.89241   0.00000  Uiso   1.00
C814   C     0.54161   0.73188   0.55811   0.00000  Uiso   1.00
H815   H     0.65794   0.74999   0.69427   0.00000  Uiso   1.00
H816   H     0.42552   0.71879   0.86882   0.00000  Uiso   1.00
H817   H     0.57449   0.71684   0.54438   0.00000  Uiso   1.00
H818   H     0.42420   0.71869   0.95576   0.00000  Uiso   1.00
H819   H     0.44092   0.63264   0.82913   0.00000  Uiso   1.00
H820   H     0.39916   0.63568   0.77156   0.00000  Uiso   1.00
H821   H     0.39624   0.58804   0.80997   0.00000  Uiso   1.00
H822   H     0.40708   0.86487   0.68719   0.00000  Uiso   1.00
H823   H     0.41004   0.91347   0.65024   0.00000  Uiso   1.00
H824   H     0.45694   0.86958   0.64842   0.00000  Uiso   1.00
H825   H     0.61007   0.50612   0.73100   0.00000  Uiso   1.00
H826   H     0.34207   0.74976   0.80573   0.00000  Uiso   1.00
H827   H     0.56433   0.50391   0.67581   0.00000  Uiso   1.00
H828   H     0.60787   0.55088   0.68803   0.00000  Uiso   1.00
H829   H     0.57385   0.50937   0.82737   0.00000  Uiso   1.00
H830   H     0.55939   0.96296   0.86378   0.00000  Uiso   1.00
H831   H     0.61360   0.95995   0.83021   0.00000  Uiso   1.00
H832   H     0.45228   0.85018   0.52030   0.00000  Uiso   1.00
H833   H     0.40167   0.84251   0.55850   0.00000  Uiso   1.00
H834   H     0.38414   0.84889   0.99519   0.00000  Uiso   1.00
H835   H     0.54561   0.84334   0.99543   0.00000  Uiso   1.00
H836   H     0.58457   0.84665   0.94662   0.00000  Uiso   1.00
H837   H     0.44276   0.52489   0.79205   0.00000  Uiso   1.00
H838   H     0.61590   0.84571   0.50766   0.00000  Uiso   1.00
H839   H     0.45251   0.97588   0.68653   0.00000  Uiso   1.00
H840   H     0.56514   0.61494   0.71032   0.00000  Uiso   1.00
H841   H     0.55602   0.88536   0.81507   0.00000  Uiso   1.00
H842   H     0.42624   0.78209   0.61207   0.00000  Uiso   1.00
H843   H     0.57474   0.78064   0.88803   0.00000  Uiso   1.00
H844   H     0.57346   0.71710   0.63136   0.00000  Uiso   1.00
N845   N     0.50000   0.74999   0.62623   0.00000  Uiso   1.00
N846   N     0.50000   0.75001   0.87376   0.00000  Uiso   1.00
O847   O     0.50000   0.68453   0.78974   0.00000  Uiso   1.00
O848   O     0.58621   0.78527   0.98246   0.00000  Uiso   1.00
O849   O     0.50000   0.81546   0.71026   0.00000  Uiso   1.00
O850   O     0.50000   0.68453   0.71026   0.00000  Uiso   1.00
O851   O     0.50000   0.81547   0.78974   0.00000  Uiso   1.00
O852   O     0.42392   0.75000   0.78044   0.00000  Uiso   1.00
O853   O     0.57608   0.75000   0.71955   0.00000  Uiso   1.00
O854   O     0.42392   0.74999   0.70096   0.00000  Uiso   1.00
O855   O     0.57608   0.75000   0.79903   0.00000  Uiso   1.00
O856   O     0.41513   0.78762   0.51678   0.00000  Uiso   1.00
Zn857  Zn    0.50000   0.75000   0.80307   0.00000  Uiso   1.00
Zn858  Zn    0.50000   0.74999   0.69693   0.00000  Uiso   1.00
C859   C     0.83264   0.66394   0.75010   0.00000  Uiso   1.00
C860   C     0.79095   0.73290   0.94198   0.00000  Uiso   1.00
C861   C     0.83296   0.75057   0.52660   0.00000  Uiso   1.00
C862   C     0.83349   0.75056   0.97341   0.00000  Uiso   1.00
C863   C     0.73365   0.74996   0.73751   0.00000  Uiso   1.00
C864   C     0.93302   0.74995   0.76249   0.00000  Uiso   1.00
C865   C     0.67862   0.74990   0.73076   0.00000  Uiso   1.00
C866   C     0.98805   0.74984   0.76924   0.00000  Uiso   1.00
C867   C     0.80286   0.54501   0.77470   0.00000  Uiso   1.00
C868   C     0.80853   0.95559   0.71415   0.00000  Uiso   1.00
C869   C     0.79890   0.59125   0.77439   0.00000  Uiso   1.00
C870   C     0.83264   0.83616   0.74969   0.00000  Uiso   1.00
C871   C     0.80458   0.90937   0.71247   0.00000  Uiso   1.00
C872   C     0.83394   0.61605   0.75081   0.00000  Uiso   1.00
C873   C     0.83417   0.88423   0.74944   0.00000  Uiso   1.00
C874   C     0.87175   0.59507   0.72800   0.00000  Uiso   1.00
C875   C     0.86659   0.90515   0.78704   0.00000  Uiso   1.00
C876   C     0.87579   0.54882   0.72861   0.00000  Uiso   1.00
C877   C     0.87060   0.95134   0.78852   0.00000  Uiso   1.00
C878   C     0.84086   0.52423   0.75217   0.00000  Uiso   1.00
C879   C     0.84112   0.97622   0.75158   0.00000  Uiso   1.00
C880   C     0.75643   0.61313   0.79757   0.00000  Uiso   1.00
C881   C     0.79109   0.76973   0.54653   0.00000  Uiso   1.00
C882   C     0.76761   0.88809   0.67236   0.00000  Uiso   1.00
C883   C     0.91690   0.52624   0.70443   0.00000  Uiso   1.00
C884   C     0.90622   0.97237   0.82962   0.00000  Uiso   1.00
C885   C     0.74717   0.83426   0.52354   0.00000  Uiso   1.00
C886   C     0.91564   0.83227   0.98260   0.00000  Uiso   1.00
C887   C     0.87613   0.76841   0.95332   0.00000  Uiso   1.00
C888   C     0.79205   0.76840   0.59669   0.00000  Uiso   1.00
C889   C     0.87518   0.76735   0.90327   0.00000  Uiso   1.00
C890   C     0.87436   0.73188   0.60769   0.00000  Uiso   1.00
C891   C     0.79170   0.73283   0.89241   0.00000  Uiso   1.00
C892   C     0.87494   0.73188   0.55811   0.00000  Uiso   1.00
H893   H     0.99127   0.74999   0.69427   0.00000  Uiso   1.00
H894   H     0.75885   0.71879   0.86882   0.00000  Uiso   1.00
H895   H     0.90782   0.71684   0.54438   0.00000  Uiso   1.00
H896   H     0.75753   0.71869   0.95576   0.00000  Uiso   1.00
H897   H     0.77426   0.63264   0.82913   0.00000  Uiso   1.00
H898   H     0.73249   0.63568   0.77156   0.00000  Uiso   1.00
H899   H     0.72958   0.58804   0.80997   0.00000  Uiso   1.00
H900   H     0.74042   0.86487   0.68719   0.00000  Uiso   1.00
H901   H     0.74337   0.91347   0.65024   0.00000  Uiso   1.00
H902   H     0.79028   0.86958   0.64842   0.00000  Uiso   1.00
H903   H     0.94340   0.50612   0.73100   0.00000  Uiso   1.00
H904   H     0.67540   0.74976   0.80573   0.00000  Uiso   1.00
H905   H     0.89767   0.50391   0.67581   0.00000  Uiso   1.00
H906   H     0.94120   0.55088   0.68803   0.00000  Uiso   1.00
H907   H     0.90718   0.50937   0.82737   0.00000  Uiso   1.00
H908   H     0.89272   0.96296   0.86378   0.00000  Uiso   1.00
H909   H     0.94694   0.95995   0.83021   0.00000  Uiso   1.00
H910   H     0.78561   0.85018   0.52030   0.00000  Uiso   1.00
H911   H     0.73501   0.84251   0.55850   0.00000  Uiso   1.00
H912   H     0.71747   0.84889   0.99519   0.00000  Uiso   1.00
H913   H     0.87894   0.84334   0.99543   0.00000  Uiso   1.00
H914   H     0.91790   0.84665   0.94662   0.00000  Uiso   1.00
H915   H     0.77609   0.52489   0.79205   0.00000  Uiso   1.00
H916   H     0.94923   0.84571   0.50766   0.00000  Uiso   1.00
H917   H     0.78584   0.97588   0.68653   0.00000  Uiso   1.00
H918   H     0.89847   0.61494   0.71032   0.00000  Uiso   1.00
H919   H     0.88935   0.88536   0.81507   0.00000  Uiso   1.00
H920   H     0.75957   0.78209   0.61207   0.00000  Uiso   1.00
H921   H     0.90808   0.78064   0.88803   0.00000  Uiso   1.00
H922   H     0.90679   0.71710   0.63136   0.00000  Uiso   1.00
N923   N     0.83333   0.74999   0.62623   0.00000  Uiso   1.00
N924   N     0.83333   0.75001   0.87376   0.00000  Uiso   1.00
O925   O     0.83334   0.68453   0.78974   0.00000  Uiso   1.00
O926   O     0.91954   0.78527   0.98246   0.00000  Uiso   1.00
O927   O     0.83333   0.81546   0.71026   0.00000  Uiso   1.00
O928   O     0.83334   0.68453   0.71026   0.00000  Uiso   1.00
O929   O     0.83333   0.81547   0.78974   0.00000  Uiso   1.00
O930   O     0.75725   0.75000   0.78044   0.00000  Uiso   1.00
O931   O     0.90942   0.75000   0.71955   0.00000  Uiso   1.00
O932   O     0.75725   0.74999   0.70096   0.00000  Uiso   1.00
O933   O     0.90942   0.75000   0.79903   0.00000  Uiso   1.00
O934   O     0.74846   0.78762   0.51678   0.00000  Uiso   1.00
Zn935  Zn    0.83333   0.75000   0.80307   0.00000  Uiso   1.00
Zn936  Zn    0.83333   0.74999   0.69693   0.00000  Uiso   1.00
loop_
_geom_bond_atom_site_label_1
_geom_bond_atom_site_label_2
_geom_bond_distance
_geom_bond_site_symmetry_2
_ccdc_geom_bond_type
C1     O70     1.284   .     A
C1     O67     1.281   .     A
C1     C14     1.433   .     S
C2     C4      1.407   .     A
C2     H38     1.083   .     S
C2     C33     1.407   .     A
C3     C23     1.414   .     A
C3     C34     1.407   .     A
C3     C472    1.508   1_554 S
C4     C29     1.414   .     A
C4     C471    1.508   .     S
C5     O72     1.274   .     A
C5     O74     1.277   .     A
C5     C7      1.401   .     S
C6     O75     1.277   .     A
C6     C8      1.401   .     S
C6     O73     1.274   .     A
C7     C164    1.330   1_455 S
C7     H191    1.088   1_455 S
C8     C85     1.330   .     S
C8     H124    1.088   .     S
C9     H57     1.085   .     S
C9     C20     1.395   .     A
C9     C11     1.387   .     A
C10    C21     1.395   .     A
C10    C13     1.387   .     A
C10    H59     1.085   .     S
C11    C14     1.409   .     A
C11    C22     1.510   .     S
C12    O69     1.282   .     A
C12    C15     1.438   .     S
C12    O71     1.286   .     A
C13    C24     1.510   .     S
C13    C15     1.411   .     A
C14    C16     1.398   .     A
C15    C17     1.400   .     A
C16    H60     1.085   .     S
C16    C18     1.387   .     A
C17    C19     1.386   .     A
C17    H61     1.085   .     S
C18    C25     1.507   .     S
C18    C20     1.403   .     A
C19    C21     1.405   .     A
C19    C26     1.509   .     S
C20    C255    1.436   1_545 S
C21    C254    1.436   .     S
C22    H41     1.111   .     S
C22    H40     1.111   .     S
C22    H39     1.110   .     S
C23    O76     1.384   .     S
C23    C30     1.417   .     A
C24    H42     1.111   .     S
C24    H44     1.110   .     S
C24    H43     1.111   .     S
C25    H47     1.110   .     S
C25    H48     1.111   .     S
C25    H45     1.110   .     S
C26    H50     1.110   .     S
C26    H51     1.110   .     S
C26    H283    1.108   .     S
C27    O76     1.410   .     S
C27    H52     1.114   .     S
C27    H53     1.111   .     S
C27    H522    1.109   1_554 S
C28    H56     1.113   .     S
C28    H55     1.114   .     S
C28    O68     1.409   .     S
C28    H526    1.109   .     S
C29    O68     1.382   .     S
C29    C31     1.414   .     A
C30    H62     1.081   .     S
C30    N65     1.363   .     A
C31    N66     1.364   .     A
C31    H63     1.082   .     S
C32    H64     1.081   .     S
C32    C34     1.406   .     A
C32    N65     1.363   .     A
C33    H36     1.081   .     S
C33    N66     1.364   .     A
C34    H37     1.083   .     S
H35    C85     1.088   .     S
H46    C164    1.088   1_455 S
H49    C260    1.108   1_545 S
H54    C495    1.109   .     S
H58    C496    1.109   1_554 S
N65    Zn78    2.001   .     S
N66    Zn77    2.001   .     S
O67    Zn77    1.996   .     S
O69    Zn78    1.996   .     S
O70    Zn78    1.992   .     S
O71    Zn77    1.992   .     S
O72    Zn77    1.967   .     S
O73    Zn78    1.967   .     S
O74    Zn78    1.980   .     S
O75    Zn77    1.980   .     S
C79    O148    1.284   .     A
C79    O145    1.281   .     A
C79    C92     1.433   .     S
C80    C82     1.407   .     A
C80    H116    1.083   .     S
C80    C111    1.407   .     A
C81    C101    1.414   .     A
C81    C112    1.407   .     A
C81    C550    1.508   1_554 S
C82    C107    1.414   .     A
C82    C549    1.508   .     S
C83    O150    1.274   .     A
C83    O152    1.277   .     A
C83    C85     1.401   .     S
C84    O153    1.277   .     A
C84    C86     1.401   .     S
C84    O151    1.274   .     A
C86    C163    1.330   .     S
C86    H202    1.088   .     S
C87    H135    1.085   .     S
C87    C98     1.395   .     A
C87    C89     1.387   .     A
C88    C99     1.395   .     A
C88    C91     1.387   .     A
C88    H137    1.085   .     S
C89    C92     1.409   .     A
C89    C100    1.510   .     S
C90    O147    1.282   .     A
C90    C93     1.438   .     S
C90    O149    1.286   .     A
C91    C102    1.510   .     S
C91    C93     1.411   .     A
C92    C94     1.398   .     A
C93    C95     1.400   .     A
C94    H138    1.085   .     S
C94    C96     1.387   .     A
C95    C97     1.386   .     A
C95    H139    1.085   .     S
C96    C103    1.507   .     S
C96    C98     1.403   .     A
C97    C99     1.405   .     A
C97    C104    1.509   .     S
C98    C333    1.436   1_545 S
C99    C332    1.436   .     S
C100   H119    1.111   .     S
C100   H118    1.111   .     S
C100   H117    1.110   .     S
C101   O154    1.384   .     S
C101   C108    1.417   .     A
C102   H120    1.111   .     S
C102   H122    1.110   .     S
C102   H121    1.111   .     S
C103   H125    1.110   .     S
C103   H126    1.111   .     S
C103   H123    1.110   .     S
C104   H128    1.110   .     S
C104   H129    1.110   .     S
C104   H361    1.108   .     S
C105   O154    1.410   .     S
C105   H130    1.114   .     S
C105   H131    1.111   .     S
C105   H600    1.109   1_554 S
C106   H134    1.113   .     S
C106   H133    1.114   .     S
C106   O146    1.409   .     S
C106   H604    1.109   .     S
C107   O146    1.382   .     S
C107   C109    1.414   .     A
C108   H140    1.081   .     S
C108   N143    1.363   .     A
C109   N144    1.364   .     A
C109   H141    1.082   .     S
C110   H142    1.081   .     S
C110   C112    1.406   .     A
C110   N143    1.363   .     A
C111   H114    1.081   .     S
C111   N144    1.364   .     A
C112   H115    1.083   .     S
H113   C163    1.088   .     S
H127   C338    1.108   1_545 S
H132   C573    1.109   .     S
H136   C574    1.109   1_554 S
N143   Zn156   2.001   .     S
N144   Zn155   2.001   .     S
O145   Zn155   1.996   .     S
O147   Zn156   1.996   .     S
O148   Zn156   1.992   .     S
O149   Zn155   1.992   .     S
O150   Zn155   1.967   .     S
O151   Zn156   1.967   .     S
O152   Zn156   1.980   .     S
O153   Zn155   1.980   .     S
C157   O226    1.284   .     A
C157   O223    1.281   .     A
C157   C170    1.433   .     S
C158   C160    1.407   .     A
C158   H194    1.083   .     S
C158   C189    1.407   .     A
C159   C179    1.414   .     A
C159   C190    1.407   .     A
C159   C628    1.508   1_554 S
C160   C185    1.414   .     A
C160   C627    1.508   .     S
C161   O228    1.274   .     A
C161   O230    1.277   .     A
C161   C163    1.401   .     S
C162   O231    1.277   .     A
C162   C164    1.401   .     S
C162   O229    1.274   .     A
C164   C7      1.330   1_655 S
C164   H46     1.088   1_655 S
C165   H213    1.085   .     S
C165   C176    1.395   .     A
C165   C167    1.387   .     A
C166   C177    1.395   .     A
C166   C169    1.387   .     A
C166   H215    1.085   .     S
C167   C170    1.409   .     A
C167   C178    1.510   .     S
C168   O225    1.282   .     A
C168   C171    1.438   .     S
C168   O227    1.286   .     A
C169   C180    1.510   .     S
C169   C171    1.411   .     A
C170   C172    1.398   .     A
C171   C173    1.400   .     A
C172   H216    1.085   .     S
C172   C174    1.387   .     A
C173   C175    1.386   .     A
C173   H217    1.085   .     S
C174   C181    1.507   .     S
C174   C176    1.403   .     A
C175   C177    1.405   .     A
C175   C182    1.509   .     S
C176   C411    1.436   1_545 S
C177   C410    1.436   .     S
C178   H197    1.111   .     S
C178   H196    1.111   .     S
C178   H195    1.110   .     S
C179   O232    1.384   .     S
C179   C186    1.417   .     A
C180   H198    1.111   .     S
C180   H200    1.110   .     S
C180   H199    1.111   .     S
C181   H203    1.110   .     S
C181   H204    1.111   .     S
C181   H201    1.110   .     S
C182   H206    1.110   .     S
C182   H207    1.110   .     S
C182   H439    1.108   .     S
C183   O232    1.410   .     S
C183   H208    1.114   .     S
C183   H209    1.111   .     S
C183   H678    1.109   1_554 S
C184   H212    1.113   .     S
C184   H211    1.114   .     S
C184   O224    1.409   .     S
C184   H682    1.109   .     S
C185   O224    1.382   .     S
C185   C187    1.414   .     A
C186   H218    1.081   .     S
C186   N221    1.363   .     A
C187   N222    1.364   .     A
C187   H219    1.082   .     S
C188   H220    1.081   .     S
C188   C190    1.406   .     A
C188   N221    1.363   .     A
C189   H192    1.081   .     S
C189   N222    1.364   .     A
C190   H193    1.083   .     S
H191   C7      1.088   1_655 S
H205   C416    1.108   1_545 S
H210   C651    1.109   .     S
H214   C652    1.109   1_554 S
N221   Zn234   2.001   .     S
N222   Zn233   2.001   .     S
O223   Zn233   1.996   .     S
O225   Zn234   1.996   .     S
O226   Zn234   1.992   .     S
O227   Zn233   1.992   .     S
O228   Zn233   1.967   .     S
O229   Zn234   1.967   .     S
O230   Zn234   1.980   .     S
O231   Zn233   1.980   .     S
C235   O304    1.284   .     A
C235   O301    1.281   .     A
C235   C248    1.433   .     S
C236   C238    1.407   .     A
C236   H272    1.083   .     S
C236   C267    1.407   .     A
C237   C257    1.414   .     A
C237   C268    1.407   .     A
C237   C706    1.508   1_554 S
C238   C263    1.414   .     A
C238   C705    1.508   .     S
C239   O306    1.274   .     A
C239   O308    1.277   .     A
C239   C241    1.401   .     S
C240   O309    1.277   .     A
C240   C242    1.401   .     S
C240   O307    1.274   .     A
C241   C398    1.330   1_455 S
C241   H425    1.088   1_455 S
C242   C319    1.330   .     S
C242   H358    1.088   .     S
C243   H291    1.085   .     S
C243   C254    1.395   .     A
C243   C245    1.387   .     A
C244   C255    1.395   .     A
C244   C247    1.387   .     A
C244   H293    1.085   .     S
C245   C248    1.409   .     A
C245   C256    1.510   .     S
C246   O303    1.282   .     A
C246   C249    1.438   .     S
C246   O305    1.286   .     A
C247   C258    1.510   .     S
C247   C249    1.411   .     A
C248   C250    1.398   .     A
C249   C251    1.400   .     A
C250   H294    1.085   .     S
C250   C252    1.387   .     A
C251   C253    1.386   .     A
C251   H295    1.085   .     S
C252   C259    1.507   .     S
C252   C254    1.403   .     A
C253   C255    1.405   .     A
C253   C260    1.509   .     S
C255   C20     1.436   1_565 S
C256   H275    1.111   .     S
C256   H274    1.111   .     S
C256   H273    1.110   .     S
C257   O310    1.384   .     S
C257   C264    1.417   .     A
C258   H276    1.111   .     S
C258   H278    1.110   .     S
C258   H277    1.111   .     S
C259   H281    1.110   .     S
C259   H282    1.111   .     S
C259   H279    1.110   .     S
C260   H284    1.110   .     S
C260   H285    1.110   .     S
C260   H49     1.108   1_565 S
C261   O310    1.410   .     S
C261   H286    1.114   .     S
C261   H287    1.111   .     S
C261   H756    1.109   1_554 S
C262   H290    1.113   .     S
C262   H289    1.114   .     S
C262   O302    1.409   .     S
C262   H760    1.109   .     S
C263   O302    1.382   .     S
C263   C265    1.414   .     A
C264   H296    1.081   .     S
C264   N299    1.363   .     A
C265   N300    1.364   .     A
C265   H297    1.082   .     S
C266   H298    1.081   .     S
C266   C268    1.406   .     A
C266   N299    1.363   .     A
C267   H270    1.081   .     S
C267   N300    1.364   .     A
C268   H271    1.083   .     S
H269   C319    1.088   .     S
H280   C398    1.088   1_455 S
H288   C729    1.109   .     S
H292   C730    1.109   1_554 S
N299   Zn312   2.001   .     S
N300   Zn311   2.001   .     S
O301   Zn311   1.996   .     S
O303   Zn312   1.996   .     S
O304   Zn312   1.992   .     S
O305   Zn311   1.992   .     S
O306   Zn311   1.967   .     S
O307   Zn312   1.967   .     S
O308   Zn312   1.980   .     S
O309   Zn311   1.980   .     S
C313   O382    1.284   .     A
C313   O379    1.281   .     A
C313   C326    1.433   .     S
C314   C316    1.407   .     A
C314   H350    1.083   .     S
C314   C345    1.407   .     A
C315   C335    1.414   .     A
C315   C346    1.407   .     A
C315   C784    1.508   1_554 S
C316   C341    1.414   .     A
C316   C783    1.508   .     S
C317   O384    1.274   .     A
C317   O386    1.277   .     A
C317   C319    1.401   .     S
C318   O387    1.277   .     A
C318   C320    1.401   .     S
C318   O385    1.274   .     A
C320   C397    1.330   .     S
C320   H436    1.088   .     S
C321   H369    1.085   .     S
C321   C332    1.395   .     A
C321   C323    1.387   .     A
C322   C333    1.395   .     A
C322   C325    1.387   .     A
C322   H371    1.085   .     S
C323   C326    1.409   .     A
C323   C334    1.510   .     S
C324   O381    1.282   .     A
C324   C327    1.438   .     S
C324   O383    1.286   .     A
C325   C336    1.510   .     S
C325   C327    1.411   .     A
C326   C328    1.398   .     A
C327   C329    1.400   .     A
C328   H372    1.085   .     S
C328   C330    1.387   .     A
C329   C331    1.386   .     A
C329   H373    1.085   .     S
C330   C337    1.507   .     S
C330   C332    1.403   .     A
C331   C333    1.405   .     A
C331   C338    1.509   .     S
C333   C98     1.436   1_565 S
C334   H353    1.111   .     S
C334   H352    1.111   .     S
C334   H351    1.110   .     S
C335   O388    1.384   .     S
C335   C342    1.417   .     A
C336   H354    1.111   .     S
C336   H356    1.110   .     S
C336   H355    1.111   .     S
C337   H359    1.110   .     S
C337   H360    1.111   .     S
C337   H357    1.110   .     S
C338   H362    1.110   .     S
C338   H363    1.110   .     S
C338   H127    1.108   1_565 S
C339   O388    1.410   .     S
C339   H364    1.114   .     S
C339   H365    1.111   .     S
C339   H834    1.109   1_554 S
C340   H368    1.113   .     S
C340   H367    1.114   .     S
C340   O380    1.409   .     S
C340   H838    1.109   .     S
C341   O380    1.382   .     S
C341   C343    1.414   .     A
C342   H374    1.081   .     S
C342   N377    1.363   .     A
C343   N378    1.364   .     A
C343   H375    1.082   .     S
C344   H376    1.081   .     S
C344   C346    1.406   .     A
C344   N377    1.363   .     A
C345   H348    1.081   .     S
C345   N378    1.364   .     A
C346   H349    1.083   .     S
H347   C397    1.088   .     S
H366   C807    1.109   .     S
H370   C808    1.109   1_554 S
N377   Zn390   2.001   .     S
N378   Zn389   2.001   .     S
O379   Zn389   1.996   .     S
O381   Zn390   1.996   .     S
O382   Zn390   1.992   .     S
O383   Zn389   1.992   .     S
O384   Zn389   1.967   .     S
O385   Zn390   1.967   .     S
O386   Zn390   1.980   .     S
O387   Zn389   1.980   .     S
C391   O460    1.284   .     A
C391   O457    1.281   .     A
C391   C404    1.433   .     S
C392   C394    1.407   .     A
C392   H428    1.083   .     S
C392   C423    1.407   .     A
C393   C413    1.414   .     A
C393   C424    1.407   .     A
C393   C862    1.508   1_554 S
C394   C419    1.414   .     A
C394   C861    1.508   .     S
C395   O462    1.274   .     A
C395   O464    1.277   .     A
C395   C397    1.401   .     S
C396   O465    1.277   .     A
C396   C398    1.401   .     S
C396   O463    1.274   .     A
C398   C241    1.330   1_655 S
C398   H280    1.088   1_655 S
C399   H447    1.085   .     S
C399   C410    1.395   .     A
C399   C401    1.387   .     A
C400   C411    1.395   .     A
C400   C403    1.387   .     A
C400   H449    1.085   .     S
C401   C404    1.409   .     A
C401   C412    1.510   .     S
C402   O459    1.282   .     A
C402   C405    1.438   .     S
C402   O461    1.286   .     A
C403   C414    1.510   .     S
C403   C405    1.411   .     A
C404   C406    1.398   .     A
C405   C407    1.400   .     A
C406   H450    1.085   .     S
C406   C408    1.387   .     A
C407   C409    1.386   .     A
C407   H451    1.085   .     S
C408   C415    1.507   .     S
C408   C410    1.403   .     A
C409   C411    1.405   .     A
C409   C416    1.509   .     S
C411   C176    1.436   1_565 S
C412   H431    1.111   .     S
C412   H430    1.111   .     S
C412   H429    1.110   .     S
C413   O466    1.384   .     S
C413   C420    1.417   .     A
C414   H432    1.111   .     S
C414   H434    1.110   .     S
C414   H433    1.111   .     S
C415   H437    1.110   .     S
C415   H438    1.111   .     S
C415   H435    1.110   .     S
C416   H440    1.110   .     S
C416   H441    1.110   .     S
C416   H205    1.108   1_565 S
C417   O466    1.410   .     S
C417   H442    1.114   .     S
C417   H443    1.111   .     S
C417   H912    1.109   1_554 S
C418   H446    1.113   .     S
C418   H445    1.114   .     S
C418   O458    1.409   .     S
C418   H916    1.109   .     S
C419   O458    1.382   .     S
C419   C421    1.414   .     A
C420   H452    1.081   .     S
C420   N455    1.363   .     A
C421   N456    1.364   .     A
C421   H453    1.082   .     S
C422   H454    1.081   .     S
C422   C424    1.406   .     A
C422   N455    1.363   .     A
C423   H426    1.081   .     S
C423   N456    1.364   .     A
C424   H427    1.083   .     S
H425   C241    1.088   1_655 S
H444   C885    1.109   .     S
H448   C886    1.109   1_554 S
N455   Zn468   2.001   .     S
N456   Zn467   2.001   .     S
O457   Zn467   1.996   .     S
O459   Zn468   1.996   .     S
O460   Zn468   1.992   .     S
O461   Zn467   1.992   .     S
O462   Zn467   1.967   .     S
O463   Zn468   1.967   .     S
O464   Zn468   1.980   .     S
O465   Zn467   1.980   .     S
C469   O538    1.284   .     A
C469   O535    1.281   .     A
C469   C482    1.433   .     S
C470   C472    1.407   .     A
C470   H506    1.083   .     S
C470   C501    1.407   .     A
C471   C491    1.414   .     A
C471   C502    1.407   .     A
C472   C497    1.414   .     A
C472   C3      1.508   1_556 S
C473   O540    1.274   .     A
C473   O542    1.277   .     A
C473   C475    1.401   .     S
C474   O543    1.277   .     A
C474   C476    1.401   .     S
C474   O541    1.274   .     A
C475   C632    1.330   1_455 S
C475   H659    1.088   1_455 S
C476   C553    1.330   .     S
C476   H592    1.088   .     S
C477   H525    1.085   .     S
C477   C488    1.395   .     A
C477   C479    1.387   .     A
C478   C489    1.395   .     A
C478   C481    1.387   .     A
C478   H527    1.085   .     S
C479   C482    1.409   .     A
C479   C490    1.510   .     S
C480   O537    1.282   .     A
C480   C483    1.438   .     S
C480   O539    1.286   .     A
C481   C492    1.510   .     S
C481   C483    1.411   .     A
C482   C484    1.398   .     A
C483   C485    1.400   .     A
C484   H528    1.085   .     S
C484   C486    1.387   .     A
C485   C487    1.386   .     A
C485   H529    1.085   .     S
C486   C493    1.507   .     S
C486   C488    1.403   .     A
C487   C489    1.405   .     A
C487   C494    1.509   .     S
C488   C723    1.436   1_545 S
C489   C722    1.436   .     S
C490   H509    1.111   .     S
C490   H508    1.111   .     S
C490   H507    1.110   .     S
C491   O544    1.384   .     S
C491   C498    1.417   .     A
C492   H510    1.111   .     S
C492   H512    1.110   .     S
C492   H511    1.111   .     S
C493   H515    1.110   .     S
C493   H516    1.111   .     S
C493   H513    1.110   .     S
C494   H518    1.110   .     S
C494   H519    1.110   .     S
C494   H751    1.108   .     S
C495   O544    1.410   .     S
C495   H520    1.114   .     S
C495   H521    1.111   .     S
C496   H524    1.113   .     S
C496   H523    1.114   .     S
C496   O536    1.409   .     S
C496   H58     1.109   1_556 S
C497   O536    1.382   .     S
C497   C499    1.414   .     A
C498   H530    1.081   .     S
C498   N533    1.363   .     A
C499   N534    1.364   .     A
C499   H531    1.082   .     S
C500   H532    1.081   .     S
C500   C502    1.406   .     A
C500   N533    1.363   .     A
C501   H504    1.081   .     S
C501   N534    1.364   .     A
C502   H505    1.083   .     S
H503   C553    1.088   .     S
H514   C632    1.088   1_455 S
H517   C728    1.108   1_545 S
H522   C27     1.109   1_556 S
N533   Zn546   2.001   .     S
N534   Zn545   2.001   .     S
O535   Zn545   1.996   .     S
O537   Zn546   1.996   .     S
O538   Zn546   1.992   .     S
O539   Zn545   1.992   .     S
O540   Zn545   1.967   .     S
O541   Zn546   1.967   .     S
O542   Zn546   1.980   .     S
O543   Zn545   1.980   .     S
C547   O616    1.284   .     A
C547   O613    1.281   .     A
C547   C560    1.433   .     S
C548   C550    1.407   .     A
C548   H584    1.083   .     S
C548   C579    1.407   .     A
C549   C569    1.414   .     A
C549   C580    1.407   .     A
C550   C575    1.414   .     A
C550   C81     1.508   1_556 S
C551   O618    1.274   .     A
C551   O620    1.277   .     A
C551   C553    1.401   .     S
C552   O621    1.277   .     A
C552   C554    1.401   .     S
C552   O619    1.274   .     A
C554   C631    1.330   .     S
C554   H670    1.088   .     S
C555   H603    1.085   .     S
C555   C566    1.395   .     A
C555   C557    1.387   .     A
C556   C567    1.395   .     A
C556   C559    1.387   .     A
C556   H605    1.085   .     S
C557   C560    1.409   .     A
C557   C568    1.510   .     S
C558   O615    1.282   .     A
C558   C561    1.438   .     S
C558   O617    1.286   .     A
C559   C570    1.510   .     S
C559   C561    1.411   .     A
C560   C562    1.398   .     A
C561   C563    1.400   .     A
C562   H606    1.085   .     S
C562   C564    1.387   .     A
C563   C565    1.386   .     A
C563   H607    1.085   .     S
C564   C571    1.507   .     S
C564   C566    1.403   .     A
C565   C567    1.405   .     A
C565   C572    1.509   .     S
C566   C801    1.436   1_545 S
C567   C800    1.436   .     S
C568   H587    1.111   .     S
C568   H586    1.111   .     S
C568   H585    1.110   .     S
C569   O622    1.384   .     S
C569   C576    1.417   .     A
C570   H588    1.111   .     S
C570   H590    1.110   .     S
C570   H589    1.111   .     S
C571   H593    1.110   .     S
C571   H594    1.111   .     S
C571   H591    1.110   .     S
C572   H596    1.110   .     S
C572   H597    1.110   .     S
C572   H829    1.108   .     S
C573   O622    1.410   .     S
C573   H598    1.114   .     S
C573   H599    1.111   .     S
C574   H602    1.113   .     S
C574   H601    1.114   .     S
C574   O614    1.409   .     S
C574   H136    1.109   1_556 S
C575   O614    1.382   .     S
C575   C577    1.414   .     A
C576   H608    1.081   .     S
C576   N611    1.363   .     A
C577   N612    1.364   .     A
C577   H609    1.082   .     S
C578   H610    1.081   .     S
C578   C580    1.406   .     A
C578   N611    1.363   .     A
C579   H582    1.081   .     S
C579   N612    1.364   .     A
C580   H583    1.083   .     S
H581   C631    1.088   .     S
H595   C806    1.108   1_545 S
H600   C105    1.109   1_556 S
N611   Zn624   2.001   .     S
N612   Zn623   2.001   .     S
O613   Zn623   1.996   .     S
O615   Zn624   1.996   .     S
O616   Zn624   1.992   .     S
O617   Zn623   1.992   .     S
O618   Zn623   1.967   .     S
O619   Zn624   1.967   .     S
O620   Zn624   1.980   .     S
O621   Zn623   1.980   .     S
C625   O694    1.284   .     A
C625   O691    1.281   .     A
C625   C638    1.433   .     S
C626   C628    1.407   .     A
C626   H662    1.083   .     S
C626   C657    1.407   .     A
C627   C647    1.414   .     A
C627   C658    1.407   .     A
C628   C653    1.414   .     A
C628   C159    1.508   1_556 S
C629   O696    1.274   .     A
C629   O698    1.277   .     A
C629   C631    1.401   .     S
C630   O699    1.277   .     A
C630   C632    1.401   .     S
C630   O697    1.274   .     A
C632   C475    1.330   1_655 S
C632   H514    1.088   1_655 S
C633   H681    1.085   .     S
C633   C644    1.395   .     A
C633   C635    1.387   .     A
C634   C645    1.395   .     A
C634   C637    1.387   .     A
C634   H683    1.085   .     S
C635   C638    1.409   .     A
C635   C646    1.510   .     S
C636   O693    1.282   .     A
C636   C639    1.438   .     S
C636   O695    1.286   .     A
C637   C648    1.510   .     S
C637   C639    1.411   .     A
C638   C640    1.398   .     A
C639   C641    1.400   .     A
C640   H684    1.085   .     S
C640   C642    1.387   .     A
C641   C643    1.386   .     A
C641   H685    1.085   .     S
C642   C649    1.507   .     S
C642   C644    1.403   .     A
C643   C645    1.405   .     A
C643   C650    1.509   .     S
C644   C879    1.436   1_545 S
C645   C878    1.436   .     S
C646   H665    1.111   .     S
C646   H664    1.111   .     S
C646   H663    1.110   .     S
C647   O700    1.384   .     S
C647   C654    1.417   .     A
C648   H666    1.111   .     S
C648   H668    1.110   .     S
C648   H667    1.111   .     S
C649   H671    1.110   .     S
C649   H672    1.111   .     S
C649   H669    1.110   .     S
C650   H674    1.110   .     S
C650   H675    1.110   .     S
C650   H907    1.108   .     S
C651   O700    1.410   .     S
C651   H676    1.114   .     S
C651   H677    1.111   .     S
C652   H680    1.113   .     S
C652   H679    1.114   .     S
C652   O692    1.409   .     S
C652   H214    1.109   1_556 S
C653   O692    1.382   .     S
C653   C655    1.414   .     A
C654   H686    1.081   .     S
C654   N689    1.363   .     A
C655   N690    1.364   .     A
C655   H687    1.082   .     S
C656   H688    1.081   .     S
C656   C658    1.406   .     A
C656   N689    1.363   .     A
C657   H660    1.081   .     S
C657   N690    1.364   .     A
C658   H661    1.083   .     S
H659   C475    1.088   1_655 S
H673   C884    1.108   1_545 S
H678   C183    1.109   1_556 S
N689   Zn702   2.001   .     S
N690   Zn701   2.001   .     S
O691   Zn701   1.996   .     S
O693   Zn702   1.996   .     S
O694   Zn702   1.992   .     S
O695   Zn701   1.992   .     S
O696   Zn701   1.967   .     S
O697   Zn702   1.967   .     S
O698   Zn702   1.980   .     S
O699   Zn701   1.980   .     S
C703   O772    1.284   .     A
C703   O769    1.281   .     A
C703   C716    1.433   .     S
C704   C706    1.407   .     A
C704   H740    1.083   .     S
C704   C735    1.407   .     A
C705   C725    1.414   .     A
C705   C736    1.407   .     A
C706   C731    1.414   .     A
C706   C237    1.508   1_556 S
C707   O774    1.274   .     A
C707   O776    1.277   .     A
C707   C709    1.401   .     S
C708   O777    1.277   .     A
C708   C710    1.401   .     S
C708   O775    1.274   .     A
C709   C866    1.330   1_455 S
C709   H893    1.088   1_455 S
C710   C787    1.330   .     S
C710   H826    1.088   .     S
C711   H759    1.085   .     S
C711   C722    1.395   .     A
C711   C713    1.387   .     A
C712   C723    1.395   .     A
C712   C715    1.387   .     A
C712   H761    1.085   .     S
C713   C716    1.409   .     A
C713   C724    1.510   .     S
C714   O771    1.282   .     A
C714   C717    1.438   .     S
C714   O773    1.286   .     A
C715   C726    1.510   .     S
C715   C717    1.411   .     A
C716   C718    1.398   .     A
C717   C719    1.400   .     A
C718   H762    1.085   .     S
C718   C720    1.387   .     A
C719   C721    1.386   .     A
C719   H763    1.085   .     S
C720   C727    1.507   .     S
C720   C722    1.403   .     A
C721   C723    1.405   .     A
C721   C728    1.509   .     S
C723   C488    1.436   1_565 S
C724   H743    1.111   .     S
C724   H742    1.111   .     S
C724   H741    1.110   .     S
C725   O778    1.384   .     S
C725   C732    1.417   .     A
C726   H744    1.111   .     S
C726   H746    1.110   .     S
C726   H745    1.111   .     S
C727   H749    1.110   .     S
C727   H750    1.111   .     S
C727   H747    1.110   .     S
C728   H752    1.110   .     S
C728   H753    1.110   .     S
C728   H517    1.108   1_565 S
C729   O778    1.410   .     S
C729   H754    1.114   .     S
C729   H755    1.111   .     S
C730   H758    1.113   .     S
C730   H757    1.114   .     S
C730   O770    1.409   .     S
C730   H292    1.109   1_556 S
C731   O770    1.382   .     S
C731   C733    1.414   .     A
C732   H764    1.081   .     S
C732   N767    1.363   .     A
C733   N768    1.364   .     A
C733   H765    1.082   .     S
C734   H766    1.081   .     S
C734   C736    1.406   .     A
C734   N767    1.363   .     A
C735   H738    1.081   .     S
C735   N768    1.364   .     A
C736   H739    1.083   .     S
H737   C787    1.088   .     S
H748   C866    1.088   1_455 S
H756   C261    1.109   1_556 S
N767   Zn780   2.001   .     S
N768   Zn779   2.001   .     S
O769   Zn779   1.996   .     S
O771   Zn780   1.996   .     S
O772   Zn780   1.992   .     S
O773   Zn779   1.992   .     S
O774   Zn779   1.967   .     S
O775   Zn780   1.967   .     S
O776   Zn780   1.980   .     S
O777   Zn779   1.980   .     S
C781   O850    1.284   .     A
C781   O847    1.281   .     A
C781   C794    1.433   .     S
C782   C784    1.407   .     A
C782   H818    1.083   .     S
C782   C813    1.407   .     A
C783   C803    1.414   .     A
C783   C814    1.407   .     A
C784   C809    1.414   .     A
C784   C315    1.508   1_556 S
C785   O852    1.274   .     A
C785   O854    1.277   .     A
C785   C787    1.401   .     S
C786   O855    1.277   .     A
C786   C788    1.401   .     S
C786   O853    1.274   .     A
C788   C865    1.330   .     S
C788   H904    1.088   .     S
C789   H837    1.085   .     S
C789   C800    1.395   .     A
C789   C791    1.387   .     A
C790   C801    1.395   .     A
C790   C793    1.387   .     A
C790   H839    1.085   .     S
C791   C794    1.409   .     A
C791   C802    1.510   .     S
C792   O849    1.282   .     A
C792   C795    1.438   .     S
C792   O851    1.286   .     A
C793   C804    1.510   .     S
C793   C795    1.411   .     A
C794   C796    1.398   .     A
C795   C797    1.400   .     A
C796   H840    1.085   .     S
C796   C798    1.387   .     A
C797   C799    1.386   .     A
C797   H841    1.085   .     S
C798   C805    1.507   .     S
C798   C800    1.403   .     A
C799   C801    1.405   .     A
C799   C806    1.509   .     S
C801   C566    1.436   1_565 S
C802   H821    1.111   .     S
C802   H820    1.111   .     S
C802   H819    1.110   .     S
C803   O856    1.384   .     S
C803   C810    1.417   .     A
C804   H822    1.111   .     S
C804   H824    1.110   .     S
C804   H823    1.111   .     S
C805   H827    1.110   .     S
C805   H828    1.111   .     S
C805   H825    1.110   .     S
C806   H830    1.110   .     S
C806   H831    1.110   .     S
C806   H595    1.108   1_565 S
C807   O856    1.410   .     S
C807   H832    1.114   .     S
C807   H833    1.111   .     S
C808   H836    1.113   .     S
C808   H835    1.114   .     S
C808   O848    1.409   .     S
C808   H370    1.109   1_556 S
C809   O848    1.382   .     S
C809   C811    1.414   .     A
C810   H842    1.081   .     S
C810   N845    1.363   .     A
C811   N846    1.364   .     A
C811   H843    1.082   .     S
C812   H844    1.081   .     S
C812   C814    1.406   .     A
C812   N845    1.363   .     A
C813   H816    1.081   .     S
C813   N846    1.364   .     A
C814   H817    1.083   .     S
H815   C865    1.088   .     S
H834   C339    1.109   1_556 S
N845   Zn858   2.001   .     S
N846   Zn857   2.001   .     S
O847   Zn857   1.996   .     S
O849   Zn858   1.996   .     S
O850   Zn858   1.992   .     S
O851   Zn857   1.992   .     S
O852   Zn857   1.967   .     S
O853   Zn858   1.967   .     S
O854   Zn858   1.980   .     S
O855   Zn857   1.980   .     S
C859   O928    1.284   .     A
C859   O925    1.281   .     A
C859   C872    1.433   .     S
C860   C862    1.407   .     A
C860   H896    1.083   .     S
C860   C891    1.407   .     A
C861   C881    1.414   .     A
C861   C892    1.407   .     A
C862   C887    1.414   .     A
C862   C393    1.508   1_556 S
C863   O930    1.274   .     A
C863   O932    1.277   .     A
C863   C865    1.401   .     S
C864   O933    1.277   .     A
C864   C866    1.401   .     S
C864   O931    1.274   .     A
C866   C709    1.330   1_655 S
C866   H748    1.088   1_655 S
C867   H915    1.085   .     S
C867   C878    1.395   .     A
C867   C869    1.387   .     A
C868   C879    1.395   .     A
C868   C871    1.387   .     A
C868   H917    1.085   .     S
C869   C872    1.409   .     A
C869   C880    1.510   .     S
C870   O927    1.282   .     A
C870   C873    1.438   .     S
C870   O929    1.286   .     A
C871   C882    1.510   .     S
C871   C873    1.411   .     A
C872   C874    1.398   .     A
C873   C875    1.400   .     A
C874   H918    1.085   .     S
C874   C876    1.387   .     A
C875   C877    1.386   .     A
C875   H919    1.085   .     S
C876   C883    1.507   .     S
C876   C878    1.403   .     A
C877   C879    1.405   .     A
C877   C884    1.509   .     S
C879   C644    1.436   1_565 S
C880   H899    1.111   .     S
C880   H898    1.111   .     S
C880   H897    1.110   .     S
C881   O934    1.384   .     S
C881   C888    1.417   .     A
C882   H900    1.111   .     S
C882   H902    1.110   .     S
C882   H901    1.111   .     S
C883   H905    1.110   .     S
C883   H906    1.111   .     S
C883   H903    1.110   .     S
C884   H908    1.110   .     S
C884   H909    1.110   .     S
C884   H673    1.108   1_565 S
C885   O934    1.410   .     S
C885   H910    1.114   .     S
C885   H911    1.111   .     S
C886   H914    1.113   .     S
C886   H913    1.114   .     S
C886   O926    1.409   .     S
C886   H448    1.109   1_556 S
C887   O926    1.382   .     S
C887   C889    1.414   .     A
C888   H920    1.081   .     S
C888   N923    1.363   .     A
C889   N924    1.364   .     A
C889   H921    1.082   .     S
C890   H922    1.081   .     S
C890   C892    1.406   .     A
C890   N923    1.363   .     A
C891   H894    1.081   .     S
C891   N924    1.364   .     A
C892   H895    1.083   .     S
H893   C709    1.088   1_655 S
H912   C417    1.109   1_556 S
N923   Zn936   2.001   .     S
N924   Zn935   2.001   .     S
O925   Zn935   1.996   .     S
O927   Zn936   1.996   .     S
O928   Zn936   1.992   .     S
O929   Zn935   1.992   .     S
O930   Zn935   1.967   .     S
O931   Zn936   1.967   .     S
O932   Zn936   1.980   .     S
O933   Zn935   1.980   .     S
