data_str_m3_o2_o10_pcu_sym.177
_audit_creation_date              2020-01-03
_audit_creation_method            'Materials Studio'
_symmetry_space_group_name_H-M    'P1'
_symmetry_Int_Tables_number       1
_symmetry_cell_setting            triclinic
loop_
_symmetry_equiv_pos_as_xyz
  x,y,z
_cell_length_a                    25.7414
_cell_length_b                    29.7177
_cell_length_c                    28.3118
_cell_angle_alpha                 90.9867
_cell_angle_beta                  98.7955
_cell_angle_gamma                 89.7668
loop_
_atom_site_label
_atom_site_type_symbol
_atom_site_fract_x
_atom_site_fract_y
_atom_site_fract_z
_atom_site_U_iso_or_equiv
_atom_site_adp_type
_atom_site_occupancy
C1     C     0.16907   0.16380   0.24989   0.00000  Uiso   1.00
C2     C     0.17015   0.33624   0.25099   0.00000  Uiso   1.00
C3     C     0.13783   0.22159   0.04597   0.00000  Uiso   1.00
C4     C     0.13922   0.27921   0.44635   0.00000  Uiso   1.00
C5     C     0.13506   0.22200   0.09519   0.00000  Uiso   1.00
C6     C     0.13644   0.27910   0.39638   0.00000  Uiso   1.00
C7     C     0.20151   0.27751   0.10893   0.00000  Uiso   1.00
C8     C     0.20018   0.22115   0.40047   0.00000  Uiso   1.00
C9     C     0.20545   0.27800   0.05970   0.00000  Uiso   1.00
C10    C     0.20408   0.22036   0.45080   0.00000  Uiso   1.00
C11    C     0.17318   0.24948   0.02744   0.00000  Uiso   1.00
C12    C     0.17316   0.24994   0.47439   0.00000  Uiso   1.00
C13    C     0.06697   0.24994   0.23749   0.00000  Uiso   1.00
C14    C     0.26636   0.24990   0.26250   0.00000  Uiso   1.00
C15    C     0.01191   0.25009   0.23073   0.00000  Uiso   1.00
C16    C     0.32138   0.24929   0.26920   0.00000  Uiso   1.00
C17    C     0.15822   0.04456   0.28186   0.00000  Uiso   1.00
C18    C     0.17159   0.45480   0.21250   0.00000  Uiso   1.00
C19    C     0.15018   0.09043   0.27890   0.00000  Uiso   1.00
C20    C     0.16339   0.40892   0.21246   0.00000  Uiso   1.00
C21    C     0.17803   0.11599   0.25040   0.00000  Uiso   1.00
C22    C     0.18049   0.38413   0.25341   0.00000  Uiso   1.00
C23    C     0.21716   0.09639   0.22651   0.00000  Uiso   1.00
C24    C     0.21016   0.40480   0.29435   0.00000  Uiso   1.00
C25    C     0.22597   0.04999   0.22993   0.00000  Uiso   1.00
C26    C     0.21718   0.45151   0.29504   0.00000  Uiso   1.00
C27    C     0.19548   0.02450   0.25670   0.00000  Uiso   1.00
C28    C     0.19708   0.47601   0.25429   0.00000  Uiso   1.00
H29    H     0.32451   0.25105   0.19425   0.00000  Uiso   1.00
H30    H     0.00874   0.24807   0.30564   0.00000  Uiso   1.00
H31    H     0.12215   0.10614   0.29899   0.00000  Uiso   1.00
H32    H     0.14341   0.39274   0.18016   0.00000  Uiso   1.00
H33    H     0.11218   0.19954   0.02211   0.00000  Uiso   1.00
H34    H     0.11470   0.30218   0.46335   0.00000  Uiso   1.00
H35    H     0.22670   0.29917   0.13354   0.00000  Uiso   1.00
H36    H     0.22436   0.19867   0.38263   0.00000  Uiso   1.00
N37    N     0.16667   0.24999   0.12623   0.00000  Uiso   1.00
N38    N     0.16667   0.25001   0.37376   0.00000  Uiso   1.00
O39    O     0.16667   0.18453   0.28974   0.00000  Uiso   1.00
O40    O     0.16666   0.31546   0.21026   0.00000  Uiso   1.00
O41    O     0.16667   0.18453   0.21026   0.00000  Uiso   1.00
O42    O     0.16666   0.31547   0.28974   0.00000  Uiso   1.00
O43    O     0.09058   0.25000   0.28044   0.00000  Uiso   1.00
O44    O     0.24275   0.25000   0.21955   0.00000  Uiso   1.00
O45    O     0.09058   0.24999   0.20096   0.00000  Uiso   1.00
O46    O     0.24275   0.25001   0.29903   0.00000  Uiso   1.00
Zn47   Zn    0.16667   0.25000   0.30307   0.00000  Uiso   1.00
Zn48   Zn    0.16667   0.24999   0.19693   0.00000  Uiso   1.00
O49    O     0.13432   0.02004   0.31369   0.00000  Uiso   1.00
C50    C     0.08386   0.00655   0.29163   0.00000  Uiso   1.00
H51    H     0.05745   0.03621   0.28443   0.00000  Uiso   1.00
H52    H     0.08564   0.48745   0.25790   0.00000  Uiso   1.00
C53    C     0.06079   0.47504   0.32465   0.00000  Uiso   1.00
H54    H     0.02205   0.46252   0.30674   0.00000  Uiso   1.00
H55    H     0.08736   0.44576   0.33317   0.00000  Uiso   1.00
H56    H     0.05573   0.49306   0.35833   0.00000  Uiso   1.00
O57    O     0.15920   0.47823   0.17036   0.00000  Uiso   1.00
C58    C     0.10537   0.48977   0.16323   0.00000  Uiso   1.00
H59    H     0.09844   0.01828   0.18740   0.00000  Uiso   1.00
H60    H     0.07981   0.46079   0.16903   0.00000  Uiso   1.00
C61    C     0.08961   0.00529   0.11215   0.00000  Uiso   1.00
H62    H     0.09584   0.47766   0.08668   0.00000  Uiso   1.00
H63    H     0.04743   0.01500   0.10625   0.00000  Uiso   1.00
H64    H     0.11356   0.03485   0.10544   0.00000  Uiso   1.00
I65    I     0.26589   0.13636   0.18858   0.00000  Uiso   1.00
I66    I     0.24932   0.36666   0.35327   0.00000  Uiso   1.00
I67    I     0.28634   0.01762   0.19709   0.00000  Uiso   1.00
I68    I     0.25770   0.48618   0.35694   0.00000  Uiso   1.00
I69    I     0.08042   0.17730   0.11788   0.00000  Uiso   1.00
I70    I     0.08409   0.32624   0.35938   0.00000  Uiso   1.00
I71    I     0.26045   0.32197   0.03623   0.00000  Uiso   1.00
I72    I     0.25705   0.17440   0.48916   0.00000  Uiso   1.00
C73    C     0.50241   0.16380   0.24989   0.00000  Uiso   1.00
C74    C     0.50348   0.33624   0.25099   0.00000  Uiso   1.00
C75    C     0.47116   0.22159   0.04597   0.00000  Uiso   1.00
C76    C     0.47255   0.27921   0.44635   0.00000  Uiso   1.00
C77    C     0.46839   0.22200   0.09519   0.00000  Uiso   1.00
C78    C     0.46977   0.27910   0.39638   0.00000  Uiso   1.00
C79    C     0.53484   0.27751   0.10893   0.00000  Uiso   1.00
C80    C     0.53351   0.22115   0.40047   0.00000  Uiso   1.00
C81    C     0.53878   0.27800   0.05970   0.00000  Uiso   1.00
C82    C     0.53741   0.22036   0.45080   0.00000  Uiso   1.00
C83    C     0.50652   0.24948   0.02744   0.00000  Uiso   1.00
C84    C     0.50649   0.24994   0.47439   0.00000  Uiso   1.00
C85    C     0.40030   0.24994   0.23749   0.00000  Uiso   1.00
C86    C     0.59969   0.24990   0.26250   0.00000  Uiso   1.00
C87    C     0.34525   0.25009   0.23073   0.00000  Uiso   1.00
C88    C     0.65471   0.24929   0.26920   0.00000  Uiso   1.00
C89    C     0.49155   0.04456   0.28186   0.00000  Uiso   1.00
C90    C     0.50492   0.45480   0.21250   0.00000  Uiso   1.00
C91    C     0.48352   0.09043   0.27890   0.00000  Uiso   1.00
C92    C     0.49672   0.40892   0.21246   0.00000  Uiso   1.00
C93    C     0.51136   0.11599   0.25040   0.00000  Uiso   1.00
C94    C     0.51382   0.38413   0.25341   0.00000  Uiso   1.00
C95    C     0.55049   0.09639   0.22651   0.00000  Uiso   1.00
C96    C     0.54349   0.40480   0.29435   0.00000  Uiso   1.00
C97    C     0.55930   0.04999   0.22993   0.00000  Uiso   1.00
C98    C     0.55051   0.45151   0.29504   0.00000  Uiso   1.00
C99    C     0.52881   0.02450   0.25670   0.00000  Uiso   1.00
C100   C     0.53041   0.47601   0.25429   0.00000  Uiso   1.00
H101   H     0.65785   0.25105   0.19425   0.00000  Uiso   1.00
H102   H     0.34207   0.24807   0.30564   0.00000  Uiso   1.00
H103   H     0.45548   0.10614   0.29899   0.00000  Uiso   1.00
H104   H     0.47674   0.39274   0.18016   0.00000  Uiso   1.00
H105   H     0.44551   0.19954   0.02211   0.00000  Uiso   1.00
H106   H     0.44803   0.30218   0.46335   0.00000  Uiso   1.00
H107   H     0.56003   0.29917   0.13354   0.00000  Uiso   1.00
H108   H     0.55769   0.19867   0.38263   0.00000  Uiso   1.00
N109   N     0.50000   0.24999   0.12623   0.00000  Uiso   1.00
N110   N     0.50000   0.25001   0.37376   0.00000  Uiso   1.00
O111   O     0.50000   0.18453   0.28974   0.00000  Uiso   1.00
O112   O     0.50000   0.31546   0.21026   0.00000  Uiso   1.00
O113   O     0.50000   0.18453   0.21026   0.00000  Uiso   1.00
O114   O     0.50000   0.31547   0.28974   0.00000  Uiso   1.00
O115   O     0.42392   0.25000   0.28044   0.00000  Uiso   1.00
O116   O     0.57608   0.25000   0.21955   0.00000  Uiso   1.00
O117   O     0.42392   0.24999   0.20096   0.00000  Uiso   1.00
O118   O     0.57608   0.25001   0.29903   0.00000  Uiso   1.00
Zn119  Zn    0.50000   0.25000   0.30307   0.00000  Uiso   1.00
Zn120  Zn    0.50000   0.24999   0.19693   0.00000  Uiso   1.00
O121   O     0.46765   0.02004   0.31369   0.00000  Uiso   1.00
C122   C     0.41719   0.00655   0.29163   0.00000  Uiso   1.00
H123   H     0.39078   0.03621   0.28443   0.00000  Uiso   1.00
H124   H     0.41897   0.48745   0.25790   0.00000  Uiso   1.00
C125   C     0.39413   0.47504   0.32465   0.00000  Uiso   1.00
H126   H     0.35538   0.46252   0.30674   0.00000  Uiso   1.00
H127   H     0.42069   0.44576   0.33317   0.00000  Uiso   1.00
H128   H     0.38907   0.49306   0.35833   0.00000  Uiso   1.00
O129   O     0.49253   0.47823   0.17036   0.00000  Uiso   1.00
C130   C     0.43870   0.48977   0.16323   0.00000  Uiso   1.00
H131   H     0.43177   0.01828   0.18740   0.00000  Uiso   1.00
H132   H     0.41314   0.46079   0.16903   0.00000  Uiso   1.00
C133   C     0.42294   0.00529   0.11215   0.00000  Uiso   1.00
H134   H     0.42917   0.47766   0.08668   0.00000  Uiso   1.00
H135   H     0.38077   0.01500   0.10625   0.00000  Uiso   1.00
H136   H     0.44690   0.03485   0.10544   0.00000  Uiso   1.00
I137   I     0.59923   0.13636   0.18858   0.00000  Uiso   1.00
I138   I     0.58265   0.36666   0.35327   0.00000  Uiso   1.00
I139   I     0.61968   0.01762   0.19709   0.00000  Uiso   1.00
I140   I     0.59103   0.48618   0.35694   0.00000  Uiso   1.00
I141   I     0.41376   0.17730   0.11788   0.00000  Uiso   1.00
I142   I     0.41743   0.32624   0.35938   0.00000  Uiso   1.00
I143   I     0.59378   0.32197   0.03623   0.00000  Uiso   1.00
I144   I     0.59038   0.17440   0.48916   0.00000  Uiso   1.00
C145   C     0.83574   0.16380   0.24989   0.00000  Uiso   1.00
C146   C     0.83681   0.33624   0.25099   0.00000  Uiso   1.00
C147   C     0.80450   0.22159   0.04597   0.00000  Uiso   1.00
C148   C     0.80588   0.27921   0.44635   0.00000  Uiso   1.00
C149   C     0.80173   0.22200   0.09519   0.00000  Uiso   1.00
C150   C     0.80311   0.27910   0.39638   0.00000  Uiso   1.00
C151   C     0.86817   0.27751   0.10893   0.00000  Uiso   1.00
C152   C     0.86684   0.22115   0.40047   0.00000  Uiso   1.00
C153   C     0.87212   0.27800   0.05970   0.00000  Uiso   1.00
C154   C     0.87074   0.22036   0.45080   0.00000  Uiso   1.00
C155   C     0.83985   0.24948   0.02744   0.00000  Uiso   1.00
C156   C     0.83982   0.24994   0.47439   0.00000  Uiso   1.00
C157   C     0.73363   0.24994   0.23749   0.00000  Uiso   1.00
C158   C     0.93302   0.24990   0.26250   0.00000  Uiso   1.00
C159   C     0.67858   0.25009   0.23073   0.00000  Uiso   1.00
C160   C     0.98805   0.24929   0.26920   0.00000  Uiso   1.00
C161   C     0.82488   0.04456   0.28186   0.00000  Uiso   1.00
C162   C     0.83826   0.45480   0.21250   0.00000  Uiso   1.00
C163   C     0.81685   0.09043   0.27890   0.00000  Uiso   1.00
C164   C     0.83006   0.40892   0.21246   0.00000  Uiso   1.00
C165   C     0.84470   0.11599   0.25040   0.00000  Uiso   1.00
C166   C     0.84716   0.38413   0.25341   0.00000  Uiso   1.00
C167   C     0.88383   0.09639   0.22651   0.00000  Uiso   1.00
C168   C     0.87683   0.40480   0.29435   0.00000  Uiso   1.00
C169   C     0.89264   0.04999   0.22993   0.00000  Uiso   1.00
C170   C     0.88384   0.45151   0.29504   0.00000  Uiso   1.00
C171   C     0.86214   0.02450   0.25670   0.00000  Uiso   1.00
C172   C     0.86375   0.47601   0.25429   0.00000  Uiso   1.00
H173   H     0.99118   0.25105   0.19425   0.00000  Uiso   1.00
H174   H     0.67541   0.24807   0.30564   0.00000  Uiso   1.00
H175   H     0.78881   0.10614   0.29899   0.00000  Uiso   1.00
H176   H     0.81007   0.39274   0.18016   0.00000  Uiso   1.00
H177   H     0.77885   0.19954   0.02211   0.00000  Uiso   1.00
H178   H     0.78137   0.30218   0.46335   0.00000  Uiso   1.00
H179   H     0.89336   0.29917   0.13354   0.00000  Uiso   1.00
H180   H     0.89102   0.19867   0.38263   0.00000  Uiso   1.00
N181   N     0.83333   0.24999   0.12623   0.00000  Uiso   1.00
N182   N     0.83333   0.25001   0.37376   0.00000  Uiso   1.00
O183   O     0.83334   0.18453   0.28974   0.00000  Uiso   1.00
O184   O     0.83333   0.31546   0.21026   0.00000  Uiso   1.00
O185   O     0.83334   0.18453   0.21026   0.00000  Uiso   1.00
O186   O     0.83333   0.31547   0.28974   0.00000  Uiso   1.00
O187   O     0.75725   0.25000   0.28044   0.00000  Uiso   1.00
O188   O     0.90942   0.25000   0.21955   0.00000  Uiso   1.00
O189   O     0.75725   0.24999   0.20096   0.00000  Uiso   1.00
O190   O     0.90942   0.25001   0.29903   0.00000  Uiso   1.00
Zn191  Zn    0.83333   0.25000   0.30307   0.00000  Uiso   1.00
Zn192  Zn    0.83333   0.24999   0.19693   0.00000  Uiso   1.00
O193   O     0.80098   0.02004   0.31369   0.00000  Uiso   1.00
C194   C     0.75052   0.00655   0.29163   0.00000  Uiso   1.00
H195   H     0.72411   0.03621   0.28443   0.00000  Uiso   1.00
H196   H     0.75231   0.48745   0.25790   0.00000  Uiso   1.00
C197   C     0.72746   0.47504   0.32465   0.00000  Uiso   1.00
H198   H     0.68872   0.46252   0.30674   0.00000  Uiso   1.00
H199   H     0.75402   0.44576   0.33317   0.00000  Uiso   1.00
H200   H     0.72240   0.49306   0.35833   0.00000  Uiso   1.00
O201   O     0.82587   0.47823   0.17036   0.00000  Uiso   1.00
C202   C     0.77204   0.48977   0.16323   0.00000  Uiso   1.00
H203   H     0.76510   0.01828   0.18740   0.00000  Uiso   1.00
H204   H     0.74648   0.46079   0.16903   0.00000  Uiso   1.00
C205   C     0.75628   0.00529   0.11215   0.00000  Uiso   1.00
H206   H     0.76251   0.47766   0.08668   0.00000  Uiso   1.00
H207   H     0.71410   0.01500   0.10625   0.00000  Uiso   1.00
H208   H     0.78023   0.03485   0.10544   0.00000  Uiso   1.00
I209   I     0.93256   0.13636   0.18858   0.00000  Uiso   1.00
I210   I     0.91598   0.36666   0.35327   0.00000  Uiso   1.00
I211   I     0.95301   0.01762   0.19709   0.00000  Uiso   1.00
I212   I     0.92436   0.48618   0.35694   0.00000  Uiso   1.00
I213   I     0.74709   0.17730   0.11788   0.00000  Uiso   1.00
I214   I     0.75076   0.32624   0.35938   0.00000  Uiso   1.00
I215   I     0.92712   0.32197   0.03623   0.00000  Uiso   1.00
I216   I     0.92372   0.17440   0.48916   0.00000  Uiso   1.00
C217   C     0.16907   0.66380   0.24989   0.00000  Uiso   1.00
C218   C     0.17015   0.83624   0.25099   0.00000  Uiso   1.00
C219   C     0.13783   0.72159   0.04597   0.00000  Uiso   1.00
C220   C     0.13922   0.77921   0.44635   0.00000  Uiso   1.00
C221   C     0.13506   0.72200   0.09519   0.00000  Uiso   1.00
C222   C     0.13644   0.77910   0.39638   0.00000  Uiso   1.00
C223   C     0.20151   0.77751   0.10893   0.00000  Uiso   1.00
C224   C     0.20018   0.72115   0.40047   0.00000  Uiso   1.00
C225   C     0.20545   0.77800   0.05970   0.00000  Uiso   1.00
C226   C     0.20408   0.72036   0.45080   0.00000  Uiso   1.00
C227   C     0.17318   0.74948   0.02744   0.00000  Uiso   1.00
C228   C     0.17316   0.74994   0.47439   0.00000  Uiso   1.00
C229   C     0.06697   0.74994   0.23749   0.00000  Uiso   1.00
C230   C     0.26636   0.74990   0.26250   0.00000  Uiso   1.00
C231   C     0.01191   0.75009   0.23073   0.00000  Uiso   1.00
C232   C     0.32138   0.74929   0.26920   0.00000  Uiso   1.00
C233   C     0.15822   0.54456   0.28186   0.00000  Uiso   1.00
C234   C     0.17159   0.95480   0.21250   0.00000  Uiso   1.00
C235   C     0.15018   0.59043   0.27890   0.00000  Uiso   1.00
C236   C     0.16339   0.90892   0.21246   0.00000  Uiso   1.00
C237   C     0.17803   0.61599   0.25040   0.00000  Uiso   1.00
C238   C     0.18049   0.88413   0.25341   0.00000  Uiso   1.00
C239   C     0.21716   0.59639   0.22651   0.00000  Uiso   1.00
C240   C     0.21016   0.90480   0.29435   0.00000  Uiso   1.00
C241   C     0.22597   0.54999   0.22993   0.00000  Uiso   1.00
C242   C     0.21718   0.95151   0.29504   0.00000  Uiso   1.00
C243   C     0.19548   0.52450   0.25670   0.00000  Uiso   1.00
C244   C     0.19708   0.97601   0.25429   0.00000  Uiso   1.00
H245   H     0.32451   0.75105   0.19425   0.00000  Uiso   1.00
H246   H     0.00874   0.74807   0.30564   0.00000  Uiso   1.00
H247   H     0.12215   0.60614   0.29899   0.00000  Uiso   1.00
H248   H     0.14341   0.89274   0.18016   0.00000  Uiso   1.00
H249   H     0.11218   0.69954   0.02211   0.00000  Uiso   1.00
H250   H     0.11470   0.80218   0.46335   0.00000  Uiso   1.00
H251   H     0.22670   0.79917   0.13354   0.00000  Uiso   1.00
H252   H     0.22436   0.69867   0.38263   0.00000  Uiso   1.00
N253   N     0.16667   0.74999   0.12623   0.00000  Uiso   1.00
N254   N     0.16667   0.75001   0.37376   0.00000  Uiso   1.00
O255   O     0.16667   0.68453   0.28974   0.00000  Uiso   1.00
O256   O     0.16666   0.81546   0.21026   0.00000  Uiso   1.00
O257   O     0.16667   0.68453   0.21026   0.00000  Uiso   1.00
O258   O     0.16666   0.81547   0.28974   0.00000  Uiso   1.00
O259   O     0.09058   0.75000   0.28044   0.00000  Uiso   1.00
O260   O     0.24275   0.75000   0.21955   0.00000  Uiso   1.00
O261   O     0.09058   0.74999   0.20096   0.00000  Uiso   1.00
O262   O     0.24275   0.75001   0.29903   0.00000  Uiso   1.00
Zn263  Zn    0.16667   0.75000   0.30307   0.00000  Uiso   1.00
Zn264  Zn    0.16667   0.74999   0.19693   0.00000  Uiso   1.00
O265   O     0.13432   0.52004   0.31369   0.00000  Uiso   1.00
C266   C     0.08386   0.50655   0.29163   0.00000  Uiso   1.00
H267   H     0.05745   0.53621   0.28443   0.00000  Uiso   1.00
H268   H     0.08564   0.98745   0.25790   0.00000  Uiso   1.00
C269   C     0.06079   0.97504   0.32465   0.00000  Uiso   1.00
H270   H     0.02205   0.96252   0.30674   0.00000  Uiso   1.00
H271   H     0.08736   0.94576   0.33317   0.00000  Uiso   1.00
H272   H     0.05573   0.99306   0.35833   0.00000  Uiso   1.00
O273   O     0.15920   0.97823   0.17036   0.00000  Uiso   1.00
C274   C     0.10537   0.98977   0.16323   0.00000  Uiso   1.00
H275   H     0.09844   0.51828   0.18740   0.00000  Uiso   1.00
H276   H     0.07981   0.96079   0.16903   0.00000  Uiso   1.00
C277   C     0.08961   0.50529   0.11215   0.00000  Uiso   1.00
H278   H     0.09584   0.97766   0.08668   0.00000  Uiso   1.00
H279   H     0.04743   0.51500   0.10625   0.00000  Uiso   1.00
H280   H     0.11356   0.53485   0.10544   0.00000  Uiso   1.00
I281   I     0.26589   0.63636   0.18858   0.00000  Uiso   1.00
I282   I     0.24932   0.86666   0.35327   0.00000  Uiso   1.00
I283   I     0.28634   0.51762   0.19709   0.00000  Uiso   1.00
I284   I     0.25770   0.98618   0.35694   0.00000  Uiso   1.00
I285   I     0.08042   0.67730   0.11788   0.00000  Uiso   1.00
I286   I     0.08409   0.82624   0.35938   0.00000  Uiso   1.00
I287   I     0.26045   0.82197   0.03623   0.00000  Uiso   1.00
I288   I     0.25705   0.67440   0.48916   0.00000  Uiso   1.00
C289   C     0.50241   0.66380   0.24989   0.00000  Uiso   1.00
C290   C     0.50348   0.83624   0.25099   0.00000  Uiso   1.00
C291   C     0.47116   0.72159   0.04597   0.00000  Uiso   1.00
C292   C     0.47255   0.77921   0.44635   0.00000  Uiso   1.00
C293   C     0.46839   0.72200   0.09519   0.00000  Uiso   1.00
C294   C     0.46977   0.77910   0.39638   0.00000  Uiso   1.00
C295   C     0.53484   0.77751   0.10893   0.00000  Uiso   1.00
C296   C     0.53351   0.72115   0.40047   0.00000  Uiso   1.00
C297   C     0.53878   0.77800   0.05970   0.00000  Uiso   1.00
C298   C     0.53741   0.72036   0.45080   0.00000  Uiso   1.00
C299   C     0.50652   0.74948   0.02744   0.00000  Uiso   1.00
C300   C     0.50649   0.74994   0.47439   0.00000  Uiso   1.00
C301   C     0.40030   0.74994   0.23749   0.00000  Uiso   1.00
C302   C     0.59969   0.74990   0.26250   0.00000  Uiso   1.00
C303   C     0.34525   0.75009   0.23073   0.00000  Uiso   1.00
C304   C     0.65471   0.74929   0.26920   0.00000  Uiso   1.00
C305   C     0.49155   0.54456   0.28186   0.00000  Uiso   1.00
C306   C     0.50492   0.95480   0.21250   0.00000  Uiso   1.00
C307   C     0.48352   0.59043   0.27890   0.00000  Uiso   1.00
C308   C     0.49672   0.90892   0.21246   0.00000  Uiso   1.00
C309   C     0.51136   0.61599   0.25040   0.00000  Uiso   1.00
C310   C     0.51382   0.88413   0.25341   0.00000  Uiso   1.00
C311   C     0.55049   0.59639   0.22651   0.00000  Uiso   1.00
C312   C     0.54349   0.90480   0.29435   0.00000  Uiso   1.00
C313   C     0.55930   0.54999   0.22993   0.00000  Uiso   1.00
C314   C     0.55051   0.95151   0.29504   0.00000  Uiso   1.00
C315   C     0.52881   0.52450   0.25670   0.00000  Uiso   1.00
C316   C     0.53041   0.97601   0.25429   0.00000  Uiso   1.00
H317   H     0.65785   0.75105   0.19425   0.00000  Uiso   1.00
H318   H     0.34207   0.74807   0.30564   0.00000  Uiso   1.00
H319   H     0.45548   0.60614   0.29899   0.00000  Uiso   1.00
H320   H     0.47674   0.89274   0.18016   0.00000  Uiso   1.00
H321   H     0.44551   0.69954   0.02211   0.00000  Uiso   1.00
H322   H     0.44803   0.80218   0.46335   0.00000  Uiso   1.00
H323   H     0.56003   0.79917   0.13354   0.00000  Uiso   1.00
H324   H     0.55769   0.69867   0.38263   0.00000  Uiso   1.00
N325   N     0.50000   0.74999   0.12623   0.00000  Uiso   1.00
N326   N     0.50000   0.75001   0.37376   0.00000  Uiso   1.00
O327   O     0.50000   0.68453   0.28974   0.00000  Uiso   1.00
O328   O     0.50000   0.81546   0.21026   0.00000  Uiso   1.00
O329   O     0.50000   0.68453   0.21026   0.00000  Uiso   1.00
O330   O     0.50000   0.81547   0.28974   0.00000  Uiso   1.00
O331   O     0.42392   0.75000   0.28044   0.00000  Uiso   1.00
O332   O     0.57608   0.75000   0.21955   0.00000  Uiso   1.00
O333   O     0.42392   0.74999   0.20096   0.00000  Uiso   1.00
O334   O     0.57608   0.75001   0.29903   0.00000  Uiso   1.00
Zn335  Zn    0.50000   0.75000   0.30307   0.00000  Uiso   1.00
Zn336  Zn    0.50000   0.74999   0.19693   0.00000  Uiso   1.00
O337   O     0.46765   0.52004   0.31369   0.00000  Uiso   1.00
C338   C     0.41719   0.50655   0.29163   0.00000  Uiso   1.00
H339   H     0.39078   0.53621   0.28443   0.00000  Uiso   1.00
H340   H     0.41897   0.98745   0.25790   0.00000  Uiso   1.00
C341   C     0.39413   0.97504   0.32465   0.00000  Uiso   1.00
H342   H     0.35538   0.96252   0.30674   0.00000  Uiso   1.00
H343   H     0.42069   0.94576   0.33317   0.00000  Uiso   1.00
H344   H     0.38907   0.99306   0.35833   0.00000  Uiso   1.00
O345   O     0.49253   0.97823   0.17036   0.00000  Uiso   1.00
C346   C     0.43870   0.98977   0.16323   0.00000  Uiso   1.00
H347   H     0.43177   0.51828   0.18740   0.00000  Uiso   1.00
H348   H     0.41314   0.96079   0.16903   0.00000  Uiso   1.00
C349   C     0.42294   0.50529   0.11215   0.00000  Uiso   1.00
H350   H     0.42917   0.97766   0.08668   0.00000  Uiso   1.00
H351   H     0.38077   0.51500   0.10625   0.00000  Uiso   1.00
H352   H     0.44690   0.53485   0.10544   0.00000  Uiso   1.00
I353   I     0.59923   0.63636   0.18858   0.00000  Uiso   1.00
I354   I     0.58265   0.86666   0.35327   0.00000  Uiso   1.00
I355   I     0.61968   0.51762   0.19709   0.00000  Uiso   1.00
I356   I     0.59103   0.98618   0.35694   0.00000  Uiso   1.00
I357   I     0.41376   0.67730   0.11788   0.00000  Uiso   1.00
I358   I     0.41743   0.82624   0.35938   0.00000  Uiso   1.00
I359   I     0.59378   0.82197   0.03623   0.00000  Uiso   1.00
I360   I     0.59038   0.67440   0.48916   0.00000  Uiso   1.00
C361   C     0.83574   0.66380   0.24989   0.00000  Uiso   1.00
C362   C     0.83681   0.83624   0.25099   0.00000  Uiso   1.00
C363   C     0.80450   0.72159   0.04597   0.00000  Uiso   1.00
C364   C     0.80588   0.77921   0.44635   0.00000  Uiso   1.00
C365   C     0.80173   0.72200   0.09519   0.00000  Uiso   1.00
C366   C     0.80311   0.77910   0.39638   0.00000  Uiso   1.00
C367   C     0.86817   0.77751   0.10893   0.00000  Uiso   1.00
C368   C     0.86684   0.72115   0.40047   0.00000  Uiso   1.00
C369   C     0.87212   0.77800   0.05970   0.00000  Uiso   1.00
C370   C     0.87074   0.72036   0.45080   0.00000  Uiso   1.00
C371   C     0.83985   0.74948   0.02744   0.00000  Uiso   1.00
C372   C     0.83982   0.74994   0.47439   0.00000  Uiso   1.00
C373   C     0.73363   0.74994   0.23749   0.00000  Uiso   1.00
C374   C     0.93302   0.74990   0.26250   0.00000  Uiso   1.00
C375   C     0.67858   0.75009   0.23073   0.00000  Uiso   1.00
C376   C     0.98805   0.74929   0.26920   0.00000  Uiso   1.00
C377   C     0.82488   0.54456   0.28186   0.00000  Uiso   1.00
C378   C     0.83826   0.95480   0.21250   0.00000  Uiso   1.00
C379   C     0.81685   0.59043   0.27890   0.00000  Uiso   1.00
C380   C     0.83006   0.90892   0.21246   0.00000  Uiso   1.00
C381   C     0.84470   0.61599   0.25040   0.00000  Uiso   1.00
C382   C     0.84716   0.88413   0.25341   0.00000  Uiso   1.00
C383   C     0.88383   0.59639   0.22651   0.00000  Uiso   1.00
C384   C     0.87683   0.90480   0.29435   0.00000  Uiso   1.00
C385   C     0.89264   0.54999   0.22993   0.00000  Uiso   1.00
C386   C     0.88384   0.95151   0.29504   0.00000  Uiso   1.00
C387   C     0.86214   0.52450   0.25670   0.00000  Uiso   1.00
C388   C     0.86375   0.97601   0.25429   0.00000  Uiso   1.00
H389   H     0.99118   0.75105   0.19425   0.00000  Uiso   1.00
H390   H     0.67541   0.74807   0.30564   0.00000  Uiso   1.00
H391   H     0.78881   0.60614   0.29899   0.00000  Uiso   1.00
H392   H     0.81007   0.89274   0.18016   0.00000  Uiso   1.00
H393   H     0.77885   0.69954   0.02211   0.00000  Uiso   1.00
H394   H     0.78137   0.80218   0.46335   0.00000  Uiso   1.00
H395   H     0.89336   0.79917   0.13354   0.00000  Uiso   1.00
H396   H     0.89102   0.69867   0.38263   0.00000  Uiso   1.00
N397   N     0.83333   0.74999   0.12623   0.00000  Uiso   1.00
N398   N     0.83333   0.75001   0.37376   0.00000  Uiso   1.00
O399   O     0.83334   0.68453   0.28974   0.00000  Uiso   1.00
O400   O     0.83333   0.81546   0.21026   0.00000  Uiso   1.00
O401   O     0.83334   0.68453   0.21026   0.00000  Uiso   1.00
O402   O     0.83333   0.81547   0.28974   0.00000  Uiso   1.00
O403   O     0.75725   0.75000   0.28044   0.00000  Uiso   1.00
O404   O     0.90942   0.75000   0.21955   0.00000  Uiso   1.00
O405   O     0.75725   0.74999   0.20096   0.00000  Uiso   1.00
O406   O     0.90942   0.75001   0.29903   0.00000  Uiso   1.00
Zn407  Zn    0.83333   0.75000   0.30307   0.00000  Uiso   1.00
Zn408  Zn    0.83333   0.74999   0.19693   0.00000  Uiso   1.00
O409   O     0.80098   0.52004   0.31369   0.00000  Uiso   1.00
C410   C     0.75052   0.50655   0.29163   0.00000  Uiso   1.00
H411   H     0.72411   0.53621   0.28443   0.00000  Uiso   1.00
H412   H     0.75231   0.98745   0.25790   0.00000  Uiso   1.00
C413   C     0.72746   0.97504   0.32465   0.00000  Uiso   1.00
H414   H     0.68872   0.96252   0.30674   0.00000  Uiso   1.00
H415   H     0.75402   0.94576   0.33317   0.00000  Uiso   1.00
H416   H     0.72240   0.99306   0.35833   0.00000  Uiso   1.00
O417   O     0.82587   0.97823   0.17036   0.00000  Uiso   1.00
C418   C     0.77204   0.98977   0.16323   0.00000  Uiso   1.00
H419   H     0.76510   0.51828   0.18740   0.00000  Uiso   1.00
H420   H     0.74648   0.96079   0.16903   0.00000  Uiso   1.00
C421   C     0.75628   0.50529   0.11215   0.00000  Uiso   1.00
H422   H     0.76251   0.97766   0.08668   0.00000  Uiso   1.00
H423   H     0.71410   0.51500   0.10625   0.00000  Uiso   1.00
H424   H     0.78023   0.53485   0.10544   0.00000  Uiso   1.00
I425   I     0.93256   0.63636   0.18858   0.00000  Uiso   1.00
I426   I     0.91598   0.86666   0.35327   0.00000  Uiso   1.00
I427   I     0.95301   0.51762   0.19709   0.00000  Uiso   1.00
I428   I     0.92436   0.98618   0.35694   0.00000  Uiso   1.00
I429   I     0.74709   0.67730   0.11788   0.00000  Uiso   1.00
I430   I     0.75076   0.82624   0.35938   0.00000  Uiso   1.00
I431   I     0.92712   0.82197   0.03623   0.00000  Uiso   1.00
I432   I     0.92372   0.67440   0.48916   0.00000  Uiso   1.00
C433   C     0.16907   0.16380   0.74989   0.00000  Uiso   1.00
C434   C     0.17015   0.33624   0.75099   0.00000  Uiso   1.00
C435   C     0.13783   0.22159   0.54597   0.00000  Uiso   1.00
C436   C     0.13922   0.27921   0.94635   0.00000  Uiso   1.00
C437   C     0.13506   0.22200   0.59519   0.00000  Uiso   1.00
C438   C     0.13644   0.27910   0.89638   0.00000  Uiso   1.00
C439   C     0.20151   0.27751   0.60893   0.00000  Uiso   1.00
C440   C     0.20018   0.22115   0.90047   0.00000  Uiso   1.00
C441   C     0.20545   0.27800   0.55970   0.00000  Uiso   1.00
C442   C     0.20408   0.22036   0.95080   0.00000  Uiso   1.00
C443   C     0.17318   0.24948   0.52744   0.00000  Uiso   1.00
C444   C     0.17316   0.24994   0.97439   0.00000  Uiso   1.00
C445   C     0.06697   0.24994   0.73749   0.00000  Uiso   1.00
C446   C     0.26636   0.24990   0.76250   0.00000  Uiso   1.00
C447   C     0.01191   0.25009   0.73073   0.00000  Uiso   1.00
C448   C     0.32138   0.24929   0.76920   0.00000  Uiso   1.00
C449   C     0.15822   0.04456   0.78186   0.00000  Uiso   1.00
C450   C     0.17159   0.45480   0.71250   0.00000  Uiso   1.00
C451   C     0.15018   0.09043   0.77890   0.00000  Uiso   1.00
C452   C     0.16339   0.40892   0.71246   0.00000  Uiso   1.00
C453   C     0.17803   0.11599   0.75040   0.00000  Uiso   1.00
C454   C     0.18049   0.38413   0.75341   0.00000  Uiso   1.00
C455   C     0.21716   0.09639   0.72651   0.00000  Uiso   1.00
C456   C     0.21016   0.40480   0.79435   0.00000  Uiso   1.00
C457   C     0.22597   0.04999   0.72993   0.00000  Uiso   1.00
C458   C     0.21718   0.45151   0.79504   0.00000  Uiso   1.00
C459   C     0.19548   0.02450   0.75670   0.00000  Uiso   1.00
C460   C     0.19708   0.47601   0.75429   0.00000  Uiso   1.00
H461   H     0.32451   0.25105   0.69425   0.00000  Uiso   1.00
H462   H     0.00874   0.24807   0.80564   0.00000  Uiso   1.00
H463   H     0.12215   0.10614   0.79899   0.00000  Uiso   1.00
H464   H     0.14341   0.39274   0.68016   0.00000  Uiso   1.00
H465   H     0.11218   0.19954   0.52211   0.00000  Uiso   1.00
H466   H     0.11470   0.30218   0.96335   0.00000  Uiso   1.00
H467   H     0.22670   0.29917   0.63354   0.00000  Uiso   1.00
H468   H     0.22436   0.19867   0.88263   0.00000  Uiso   1.00
N469   N     0.16667   0.24999   0.62623   0.00000  Uiso   1.00
N470   N     0.16667   0.25001   0.87376   0.00000  Uiso   1.00
O471   O     0.16667   0.18453   0.78974   0.00000  Uiso   1.00
O472   O     0.16666   0.31546   0.71026   0.00000  Uiso   1.00
O473   O     0.16667   0.18453   0.71026   0.00000  Uiso   1.00
O474   O     0.16666   0.31547   0.78974   0.00000  Uiso   1.00
O475   O     0.09058   0.25000   0.78044   0.00000  Uiso   1.00
O476   O     0.24275   0.25000   0.71955   0.00000  Uiso   1.00
O477   O     0.09058   0.24999   0.70096   0.00000  Uiso   1.00
O478   O     0.24275   0.25001   0.79903   0.00000  Uiso   1.00
Zn479  Zn    0.16667   0.25000   0.80307   0.00000  Uiso   1.00
Zn480  Zn    0.16667   0.24999   0.69693   0.00000  Uiso   1.00
O481   O     0.13432   0.02004   0.81369   0.00000  Uiso   1.00
C482   C     0.08386   0.00655   0.79163   0.00000  Uiso   1.00
H483   H     0.05745   0.03621   0.78443   0.00000  Uiso   1.00
H484   H     0.08564   0.48745   0.75790   0.00000  Uiso   1.00
C485   C     0.06079   0.47504   0.82465   0.00000  Uiso   1.00
H486   H     0.02205   0.46252   0.80674   0.00000  Uiso   1.00
H487   H     0.08736   0.44576   0.83317   0.00000  Uiso   1.00
H488   H     0.05573   0.49306   0.85833   0.00000  Uiso   1.00
O489   O     0.15920   0.47823   0.67036   0.00000  Uiso   1.00
C490   C     0.10537   0.48977   0.66323   0.00000  Uiso   1.00
H491   H     0.09844   0.01828   0.68740   0.00000  Uiso   1.00
H492   H     0.07981   0.46079   0.66903   0.00000  Uiso   1.00
C493   C     0.08961   0.00529   0.61215   0.00000  Uiso   1.00
H494   H     0.09584   0.47766   0.58668   0.00000  Uiso   1.00
H495   H     0.04743   0.01500   0.60625   0.00000  Uiso   1.00
H496   H     0.11356   0.03485   0.60544   0.00000  Uiso   1.00
I497   I     0.26589   0.13636   0.68858   0.00000  Uiso   1.00
I498   I     0.24932   0.36666   0.85327   0.00000  Uiso   1.00
I499   I     0.28634   0.01762   0.69709   0.00000  Uiso   1.00
I500   I     0.25770   0.48618   0.85694   0.00000  Uiso   1.00
I501   I     0.08042   0.17730   0.61788   0.00000  Uiso   1.00
I502   I     0.08409   0.32624   0.85938   0.00000  Uiso   1.00
I503   I     0.26045   0.32197   0.53623   0.00000  Uiso   1.00
I504   I     0.25705   0.17440   0.98916   0.00000  Uiso   1.00
C505   C     0.50241   0.16380   0.74989   0.00000  Uiso   1.00
C506   C     0.50348   0.33624   0.75099   0.00000  Uiso   1.00
C507   C     0.47116   0.22159   0.54597   0.00000  Uiso   1.00
C508   C     0.47255   0.27921   0.94635   0.00000  Uiso   1.00
C509   C     0.46839   0.22200   0.59519   0.00000  Uiso   1.00
C510   C     0.46977   0.27910   0.89638   0.00000  Uiso   1.00
C511   C     0.53484   0.27751   0.60893   0.00000  Uiso   1.00
C512   C     0.53351   0.22115   0.90047   0.00000  Uiso   1.00
C513   C     0.53878   0.27800   0.55970   0.00000  Uiso   1.00
C514   C     0.53741   0.22036   0.95080   0.00000  Uiso   1.00
C515   C     0.50652   0.24948   0.52744   0.00000  Uiso   1.00
C516   C     0.50649   0.24994   0.97439   0.00000  Uiso   1.00
C517   C     0.40030   0.24994   0.73749   0.00000  Uiso   1.00
C518   C     0.59969   0.24990   0.76250   0.00000  Uiso   1.00
C519   C     0.34525   0.25009   0.73073   0.00000  Uiso   1.00
C520   C     0.65471   0.24929   0.76920   0.00000  Uiso   1.00
C521   C     0.49155   0.04456   0.78186   0.00000  Uiso   1.00
C522   C     0.50492   0.45480   0.71250   0.00000  Uiso   1.00
C523   C     0.48352   0.09043   0.77890   0.00000  Uiso   1.00
C524   C     0.49672   0.40892   0.71246   0.00000  Uiso   1.00
C525   C     0.51136   0.11599   0.75040   0.00000  Uiso   1.00
C526   C     0.51382   0.38413   0.75341   0.00000  Uiso   1.00
C527   C     0.55049   0.09639   0.72651   0.00000  Uiso   1.00
C528   C     0.54349   0.40480   0.79435   0.00000  Uiso   1.00
C529   C     0.55930   0.04999   0.72993   0.00000  Uiso   1.00
C530   C     0.55051   0.45151   0.79504   0.00000  Uiso   1.00
C531   C     0.52881   0.02450   0.75670   0.00000  Uiso   1.00
C532   C     0.53041   0.47601   0.75429   0.00000  Uiso   1.00
H533   H     0.65785   0.25105   0.69425   0.00000  Uiso   1.00
H534   H     0.34207   0.24807   0.80564   0.00000  Uiso   1.00
H535   H     0.45548   0.10614   0.79899   0.00000  Uiso   1.00
H536   H     0.47674   0.39274   0.68016   0.00000  Uiso   1.00
H537   H     0.44551   0.19954   0.52211   0.00000  Uiso   1.00
H538   H     0.44803   0.30218   0.96335   0.00000  Uiso   1.00
H539   H     0.56003   0.29917   0.63354   0.00000  Uiso   1.00
H540   H     0.55769   0.19867   0.88263   0.00000  Uiso   1.00
N541   N     0.50000   0.24999   0.62623   0.00000  Uiso   1.00
N542   N     0.50000   0.25001   0.87376   0.00000  Uiso   1.00
O543   O     0.50000   0.18453   0.78974   0.00000  Uiso   1.00
O544   O     0.50000   0.31546   0.71026   0.00000  Uiso   1.00
O545   O     0.50000   0.18453   0.71026   0.00000  Uiso   1.00
O546   O     0.50000   0.31547   0.78974   0.00000  Uiso   1.00
O547   O     0.42392   0.25000   0.78044   0.00000  Uiso   1.00
O548   O     0.57608   0.25000   0.71955   0.00000  Uiso   1.00
O549   O     0.42392   0.24999   0.70096   0.00000  Uiso   1.00
O550   O     0.57608   0.25001   0.79903   0.00000  Uiso   1.00
Zn551  Zn    0.50000   0.25000   0.80307   0.00000  Uiso   1.00
Zn552  Zn    0.50000   0.24999   0.69693   0.00000  Uiso   1.00
O553   O     0.46765   0.02004   0.81369   0.00000  Uiso   1.00
C554   C     0.41719   0.00655   0.79163   0.00000  Uiso   1.00
H555   H     0.39078   0.03621   0.78443   0.00000  Uiso   1.00
H556   H     0.41897   0.48745   0.75790   0.00000  Uiso   1.00
C557   C     0.39413   0.47504   0.82465   0.00000  Uiso   1.00
H558   H     0.35538   0.46252   0.80674   0.00000  Uiso   1.00
H559   H     0.42069   0.44576   0.83317   0.00000  Uiso   1.00
H560   H     0.38907   0.49306   0.85833   0.00000  Uiso   1.00
O561   O     0.49253   0.47823   0.67036   0.00000  Uiso   1.00
C562   C     0.43870   0.48977   0.66323   0.00000  Uiso   1.00
H563   H     0.43177   0.01828   0.68740   0.00000  Uiso   1.00
H564   H     0.41314   0.46079   0.66903   0.00000  Uiso   1.00
C565   C     0.42294   0.00529   0.61215   0.00000  Uiso   1.00
H566   H     0.42917   0.47766   0.58668   0.00000  Uiso   1.00
H567   H     0.38077   0.01500   0.60625   0.00000  Uiso   1.00
H568   H     0.44690   0.03485   0.60544   0.00000  Uiso   1.00
I569   I     0.59923   0.13636   0.68858   0.00000  Uiso   1.00
I570   I     0.58265   0.36666   0.85327   0.00000  Uiso   1.00
I571   I     0.61968   0.01762   0.69709   0.00000  Uiso   1.00
I572   I     0.59103   0.48618   0.85694   0.00000  Uiso   1.00
I573   I     0.41376   0.17730   0.61788   0.00000  Uiso   1.00
I574   I     0.41743   0.32624   0.85938   0.00000  Uiso   1.00
I575   I     0.59378   0.32197   0.53623   0.00000  Uiso   1.00
I576   I     0.59038   0.17440   0.98916   0.00000  Uiso   1.00
C577   C     0.83574   0.16380   0.74989   0.00000  Uiso   1.00
C578   C     0.83681   0.33624   0.75099   0.00000  Uiso   1.00
C579   C     0.80450   0.22159   0.54597   0.00000  Uiso   1.00
C580   C     0.80588   0.27921   0.94635   0.00000  Uiso   1.00
C581   C     0.80173   0.22200   0.59519   0.00000  Uiso   1.00
C582   C     0.80311   0.27910   0.89638   0.00000  Uiso   1.00
C583   C     0.86817   0.27751   0.60893   0.00000  Uiso   1.00
C584   C     0.86684   0.22115   0.90047   0.00000  Uiso   1.00
C585   C     0.87212   0.27800   0.55970   0.00000  Uiso   1.00
C586   C     0.87074   0.22036   0.95080   0.00000  Uiso   1.00
C587   C     0.83985   0.24948   0.52744   0.00000  Uiso   1.00
C588   C     0.83982   0.24994   0.97439   0.00000  Uiso   1.00
C589   C     0.73363   0.24994   0.73749   0.00000  Uiso   1.00
C590   C     0.93302   0.24990   0.76250   0.00000  Uiso   1.00
C591   C     0.67858   0.25009   0.73073   0.00000  Uiso   1.00
C592   C     0.98805   0.24929   0.76920   0.00000  Uiso   1.00
C593   C     0.82488   0.04456   0.78186   0.00000  Uiso   1.00
C594   C     0.83826   0.45480   0.71250   0.00000  Uiso   1.00
C595   C     0.81685   0.09043   0.77890   0.00000  Uiso   1.00
C596   C     0.83006   0.40892   0.71246   0.00000  Uiso   1.00
C597   C     0.84470   0.11599   0.75040   0.00000  Uiso   1.00
C598   C     0.84716   0.38413   0.75341   0.00000  Uiso   1.00
C599   C     0.88383   0.09639   0.72651   0.00000  Uiso   1.00
C600   C     0.87683   0.40480   0.79435   0.00000  Uiso   1.00
C601   C     0.89264   0.04999   0.72993   0.00000  Uiso   1.00
C602   C     0.88384   0.45151   0.79504   0.00000  Uiso   1.00
C603   C     0.86214   0.02450   0.75670   0.00000  Uiso   1.00
C604   C     0.86375   0.47601   0.75429   0.00000  Uiso   1.00
H605   H     0.99118   0.25105   0.69425   0.00000  Uiso   1.00
H606   H     0.67541   0.24807   0.80564   0.00000  Uiso   1.00
H607   H     0.78881   0.10614   0.79899   0.00000  Uiso   1.00
H608   H     0.81007   0.39274   0.68016   0.00000  Uiso   1.00
H609   H     0.77885   0.19954   0.52211   0.00000  Uiso   1.00
H610   H     0.78137   0.30218   0.96335   0.00000  Uiso   1.00
H611   H     0.89336   0.29917   0.63354   0.00000  Uiso   1.00
H612   H     0.89102   0.19867   0.88263   0.00000  Uiso   1.00
N613   N     0.83333   0.24999   0.62623   0.00000  Uiso   1.00
N614   N     0.83333   0.25001   0.87376   0.00000  Uiso   1.00
O615   O     0.83334   0.18453   0.78974   0.00000  Uiso   1.00
O616   O     0.83333   0.31546   0.71026   0.00000  Uiso   1.00
O617   O     0.83334   0.18453   0.71026   0.00000  Uiso   1.00
O618   O     0.83333   0.31547   0.78974   0.00000  Uiso   1.00
O619   O     0.75725   0.25000   0.78044   0.00000  Uiso   1.00
O620   O     0.90942   0.25000   0.71955   0.00000  Uiso   1.00
O621   O     0.75725   0.24999   0.70096   0.00000  Uiso   1.00
O622   O     0.90942   0.25001   0.79903   0.00000  Uiso   1.00
Zn623  Zn    0.83333   0.25000   0.80307   0.00000  Uiso   1.00
Zn624  Zn    0.83333   0.24999   0.69693   0.00000  Uiso   1.00
O625   O     0.80098   0.02004   0.81369   0.00000  Uiso   1.00
C626   C     0.75052   0.00655   0.79163   0.00000  Uiso   1.00
H627   H     0.72411   0.03621   0.78443   0.00000  Uiso   1.00
H628   H     0.75231   0.48745   0.75790   0.00000  Uiso   1.00
C629   C     0.72746   0.47504   0.82465   0.00000  Uiso   1.00
H630   H     0.68872   0.46252   0.80674   0.00000  Uiso   1.00
H631   H     0.75402   0.44576   0.83317   0.00000  Uiso   1.00
H632   H     0.72240   0.49306   0.85833   0.00000  Uiso   1.00
O633   O     0.82587   0.47823   0.67036   0.00000  Uiso   1.00
C634   C     0.77204   0.48977   0.66323   0.00000  Uiso   1.00
H635   H     0.76510   0.01828   0.68740   0.00000  Uiso   1.00
H636   H     0.74648   0.46079   0.66903   0.00000  Uiso   1.00
C637   C     0.75628   0.00529   0.61215   0.00000  Uiso   1.00
H638   H     0.76251   0.47766   0.58668   0.00000  Uiso   1.00
H639   H     0.71410   0.01500   0.60625   0.00000  Uiso   1.00
H640   H     0.78023   0.03485   0.60544   0.00000  Uiso   1.00
I641   I     0.93256   0.13636   0.68858   0.00000  Uiso   1.00
I642   I     0.91598   0.36666   0.85327   0.00000  Uiso   1.00
I643   I     0.95301   0.01762   0.69709   0.00000  Uiso   1.00
I644   I     0.92436   0.48618   0.85694   0.00000  Uiso   1.00
I645   I     0.74709   0.17730   0.61788   0.00000  Uiso   1.00
I646   I     0.75076   0.32624   0.85938   0.00000  Uiso   1.00
I647   I     0.92712   0.32197   0.53623   0.00000  Uiso   1.00
I648   I     0.92372   0.17440   0.98916   0.00000  Uiso   1.00
C649   C     0.16907   0.66380   0.74989   0.00000  Uiso   1.00
C650   C     0.17015   0.83624   0.75099   0.00000  Uiso   1.00
C651   C     0.13783   0.72159   0.54597   0.00000  Uiso   1.00
C652   C     0.13922   0.77921   0.94635   0.00000  Uiso   1.00
C653   C     0.13506   0.72200   0.59519   0.00000  Uiso   1.00
C654   C     0.13644   0.77910   0.89638   0.00000  Uiso   1.00
C655   C     0.20151   0.77751   0.60893   0.00000  Uiso   1.00
C656   C     0.20018   0.72115   0.90047   0.00000  Uiso   1.00
C657   C     0.20545   0.77800   0.55970   0.00000  Uiso   1.00
C658   C     0.20408   0.72036   0.95080   0.00000  Uiso   1.00
C659   C     0.17318   0.74948   0.52744   0.00000  Uiso   1.00
C660   C     0.17316   0.74994   0.97439   0.00000  Uiso   1.00
C661   C     0.06697   0.74994   0.73749   0.00000  Uiso   1.00
C662   C     0.26636   0.74990   0.76250   0.00000  Uiso   1.00
C663   C     0.01191   0.75009   0.73073   0.00000  Uiso   1.00
C664   C     0.32138   0.74929   0.76920   0.00000  Uiso   1.00
C665   C     0.15822   0.54456   0.78186   0.00000  Uiso   1.00
C666   C     0.17159   0.95480   0.71250   0.00000  Uiso   1.00
C667   C     0.15018   0.59043   0.77890   0.00000  Uiso   1.00
C668   C     0.16339   0.90892   0.71246   0.00000  Uiso   1.00
C669   C     0.17803   0.61599   0.75040   0.00000  Uiso   1.00
C670   C     0.18049   0.88413   0.75341   0.00000  Uiso   1.00
C671   C     0.21716   0.59639   0.72651   0.00000  Uiso   1.00
C672   C     0.21016   0.90480   0.79435   0.00000  Uiso   1.00
C673   C     0.22597   0.54999   0.72993   0.00000  Uiso   1.00
C674   C     0.21718   0.95151   0.79504   0.00000  Uiso   1.00
C675   C     0.19548   0.52450   0.75670   0.00000  Uiso   1.00
C676   C     0.19708   0.97601   0.75429   0.00000  Uiso   1.00
H677   H     0.32451   0.75105   0.69425   0.00000  Uiso   1.00
H678   H     0.00874   0.74807   0.80564   0.00000  Uiso   1.00
H679   H     0.12215   0.60614   0.79899   0.00000  Uiso   1.00
H680   H     0.14341   0.89274   0.68016   0.00000  Uiso   1.00
H681   H     0.11218   0.69954   0.52211   0.00000  Uiso   1.00
H682   H     0.11470   0.80218   0.96335   0.00000  Uiso   1.00
H683   H     0.22670   0.79917   0.63354   0.00000  Uiso   1.00
H684   H     0.22436   0.69867   0.88263   0.00000  Uiso   1.00
N685   N     0.16667   0.74999   0.62623   0.00000  Uiso   1.00
N686   N     0.16667   0.75001   0.87376   0.00000  Uiso   1.00
O687   O     0.16667   0.68453   0.78974   0.00000  Uiso   1.00
O688   O     0.16666   0.81546   0.71026   0.00000  Uiso   1.00
O689   O     0.16667   0.68453   0.71026   0.00000  Uiso   1.00
O690   O     0.16666   0.81547   0.78974   0.00000  Uiso   1.00
O691   O     0.09058   0.75000   0.78044   0.00000  Uiso   1.00
O692   O     0.24275   0.75000   0.71955   0.00000  Uiso   1.00
O693   O     0.09058   0.74999   0.70096   0.00000  Uiso   1.00
O694   O     0.24275   0.75001   0.79903   0.00000  Uiso   1.00
Zn695  Zn    0.16667   0.75000   0.80307   0.00000  Uiso   1.00
Zn696  Zn    0.16667   0.74999   0.69693   0.00000  Uiso   1.00
O697   O     0.13432   0.52004   0.81369   0.00000  Uiso   1.00
C698   C     0.08386   0.50655   0.79163   0.00000  Uiso   1.00
H699   H     0.05745   0.53621   0.78443   0.00000  Uiso   1.00
H700   H     0.08564   0.98745   0.75790   0.00000  Uiso   1.00
C701   C     0.06079   0.97504   0.82465   0.00000  Uiso   1.00
H702   H     0.02205   0.96252   0.80674   0.00000  Uiso   1.00
H703   H     0.08736   0.94576   0.83317   0.00000  Uiso   1.00
H704   H     0.05573   0.99306   0.85833   0.00000  Uiso   1.00
O705   O     0.15920   0.97823   0.67036   0.00000  Uiso   1.00
C706   C     0.10537   0.98977   0.66323   0.00000  Uiso   1.00
H707   H     0.09844   0.51828   0.68740   0.00000  Uiso   1.00
H708   H     0.07981   0.96079   0.66903   0.00000  Uiso   1.00
C709   C     0.08961   0.50529   0.61215   0.00000  Uiso   1.00
H710   H     0.09584   0.97766   0.58668   0.00000  Uiso   1.00
H711   H     0.04743   0.51500   0.60625   0.00000  Uiso   1.00
H712   H     0.11356   0.53485   0.60544   0.00000  Uiso   1.00
I713   I     0.26589   0.63636   0.68858   0.00000  Uiso   1.00
I714   I     0.24932   0.86666   0.85327   0.00000  Uiso   1.00
I715   I     0.28634   0.51762   0.69709   0.00000  Uiso   1.00
I716   I     0.25770   0.98618   0.85694   0.00000  Uiso   1.00
I717   I     0.08042   0.67730   0.61788   0.00000  Uiso   1.00
I718   I     0.08409   0.82624   0.85938   0.00000  Uiso   1.00
I719   I     0.26045   0.82197   0.53623   0.00000  Uiso   1.00
I720   I     0.25705   0.67440   0.98916   0.00000  Uiso   1.00
C721   C     0.50241   0.66380   0.74989   0.00000  Uiso   1.00
C722   C     0.50348   0.83624   0.75099   0.00000  Uiso   1.00
C723   C     0.47116   0.72159   0.54597   0.00000  Uiso   1.00
C724   C     0.47255   0.77921   0.94635   0.00000  Uiso   1.00
C725   C     0.46839   0.72200   0.59519   0.00000  Uiso   1.00
C726   C     0.46977   0.77910   0.89638   0.00000  Uiso   1.00
C727   C     0.53484   0.77751   0.60893   0.00000  Uiso   1.00
C728   C     0.53351   0.72115   0.90047   0.00000  Uiso   1.00
C729   C     0.53878   0.77800   0.55970   0.00000  Uiso   1.00
C730   C     0.53741   0.72036   0.95080   0.00000  Uiso   1.00
C731   C     0.50652   0.74948   0.52744   0.00000  Uiso   1.00
C732   C     0.50649   0.74994   0.97439   0.00000  Uiso   1.00
C733   C     0.40030   0.74994   0.73749   0.00000  Uiso   1.00
C734   C     0.59969   0.74990   0.76250   0.00000  Uiso   1.00
C735   C     0.34525   0.75009   0.73073   0.00000  Uiso   1.00
C736   C     0.65471   0.74929   0.76920   0.00000  Uiso   1.00
C737   C     0.49155   0.54456   0.78186   0.00000  Uiso   1.00
C738   C     0.50492   0.95480   0.71250   0.00000  Uiso   1.00
C739   C     0.48352   0.59043   0.77890   0.00000  Uiso   1.00
C740   C     0.49672   0.90892   0.71246   0.00000  Uiso   1.00
C741   C     0.51136   0.61599   0.75040   0.00000  Uiso   1.00
C742   C     0.51382   0.88413   0.75341   0.00000  Uiso   1.00
C743   C     0.55049   0.59639   0.72651   0.00000  Uiso   1.00
C744   C     0.54349   0.90480   0.79435   0.00000  Uiso   1.00
C745   C     0.55930   0.54999   0.72993   0.00000  Uiso   1.00
C746   C     0.55051   0.95151   0.79504   0.00000  Uiso   1.00
C747   C     0.52881   0.52450   0.75670   0.00000  Uiso   1.00
C748   C     0.53041   0.97601   0.75429   0.00000  Uiso   1.00
H749   H     0.65785   0.75105   0.69425   0.00000  Uiso   1.00
H750   H     0.34207   0.74807   0.80564   0.00000  Uiso   1.00
H751   H     0.45548   0.60614   0.79899   0.00000  Uiso   1.00
H752   H     0.47674   0.89274   0.68016   0.00000  Uiso   1.00
H753   H     0.44551   0.69954   0.52211   0.00000  Uiso   1.00
H754   H     0.44803   0.80218   0.96335   0.00000  Uiso   1.00
H755   H     0.56003   0.79917   0.63354   0.00000  Uiso   1.00
H756   H     0.55769   0.69867   0.88263   0.00000  Uiso   1.00
N757   N     0.50000   0.74999   0.62623   0.00000  Uiso   1.00
N758   N     0.50000   0.75001   0.87376   0.00000  Uiso   1.00
O759   O     0.50000   0.68453   0.78974   0.00000  Uiso   1.00
O760   O     0.50000   0.81546   0.71026   0.00000  Uiso   1.00
O761   O     0.50000   0.68453   0.71026   0.00000  Uiso   1.00
O762   O     0.50000   0.81547   0.78974   0.00000  Uiso   1.00
O763   O     0.42392   0.75000   0.78044   0.00000  Uiso   1.00
O764   O     0.57608   0.75000   0.71955   0.00000  Uiso   1.00
O765   O     0.42392   0.74999   0.70096   0.00000  Uiso   1.00
O766   O     0.57608   0.75001   0.79903   0.00000  Uiso   1.00
Zn767  Zn    0.50000   0.75000   0.80307   0.00000  Uiso   1.00
Zn768  Zn    0.50000   0.74999   0.69693   0.00000  Uiso   1.00
O769   O     0.46765   0.52004   0.81369   0.00000  Uiso   1.00
C770   C     0.41719   0.50655   0.79163   0.00000  Uiso   1.00
H771   H     0.39078   0.53621   0.78443   0.00000  Uiso   1.00
H772   H     0.41897   0.98745   0.75790   0.00000  Uiso   1.00
C773   C     0.39413   0.97504   0.82465   0.00000  Uiso   1.00
H774   H     0.35538   0.96252   0.80674   0.00000  Uiso   1.00
H775   H     0.42069   0.94576   0.83317   0.00000  Uiso   1.00
H776   H     0.38907   0.99306   0.85833   0.00000  Uiso   1.00
O777   O     0.49253   0.97823   0.67036   0.00000  Uiso   1.00
C778   C     0.43870   0.98977   0.66323   0.00000  Uiso   1.00
H779   H     0.43177   0.51828   0.68740   0.00000  Uiso   1.00
H780   H     0.41314   0.96079   0.66903   0.00000  Uiso   1.00
C781   C     0.42294   0.50529   0.61215   0.00000  Uiso   1.00
H782   H     0.42917   0.97766   0.58668   0.00000  Uiso   1.00
H783   H     0.38077   0.51500   0.60625   0.00000  Uiso   1.00
H784   H     0.44690   0.53485   0.60544   0.00000  Uiso   1.00
I785   I     0.59923   0.63636   0.68858   0.00000  Uiso   1.00
I786   I     0.58265   0.86666   0.85327   0.00000  Uiso   1.00
I787   I     0.61968   0.51762   0.69709   0.00000  Uiso   1.00
I788   I     0.59103   0.98618   0.85694   0.00000  Uiso   1.00
I789   I     0.41376   0.67730   0.61788   0.00000  Uiso   1.00
I790   I     0.41743   0.82624   0.85938   0.00000  Uiso   1.00
I791   I     0.59378   0.82197   0.53623   0.00000  Uiso   1.00
I792   I     0.59038   0.67440   0.98916   0.00000  Uiso   1.00
C793   C     0.83574   0.66380   0.74989   0.00000  Uiso   1.00
C794   C     0.83681   0.83624   0.75099   0.00000  Uiso   1.00
C795   C     0.80450   0.72159   0.54597   0.00000  Uiso   1.00
C796   C     0.80588   0.77921   0.94635   0.00000  Uiso   1.00
C797   C     0.80173   0.72200   0.59519   0.00000  Uiso   1.00
C798   C     0.80311   0.77910   0.89638   0.00000  Uiso   1.00
C799   C     0.86817   0.77751   0.60893   0.00000  Uiso   1.00
C800   C     0.86684   0.72115   0.90047   0.00000  Uiso   1.00
C801   C     0.87212   0.77800   0.55970   0.00000  Uiso   1.00
C802   C     0.87074   0.72036   0.95080   0.00000  Uiso   1.00
C803   C     0.83985   0.74948   0.52744   0.00000  Uiso   1.00
C804   C     0.83982   0.74994   0.97439   0.00000  Uiso   1.00
C805   C     0.73363   0.74994   0.73749   0.00000  Uiso   1.00
C806   C     0.93302   0.74990   0.76250   0.00000  Uiso   1.00
C807   C     0.67858   0.75009   0.73073   0.00000  Uiso   1.00
C808   C     0.98805   0.74929   0.76920   0.00000  Uiso   1.00
C809   C     0.82488   0.54456   0.78186   0.00000  Uiso   1.00
C810   C     0.83826   0.95480   0.71250   0.00000  Uiso   1.00
C811   C     0.81685   0.59043   0.77890   0.00000  Uiso   1.00
C812   C     0.83006   0.90892   0.71246   0.00000  Uiso   1.00
C813   C     0.84470   0.61599   0.75040   0.00000  Uiso   1.00
C814   C     0.84716   0.88413   0.75341   0.00000  Uiso   1.00
C815   C     0.88383   0.59639   0.72651   0.00000  Uiso   1.00
C816   C     0.87683   0.90480   0.79435   0.00000  Uiso   1.00
C817   C     0.89264   0.54999   0.72993   0.00000  Uiso   1.00
C818   C     0.88384   0.95151   0.79504   0.00000  Uiso   1.00
C819   C     0.86214   0.52450   0.75670   0.00000  Uiso   1.00
C820   C     0.86375   0.97601   0.75429   0.00000  Uiso   1.00
H821   H     0.99118   0.75105   0.69425   0.00000  Uiso   1.00
H822   H     0.67541   0.74807   0.80564   0.00000  Uiso   1.00
H823   H     0.78881   0.60614   0.79899   0.00000  Uiso   1.00
H824   H     0.81007   0.89274   0.68016   0.00000  Uiso   1.00
H825   H     0.77885   0.69954   0.52211   0.00000  Uiso   1.00
H826   H     0.78137   0.80218   0.96335   0.00000  Uiso   1.00
H827   H     0.89336   0.79917   0.63354   0.00000  Uiso   1.00
H828   H     0.89102   0.69867   0.88263   0.00000  Uiso   1.00
N829   N     0.83333   0.74999   0.62623   0.00000  Uiso   1.00
N830   N     0.83333   0.75001   0.87376   0.00000  Uiso   1.00
O831   O     0.83334   0.68453   0.78974   0.00000  Uiso   1.00
O832   O     0.83333   0.81546   0.71026   0.00000  Uiso   1.00
O833   O     0.83334   0.68453   0.71026   0.00000  Uiso   1.00
O834   O     0.83333   0.81547   0.78974   0.00000  Uiso   1.00
O835   O     0.75725   0.75000   0.78044   0.00000  Uiso   1.00
O836   O     0.90942   0.75000   0.71955   0.00000  Uiso   1.00
O837   O     0.75725   0.74999   0.70096   0.00000  Uiso   1.00
O838   O     0.90942   0.75001   0.79903   0.00000  Uiso   1.00
Zn839  Zn    0.83333   0.75000   0.80307   0.00000  Uiso   1.00
Zn840  Zn    0.83333   0.74999   0.69693   0.00000  Uiso   1.00
O841   O     0.80098   0.52004   0.81369   0.00000  Uiso   1.00
C842   C     0.75052   0.50655   0.79163   0.00000  Uiso   1.00
H843   H     0.72411   0.53621   0.78443   0.00000  Uiso   1.00
H844   H     0.75231   0.98745   0.75790   0.00000  Uiso   1.00
C845   C     0.72746   0.97504   0.82465   0.00000  Uiso   1.00
H846   H     0.68872   0.96252   0.80674   0.00000  Uiso   1.00
H847   H     0.75402   0.94576   0.83317   0.00000  Uiso   1.00
H848   H     0.72240   0.99306   0.85833   0.00000  Uiso   1.00
O849   O     0.82587   0.97823   0.67036   0.00000  Uiso   1.00
C850   C     0.77204   0.98977   0.66323   0.00000  Uiso   1.00
H851   H     0.76510   0.51828   0.68740   0.00000  Uiso   1.00
H852   H     0.74648   0.96079   0.66903   0.00000  Uiso   1.00
C853   C     0.75628   0.50529   0.61215   0.00000  Uiso   1.00
H854   H     0.76251   0.97766   0.58668   0.00000  Uiso   1.00
H855   H     0.71410   0.51500   0.60625   0.00000  Uiso   1.00
H856   H     0.78023   0.53485   0.60544   0.00000  Uiso   1.00
I857   I     0.93256   0.63636   0.68858   0.00000  Uiso   1.00
I858   I     0.91598   0.86666   0.85327   0.00000  Uiso   1.00
I859   I     0.95301   0.51762   0.69709   0.00000  Uiso   1.00
I860   I     0.92436   0.98618   0.85694   0.00000  Uiso   1.00
I861   I     0.74709   0.67730   0.61788   0.00000  Uiso   1.00
I862   I     0.75076   0.82624   0.85938   0.00000  Uiso   1.00
I863   I     0.92712   0.82197   0.53623   0.00000  Uiso   1.00
I864   I     0.92372   0.67440   0.98916   0.00000  Uiso   1.00
loop_
_geom_bond_atom_site_label_1
_geom_bond_atom_site_label_2
_geom_bond_distance
_geom_bond_site_symmetry_2
_ccdc_geom_bond_type
C1     C21     1.438   .     S
C1     O41     1.283   .     A
C1     O39     1.286   .     A
C2     C22     1.447   .     S
C2     O42     1.283   .     A
C2     O40     1.290   .     A
C3     C5      1.406   .     A
C3     H33     1.083   .     S
C3     C11     1.399   .     A
C4     H34     1.083   .     S
C4     C12     1.399   .     A
C4     C6      1.406   .     A
C5     N37     1.374   .     A
C5     I69     2.116   .     S
C6     N38     1.375   .     A
C6     I70     2.116   .     S
C7     C9      1.413   .     A
C7     H35     1.082   .     S
C7     N37     1.367   .     A
C8     N38     1.367   .     A
C8     H36     1.082   .     S
C8     C10     1.414   .     A
C9     C11     1.410   .     A
C9     I71     2.118   .     S
C10    C12     1.410   .     A
C10    I72     2.118   .     S
C11    C444    1.502   1_554 S
C12    C443    1.502   .     S
C13    C15     1.401   .     S
C13    O45     1.277   .     A
C13    O43     1.274   .     A
C14    O46     1.277   .     A
C14    O44     1.273   .     A
C14    C16     1.400   .     S
C15    C160    1.330   1_455 S
C15    H173    1.088   1_455 S
C16    C87     1.330   .     S
C16    H102    1.087   .     S
C17    C27     1.404   .     A
C17    O49     1.385   .     S
C17    C19     1.380   .     A
C18    C28     1.403   .     A
C18    O57     1.386   .     S
C18    C20     1.380   .     A
C19    H31     1.084   .     S
C19    C21     1.394   .     A
C20    C22     1.397   .     A
C20    H32     1.084   .     S
C21    C23     1.415   .     A
C22    C24     1.419   .     A
C23    I65     2.146   .     S
C23    C25     1.399   .     A
C24    I66     2.151   .     S
C24    C26     1.400   .     A
C25    C27     1.404   .     A
C25    I67     2.146   .     S
C26    C28     1.404   .     A
C26    I68     2.147   .     S
C27    C244    1.442   1_545 S
C28    C243    1.442   .     S
H29    C87     1.088   .     S
H30    C160    1.087   1_455 S
N37    Zn48    2.002   .     S
N38    Zn47    2.002   .     S
O39    Zn47    1.975   .     S
O40    Zn48    1.975   .     S
O41    Zn48    1.988   .     S
O42    Zn47    1.988   .     S
O43    Zn47    1.965   .     S
O44    Zn48    1.965   .     S
O45    Zn48    1.979   .     S
O46    Zn47    1.979   .     S
O49    C50     1.409   .     S
C50    H51     1.113   .     S
C50    H268    1.109   1_545 S
C50    C269    1.519   1_545 S
H52    C266    1.109   .     S
C53    H54     1.110   .     S
C53    H55     1.111   .     S
C53    H56     1.110   .     S
C53    C266    1.519   .     S
O57    C58     1.411   .     S
C58    H60     1.115   .     S
C58    H275    1.111   .     S
C58    C277    1.520   .     S
H59    C274    1.111   1_545 S
C61    H64     1.111   .     S
C61    H63     1.111   .     S
C61    C274    1.520   1_545 S
C61    H278    1.111   1_545 S
H62    C277    1.111   .     S
C73    C93     1.438   .     S
C73    O113    1.283   .     A
C73    O111    1.286   .     A
C74    C94     1.447   .     S
C74    O114    1.283   .     A
C74    O112    1.290   .     A
C75    C77     1.406   .     A
C75    H105    1.083   .     S
C75    C83     1.399   .     A
C76    H106    1.083   .     S
C76    C84     1.399   .     A
C76    C78     1.406   .     A
C77    N109    1.374   .     A
C77    I141    2.116   .     S
C78    N110    1.375   .     A
C78    I142    2.116   .     S
C79    C81     1.413   .     A
C79    H107    1.082   .     S
C79    N109    1.367   .     A
C80    N110    1.367   .     A
C80    H108    1.082   .     S
C80    C82     1.414   .     A
C81    C83     1.410   .     A
C81    I143    2.118   .     S
C82    C84     1.410   .     A
C82    I144    2.118   .     S
C83    C516    1.502   1_554 S
C84    C515    1.502   .     S
C85    C87     1.401   .     S
C85    O117    1.277   .     A
C85    O115    1.274   .     A
C86    O118    1.277   .     A
C86    O116    1.273   .     A
C86    C88     1.400   .     S
C88    C159    1.330   .     S
C88    H174    1.087   .     S
C89    C99     1.404   .     A
C89    O121    1.385   .     S
C89    C91     1.380   .     A
C90    C100    1.403   .     A
C90    O129    1.386   .     S
C90    C92     1.380   .     A
C91    H103    1.084   .     S
C91    C93     1.394   .     A
C92    C94     1.397   .     A
C92    H104    1.084   .     S
C93    C95     1.415   .     A
C94    C96     1.419   .     A
C95    I137    2.146   .     S
C95    C97     1.399   .     A
C96    I138    2.151   .     S
C96    C98     1.400   .     A
C97    C99     1.404   .     A
C97    I139    2.146   .     S
C98    C100    1.404   .     A
C98    I140    2.147   .     S
C99    C316    1.442   1_545 S
C100   C315    1.442   .     S
H101   C159    1.088   .     S
N109   Zn120   2.002   .     S
N110   Zn119   2.002   .     S
O111   Zn119   1.975   .     S
O112   Zn120   1.975   .     S
O113   Zn120   1.988   .     S
O114   Zn119   1.988   .     S
O115   Zn119   1.965   .     S
O116   Zn120   1.965   .     S
O117   Zn120   1.979   .     S
O118   Zn119   1.979   .     S
O121   C122    1.409   .     S
C122   H123    1.113   .     S
C122   H340    1.109   1_545 S
C122   C341    1.519   1_545 S
H124   C338    1.109   .     S
C125   H126    1.110   .     S
C125   H127    1.111   .     S
C125   H128    1.110   .     S
C125   C338    1.519   .     S
O129   C130    1.411   .     S
C130   H132    1.115   .     S
C130   H347    1.111   .     S
C130   C349    1.520   .     S
H131   C346    1.111   1_545 S
C133   H136    1.111   .     S
C133   H135    1.111   .     S
C133   C346    1.520   1_545 S
C133   H350    1.111   1_545 S
H134   C349    1.111   .     S
C145   C165    1.438   .     S
C145   O185    1.283   .     A
C145   O183    1.286   .     A
C146   C166    1.447   .     S
C146   O186    1.283   .     A
C146   O184    1.290   .     A
C147   C149    1.406   .     A
C147   H177    1.083   .     S
C147   C155    1.399   .     A
C148   H178    1.083   .     S
C148   C156    1.399   .     A
C148   C150    1.406   .     A
C149   N181    1.374   .     A
C149   I213    2.116   .     S
C150   N182    1.375   .     A
C150   I214    2.116   .     S
C151   C153    1.413   .     A
C151   H179    1.082   .     S
C151   N181    1.367   .     A
C152   N182    1.367   .     A
C152   H180    1.082   .     S
C152   C154    1.414   .     A
C153   C155    1.410   .     A
C153   I215    2.118   .     S
C154   C156    1.410   .     A
C154   I216    2.118   .     S
C155   C588    1.502   1_554 S
C156   C587    1.502   .     S
C157   C159    1.401   .     S
C157   O189    1.277   .     A
C157   O187    1.274   .     A
C158   O190    1.277   .     A
C158   O188    1.273   .     A
C158   C160    1.400   .     S
C160   C15     1.330   1_655 S
C160   H30     1.087   1_655 S
C161   C171    1.404   .     A
C161   O193    1.385   .     S
C161   C163    1.380   .     A
C162   C172    1.403   .     A
C162   O201    1.386   .     S
C162   C164    1.380   .     A
C163   H175    1.084   .     S
C163   C165    1.394   .     A
C164   C166    1.397   .     A
C164   H176    1.084   .     S
C165   C167    1.415   .     A
C166   C168    1.419   .     A
C167   I209    2.146   .     S
C167   C169    1.399   .     A
C168   I210    2.151   .     S
C168   C170    1.400   .     A
C169   C171    1.404   .     A
C169   I211    2.146   .     S
C170   C172    1.404   .     A
C170   I212    2.147   .     S
C171   C388    1.442   1_545 S
C172   C387    1.442   .     S
H173   C15     1.088   1_655 S
N181   Zn192   2.002   .     S
N182   Zn191   2.002   .     S
O183   Zn191   1.975   .     S
O184   Zn192   1.975   .     S
O185   Zn192   1.988   .     S
O186   Zn191   1.988   .     S
O187   Zn191   1.965   .     S
O188   Zn192   1.965   .     S
O189   Zn192   1.979   .     S
O190   Zn191   1.979   .     S
O193   C194    1.409   .     S
C194   H195    1.113   .     S
C194   H412    1.109   1_545 S
C194   C413    1.519   1_545 S
H196   C410    1.109   .     S
C197   H198    1.110   .     S
C197   H199    1.111   .     S
C197   H200    1.110   .     S
C197   C410    1.519   .     S
O201   C202    1.411   .     S
C202   H204    1.115   .     S
C202   H419    1.111   .     S
C202   C421    1.520   .     S
H203   C418    1.111   1_545 S
C205   H208    1.111   .     S
C205   H207    1.111   .     S
C205   C418    1.520   1_545 S
C205   H422    1.111   1_545 S
H206   C421    1.111   .     S
C217   C237    1.438   .     S
C217   O257    1.283   .     A
C217   O255    1.286   .     A
C218   C238    1.447   .     S
C218   O258    1.283   .     A
C218   O256    1.290   .     A
C219   C221    1.406   .     A
C219   H249    1.083   .     S
C219   C227    1.399   .     A
C220   H250    1.083   .     S
C220   C228    1.399   .     A
C220   C222    1.406   .     A
C221   N253    1.374   .     A
C221   I285    2.116   .     S
C222   N254    1.375   .     A
C222   I286    2.116   .     S
C223   C225    1.413   .     A
C223   H251    1.082   .     S
C223   N253    1.367   .     A
C224   N254    1.367   .     A
C224   H252    1.082   .     S
C224   C226    1.414   .     A
C225   C227    1.410   .     A
C225   I287    2.118   .     S
C226   C228    1.410   .     A
C226   I288    2.118   .     S
C227   C660    1.502   1_554 S
C228   C659    1.502   .     S
C229   C231    1.401   .     S
C229   O261    1.277   .     A
C229   O259    1.274   .     A
C230   O262    1.277   .     A
C230   O260    1.273   .     A
C230   C232    1.400   .     S
C231   C376    1.330   1_455 S
C231   H389    1.088   1_455 S
C232   C303    1.330   .     S
C232   H318    1.087   .     S
C233   C243    1.404   .     A
C233   O265    1.385   .     S
C233   C235    1.380   .     A
C234   C244    1.403   .     A
C234   O273    1.386   .     S
C234   C236    1.380   .     A
C235   H247    1.084   .     S
C235   C237    1.394   .     A
C236   C238    1.397   .     A
C236   H248    1.084   .     S
C237   C239    1.415   .     A
C238   C240    1.419   .     A
C239   I281    2.146   .     S
C239   C241    1.399   .     A
C240   I282    2.151   .     S
C240   C242    1.400   .     A
C241   C243    1.404   .     A
C241   I283    2.146   .     S
C242   C244    1.404   .     A
C242   I284    2.147   .     S
C244   C27     1.442   1_565 S
H245   C303    1.088   .     S
H246   C376    1.087   1_455 S
N253   Zn264   2.002   .     S
N254   Zn263   2.002   .     S
O255   Zn263   1.975   .     S
O256   Zn264   1.975   .     S
O257   Zn264   1.988   .     S
O258   Zn263   1.988   .     S
O259   Zn263   1.965   .     S
O260   Zn264   1.965   .     S
O261   Zn264   1.979   .     S
O262   Zn263   1.979   .     S
O265   C266    1.409   .     S
C266   H267    1.113   .     S
H268   C50     1.109   1_565 S
C269   H270    1.110   .     S
C269   H271    1.111   .     S
C269   H272    1.110   .     S
C269   C50     1.519   1_565 S
O273   C274    1.411   .     S
C274   H276    1.115   .     S
C274   H59     1.111   1_565 S
C274   C61     1.520   1_565 S
C277   H280    1.111   .     S
C277   H279    1.111   .     S
H278   C61     1.111   1_565 S
C289   C309    1.438   .     S
C289   O329    1.283   .     A
C289   O327    1.286   .     A
C290   C310    1.447   .     S
C290   O330    1.283   .     A
C290   O328    1.290   .     A
C291   C293    1.406   .     A
C291   H321    1.083   .     S
C291   C299    1.399   .     A
C292   H322    1.083   .     S
C292   C300    1.399   .     A
C292   C294    1.406   .     A
C293   N325    1.374   .     A
C293   I357    2.116   .     S
C294   N326    1.375   .     A
C294   I358    2.116   .     S
C295   C297    1.413   .     A
C295   H323    1.082   .     S
C295   N325    1.367   .     A
C296   N326    1.367   .     A
C296   H324    1.082   .     S
C296   C298    1.414   .     A
C297   C299    1.410   .     A
C297   I359    2.118   .     S
C298   C300    1.410   .     A
C298   I360    2.118   .     S
C299   C732    1.502   1_554 S
C300   C731    1.502   .     S
C301   C303    1.401   .     S
C301   O333    1.277   .     A
C301   O331    1.274   .     A
C302   O334    1.277   .     A
C302   O332    1.273   .     A
C302   C304    1.400   .     S
C304   C375    1.330   .     S
C304   H390    1.087   .     S
C305   C315    1.404   .     A
C305   O337    1.385   .     S
C305   C307    1.380   .     A
C306   C316    1.403   .     A
C306   O345    1.386   .     S
C306   C308    1.380   .     A
C307   H319    1.084   .     S
C307   C309    1.394   .     A
C308   C310    1.397   .     A
C308   H320    1.084   .     S
C309   C311    1.415   .     A
C310   C312    1.419   .     A
C311   I353    2.146   .     S
C311   C313    1.399   .     A
C312   I354    2.151   .     S
C312   C314    1.400   .     A
C313   C315    1.404   .     A
C313   I355    2.146   .     S
C314   C316    1.404   .     A
C314   I356    2.147   .     S
C316   C99     1.442   1_565 S
H317   C375    1.088   .     S
N325   Zn336   2.002   .     S
N326   Zn335   2.002   .     S
O327   Zn335   1.975   .     S
O328   Zn336   1.975   .     S
O329   Zn336   1.988   .     S
O330   Zn335   1.988   .     S
O331   Zn335   1.965   .     S
O332   Zn336   1.965   .     S
O333   Zn336   1.979   .     S
O334   Zn335   1.979   .     S
O337   C338    1.409   .     S
C338   H339    1.113   .     S
H340   C122    1.109   1_565 S
C341   H342    1.110   .     S
C341   H343    1.111   .     S
C341   H344    1.110   .     S
C341   C122    1.519   1_565 S
O345   C346    1.411   .     S
C346   H348    1.115   .     S
C346   H131    1.111   1_565 S
C346   C133    1.520   1_565 S
C349   H352    1.111   .     S
C349   H351    1.111   .     S
H350   C133    1.111   1_565 S
C361   C381    1.438   .     S
C361   O401    1.283   .     A
C361   O399    1.286   .     A
C362   C382    1.447   .     S
C362   O402    1.283   .     A
C362   O400    1.290   .     A
C363   C365    1.406   .     A
C363   H393    1.083   .     S
C363   C371    1.399   .     A
C364   H394    1.083   .     S
C364   C372    1.399   .     A
C364   C366    1.406   .     A
C365   N397    1.374   .     A
C365   I429    2.116   .     S
C366   N398    1.375   .     A
C366   I430    2.116   .     S
C367   C369    1.413   .     A
C367   H395    1.082   .     S
C367   N397    1.367   .     A
C368   N398    1.367   .     A
C368   H396    1.082   .     S
C368   C370    1.414   .     A
C369   C371    1.410   .     A
C369   I431    2.118   .     S
C370   C372    1.410   .     A
C370   I432    2.118   .     S
C371   C804    1.502   1_554 S
C372   C803    1.502   .     S
C373   C375    1.401   .     S
C373   O405    1.277   .     A
C373   O403    1.274   .     A
C374   O406    1.277   .     A
C374   O404    1.273   .     A
C374   C376    1.400   .     S
C376   C231    1.330   1_655 S
C376   H246    1.087   1_655 S
C377   C387    1.404   .     A
C377   O409    1.385   .     S
C377   C379    1.380   .     A
C378   C388    1.403   .     A
C378   O417    1.386   .     S
C378   C380    1.380   .     A
C379   H391    1.084   .     S
C379   C381    1.394   .     A
C380   C382    1.397   .     A
C380   H392    1.084   .     S
C381   C383    1.415   .     A
C382   C384    1.419   .     A
C383   I425    2.146   .     S
C383   C385    1.399   .     A
C384   I426    2.151   .     S
C384   C386    1.400   .     A
C385   C387    1.404   .     A
C385   I427    2.146   .     S
C386   C388    1.404   .     A
C386   I428    2.147   .     S
C388   C171    1.442   1_565 S
H389   C231    1.088   1_655 S
N397   Zn408   2.002   .     S
N398   Zn407   2.002   .     S
O399   Zn407   1.975   .     S
O400   Zn408   1.975   .     S
O401   Zn408   1.988   .     S
O402   Zn407   1.988   .     S
O403   Zn407   1.965   .     S
O404   Zn408   1.965   .     S
O405   Zn408   1.979   .     S
O406   Zn407   1.979   .     S
O409   C410    1.409   .     S
C410   H411    1.113   .     S
H412   C194    1.109   1_565 S
C413   H414    1.110   .     S
C413   H415    1.111   .     S
C413   H416    1.110   .     S
C413   C194    1.519   1_565 S
O417   C418    1.411   .     S
C418   H420    1.115   .     S
C418   H203    1.111   1_565 S
C418   C205    1.520   1_565 S
C421   H424    1.111   .     S
C421   H423    1.111   .     S
H422   C205    1.111   1_565 S
C433   C453    1.438   .     S
C433   O473    1.283   .     A
C433   O471    1.286   .     A
C434   C454    1.447   .     S
C434   O474    1.283   .     A
C434   O472    1.290   .     A
C435   C437    1.406   .     A
C435   H465    1.083   .     S
C435   C443    1.399   .     A
C436   H466    1.083   .     S
C436   C444    1.399   .     A
C436   C438    1.406   .     A
C437   N469    1.374   .     A
C437   I501    2.116   .     S
C438   N470    1.375   .     A
C438   I502    2.116   .     S
C439   C441    1.413   .     A
C439   H467    1.082   .     S
C439   N469    1.367   .     A
C440   N470    1.367   .     A
C440   H468    1.082   .     S
C440   C442    1.414   .     A
C441   C443    1.410   .     A
C441   I503    2.118   .     S
C442   C444    1.410   .     A
C442   I504    2.118   .     S
C444   C11     1.502   1_556 S
C445   C447    1.401   .     S
C445   O477    1.277   .     A
C445   O475    1.274   .     A
C446   O478    1.277   .     A
C446   O476    1.273   .     A
C446   C448    1.400   .     S
C447   C592    1.330   1_455 S
C447   H605    1.088   1_455 S
C448   C519    1.330   .     S
C448   H534    1.087   .     S
C449   C459    1.404   .     A
C449   O481    1.385   .     S
C449   C451    1.380   .     A
C450   C460    1.403   .     A
C450   O489    1.386   .     S
C450   C452    1.380   .     A
C451   H463    1.084   .     S
C451   C453    1.394   .     A
C452   C454    1.397   .     A
C452   H464    1.084   .     S
C453   C455    1.415   .     A
C454   C456    1.419   .     A
C455   I497    2.146   .     S
C455   C457    1.399   .     A
C456   I498    2.151   .     S
C456   C458    1.400   .     A
C457   C459    1.404   .     A
C457   I499    2.146   .     S
C458   C460    1.404   .     A
C458   I500    2.147   .     S
C459   C676    1.442   1_545 S
C460   C675    1.442   .     S
H461   C519    1.088   .     S
H462   C592    1.087   1_455 S
N469   Zn480   2.002   .     S
N470   Zn479   2.002   .     S
O471   Zn479   1.975   .     S
O472   Zn480   1.975   .     S
O473   Zn480   1.988   .     S
O474   Zn479   1.988   .     S
O475   Zn479   1.965   .     S
O476   Zn480   1.965   .     S
O477   Zn480   1.979   .     S
O478   Zn479   1.979   .     S
O481   C482    1.409   .     S
C482   H483    1.113   .     S
C482   H700    1.109   1_545 S
C482   C701    1.519   1_545 S
H484   C698    1.109   .     S
C485   H486    1.110   .     S
C485   H487    1.111   .     S
C485   H488    1.110   .     S
C485   C698    1.519   .     S
O489   C490    1.411   .     S
C490   H492    1.115   .     S
C490   H707    1.111   .     S
C490   C709    1.520   .     S
H491   C706    1.111   1_545 S
C493   H496    1.111   .     S
C493   H495    1.111   .     S
C493   C706    1.520   1_545 S
C493   H710    1.111   1_545 S
H494   C709    1.111   .     S
C505   C525    1.438   .     S
C505   O545    1.283   .     A
C505   O543    1.286   .     A
C506   C526    1.447   .     S
C506   O546    1.283   .     A
C506   O544    1.290   .     A
C507   C509    1.406   .     A
C507   H537    1.083   .     S
C507   C515    1.399   .     A
C508   H538    1.083   .     S
C508   C516    1.399   .     A
C508   C510    1.406   .     A
C509   N541    1.374   .     A
C509   I573    2.116   .     S
C510   N542    1.375   .     A
C510   I574    2.116   .     S
C511   C513    1.413   .     A
C511   H539    1.082   .     S
C511   N541    1.367   .     A
C512   N542    1.367   .     A
C512   H540    1.082   .     S
C512   C514    1.414   .     A
C513   C515    1.410   .     A
C513   I575    2.118   .     S
C514   C516    1.410   .     A
C514   I576    2.118   .     S
C516   C83     1.502   1_556 S
C517   C519    1.401   .     S
C517   O549    1.277   .     A
C517   O547    1.274   .     A
C518   O550    1.277   .     A
C518   O548    1.273   .     A
C518   C520    1.400   .     S
C520   C591    1.330   .     S
C520   H606    1.087   .     S
C521   C531    1.404   .     A
C521   O553    1.385   .     S
C521   C523    1.380   .     A
C522   C532    1.403   .     A
C522   O561    1.386   .     S
C522   C524    1.380   .     A
C523   H535    1.084   .     S
C523   C525    1.394   .     A
C524   C526    1.397   .     A
C524   H536    1.084   .     S
C525   C527    1.415   .     A
C526   C528    1.419   .     A
C527   I569    2.146   .     S
C527   C529    1.399   .     A
C528   I570    2.151   .     S
C528   C530    1.400   .     A
C529   C531    1.404   .     A
C529   I571    2.146   .     S
C530   C532    1.404   .     A
C530   I572    2.147   .     S
C531   C748    1.442   1_545 S
C532   C747    1.442   .     S
H533   C591    1.088   .     S
N541   Zn552   2.002   .     S
N542   Zn551   2.002   .     S
O543   Zn551   1.975   .     S
O544   Zn552   1.975   .     S
O545   Zn552   1.988   .     S
O546   Zn551   1.988   .     S
O547   Zn551   1.965   .     S
O548   Zn552   1.965   .     S
O549   Zn552   1.979   .     S
O550   Zn551   1.979   .     S
O553   C554    1.409   .     S
C554   H555    1.113   .     S
C554   H772    1.109   1_545 S
C554   C773    1.519   1_545 S
H556   C770    1.109   .     S
C557   H558    1.110   .     S
C557   H559    1.111   .     S
C557   H560    1.110   .     S
C557   C770    1.519   .     S
O561   C562    1.411   .     S
C562   H564    1.115   .     S
C562   H779    1.111   .     S
C562   C781    1.520   .     S
H563   C778    1.111   1_545 S
C565   H568    1.111   .     S
C565   H567    1.111   .     S
C565   C778    1.520   1_545 S
C565   H782    1.111   1_545 S
H566   C781    1.111   .     S
C577   C597    1.438   .     S
C577   O617    1.283   .     A
C577   O615    1.286   .     A
C578   C598    1.447   .     S
C578   O618    1.283   .     A
C578   O616    1.290   .     A
C579   C581    1.406   .     A
C579   H609    1.083   .     S
C579   C587    1.399   .     A
C580   H610    1.083   .     S
C580   C588    1.399   .     A
C580   C582    1.406   .     A
C581   N613    1.374   .     A
C581   I645    2.116   .     S
C582   N614    1.375   .     A
C582   I646    2.116   .     S
C583   C585    1.413   .     A
C583   H611    1.082   .     S
C583   N613    1.367   .     A
C584   N614    1.367   .     A
C584   H612    1.082   .     S
C584   C586    1.414   .     A
C585   C587    1.410   .     A
C585   I647    2.118   .     S
C586   C588    1.410   .     A
C586   I648    2.118   .     S
C588   C155    1.502   1_556 S
C589   C591    1.401   .     S
C589   O621    1.277   .     A
C589   O619    1.274   .     A
C590   O622    1.277   .     A
C590   O620    1.273   .     A
C590   C592    1.400   .     S
C592   C447    1.330   1_655 S
C592   H462    1.087   1_655 S
C593   C603    1.404   .     A
C593   O625    1.385   .     S
C593   C595    1.380   .     A
C594   C604    1.403   .     A
C594   O633    1.386   .     S
C594   C596    1.380   .     A
C595   H607    1.084   .     S
C595   C597    1.394   .     A
C596   C598    1.397   .     A
C596   H608    1.084   .     S
C597   C599    1.415   .     A
C598   C600    1.419   .     A
C599   I641    2.146   .     S
C599   C601    1.399   .     A
C600   I642    2.151   .     S
C600   C602    1.400   .     A
C601   C603    1.404   .     A
C601   I643    2.146   .     S
C602   C604    1.404   .     A
C602   I644    2.147   .     S
C603   C820    1.442   1_545 S
C604   C819    1.442   .     S
H605   C447    1.088   1_655 S
N613   Zn624   2.002   .     S
N614   Zn623   2.002   .     S
O615   Zn623   1.975   .     S
O616   Zn624   1.975   .     S
O617   Zn624   1.988   .     S
O618   Zn623   1.988   .     S
O619   Zn623   1.965   .     S
O620   Zn624   1.965   .     S
O621   Zn624   1.979   .     S
O622   Zn623   1.979   .     S
O625   C626    1.409   .     S
C626   H627    1.113   .     S
C626   H844    1.109   1_545 S
C626   C845    1.519   1_545 S
H628   C842    1.109   .     S
C629   H630    1.110   .     S
C629   H631    1.111   .     S
C629   H632    1.110   .     S
C629   C842    1.519   .     S
O633   C634    1.411   .     S
C634   H636    1.115   .     S
C634   H851    1.111   .     S
C634   C853    1.520   .     S
H635   C850    1.111   1_545 S
C637   H640    1.111   .     S
C637   H639    1.111   .     S
C637   C850    1.520   1_545 S
C637   H854    1.111   1_545 S
H638   C853    1.111   .     S
C649   C669    1.438   .     S
C649   O689    1.283   .     A
C649   O687    1.286   .     A
C650   C670    1.447   .     S
C650   O690    1.283   .     A
C650   O688    1.290   .     A
C651   C653    1.406   .     A
C651   H681    1.083   .     S
C651   C659    1.399   .     A
C652   H682    1.083   .     S
C652   C660    1.399   .     A
C652   C654    1.406   .     A
C653   N685    1.374   .     A
C653   I717    2.116   .     S
C654   N686    1.375   .     A
C654   I718    2.116   .     S
C655   C657    1.413   .     A
C655   H683    1.082   .     S
C655   N685    1.367   .     A
C656   N686    1.367   .     A
C656   H684    1.082   .     S
C656   C658    1.414   .     A
C657   C659    1.410   .     A
C657   I719    2.118   .     S
C658   C660    1.410   .     A
C658   I720    2.118   .     S
C660   C227    1.502   1_556 S
C661   C663    1.401   .     S
C661   O693    1.277   .     A
C661   O691    1.274   .     A
C662   O694    1.277   .     A
C662   O692    1.273   .     A
C662   C664    1.400   .     S
C663   C808    1.330   1_455 S
C663   H821    1.088   1_455 S
C664   C735    1.330   .     S
C664   H750    1.087   .     S
C665   C675    1.404   .     A
C665   O697    1.385   .     S
C665   C667    1.380   .     A
C666   C676    1.403   .     A
C666   O705    1.386   .     S
C666   C668    1.380   .     A
C667   H679    1.084   .     S
C667   C669    1.394   .     A
C668   C670    1.397   .     A
C668   H680    1.084   .     S
C669   C671    1.415   .     A
C670   C672    1.419   .     A
C671   I713    2.146   .     S
C671   C673    1.399   .     A
C672   I714    2.151   .     S
C672   C674    1.400   .     A
C673   C675    1.404   .     A
C673   I715    2.146   .     S
C674   C676    1.404   .     A
C674   I716    2.147   .     S
C676   C459    1.442   1_565 S
H677   C735    1.088   .     S
H678   C808    1.087   1_455 S
N685   Zn696   2.002   .     S
N686   Zn695   2.002   .     S
O687   Zn695   1.975   .     S
O688   Zn696   1.975   .     S
O689   Zn696   1.988   .     S
O690   Zn695   1.988   .     S
O691   Zn695   1.965   .     S
O692   Zn696   1.965   .     S
O693   Zn696   1.979   .     S
O694   Zn695   1.979   .     S
O697   C698    1.409   .     S
C698   H699    1.113   .     S
H700   C482    1.109   1_565 S
C701   H702    1.110   .     S
C701   H703    1.111   .     S
C701   H704    1.110   .     S
C701   C482    1.519   1_565 S
O705   C706    1.411   .     S
C706   H708    1.115   .     S
C706   H491    1.111   1_565 S
C706   C493    1.520   1_565 S
C709   H712    1.111   .     S
C709   H711    1.111   .     S
H710   C493    1.111   1_565 S
C721   C741    1.438   .     S
C721   O761    1.283   .     A
C721   O759    1.286   .     A
C722   C742    1.447   .     S
C722   O762    1.283   .     A
C722   O760    1.290   .     A
C723   C725    1.406   .     A
C723   H753    1.083   .     S
C723   C731    1.399   .     A
C724   H754    1.083   .     S
C724   C732    1.399   .     A
C724   C726    1.406   .     A
C725   N757    1.374   .     A
C725   I789    2.116   .     S
C726   N758    1.375   .     A
C726   I790    2.116   .     S
C727   C729    1.413   .     A
C727   H755    1.082   .     S
C727   N757    1.367   .     A
C728   N758    1.367   .     A
C728   H756    1.082   .     S
C728   C730    1.414   .     A
C729   C731    1.410   .     A
C729   I791    2.118   .     S
C730   C732    1.410   .     A
C730   I792    2.118   .     S
C732   C299    1.502   1_556 S
C733   C735    1.401   .     S
C733   O765    1.277   .     A
C733   O763    1.274   .     A
C734   O766    1.277   .     A
C734   O764    1.273   .     A
C734   C736    1.400   .     S
C736   C807    1.330   .     S
C736   H822    1.087   .     S
C737   C747    1.404   .     A
C737   O769    1.385   .     S
C737   C739    1.380   .     A
C738   C748    1.403   .     A
C738   O777    1.386   .     S
C738   C740    1.380   .     A
C739   H751    1.084   .     S
C739   C741    1.394   .     A
C740   C742    1.397   .     A
C740   H752    1.084   .     S
C741   C743    1.415   .     A
C742   C744    1.419   .     A
C743   I785    2.146   .     S
C743   C745    1.399   .     A
C744   I786    2.151   .     S
C744   C746    1.400   .     A
C745   C747    1.404   .     A
C745   I787    2.146   .     S
C746   C748    1.404   .     A
C746   I788    2.147   .     S
C748   C531    1.442   1_565 S
H749   C807    1.088   .     S
N757   Zn768   2.002   .     S
N758   Zn767   2.002   .     S
O759   Zn767   1.975   .     S
O760   Zn768   1.975   .     S
O761   Zn768   1.988   .     S
O762   Zn767   1.988   .     S
O763   Zn767   1.965   .     S
O764   Zn768   1.965   .     S
O765   Zn768   1.979   .     S
O766   Zn767   1.979   .     S
O769   C770    1.409   .     S
C770   H771    1.113   .     S
H772   C554    1.109   1_565 S
C773   H774    1.110   .     S
C773   H775    1.111   .     S
C773   H776    1.110   .     S
C773   C554    1.519   1_565 S
O777   C778    1.411   .     S
C778   H780    1.115   .     S
C778   H563    1.111   1_565 S
C778   C565    1.520   1_565 S
C781   H784    1.111   .     S
C781   H783    1.111   .     S
H782   C565    1.111   1_565 S
C793   C813    1.438   .     S
C793   O833    1.283   .     A
C793   O831    1.286   .     A
C794   C814    1.447   .     S
C794   O834    1.283   .     A
C794   O832    1.290   .     A
C795   C797    1.406   .     A
C795   H825    1.083   .     S
C795   C803    1.399   .     A
C796   H826    1.083   .     S
C796   C804    1.399   .     A
C796   C798    1.406   .     A
C797   N829    1.374   .     A
C797   I861    2.116   .     S
C798   N830    1.375   .     A
C798   I862    2.116   .     S
C799   C801    1.413   .     A
C799   H827    1.082   .     S
C799   N829    1.367   .     A
C800   N830    1.367   .     A
C800   H828    1.082   .     S
C800   C802    1.414   .     A
C801   C803    1.410   .     A
C801   I863    2.118   .     S
C802   C804    1.410   .     A
C802   I864    2.118   .     S
C804   C371    1.502   1_556 S
C805   C807    1.401   .     S
C805   O837    1.277   .     A
C805   O835    1.274   .     A
C806   O838    1.277   .     A
C806   O836    1.273   .     A
C806   C808    1.400   .     S
C808   C663    1.330   1_655 S
C808   H678    1.087   1_655 S
C809   C819    1.404   .     A
C809   O841    1.385   .     S
C809   C811    1.380   .     A
C810   C820    1.403   .     A
C810   O849    1.386   .     S
C810   C812    1.380   .     A
C811   H823    1.084   .     S
C811   C813    1.394   .     A
C812   C814    1.397   .     A
C812   H824    1.084   .     S
C813   C815    1.415   .     A
C814   C816    1.419   .     A
C815   I857    2.146   .     S
C815   C817    1.399   .     A
C816   I858    2.151   .     S
C816   C818    1.400   .     A
C817   C819    1.404   .     A
C817   I859    2.146   .     S
C818   C820    1.404   .     A
C818   I860    2.147   .     S
C820   C603    1.442   1_565 S
H821   C663    1.088   1_655 S
N829   Zn840   2.002   .     S
N830   Zn839   2.002   .     S
O831   Zn839   1.975   .     S
O832   Zn840   1.975   .     S
O833   Zn840   1.988   .     S
O834   Zn839   1.988   .     S
O835   Zn839   1.965   .     S
O836   Zn840   1.965   .     S
O837   Zn840   1.979   .     S
O838   Zn839   1.979   .     S
O841   C842    1.409   .     S
C842   H843    1.113   .     S
H844   C626    1.109   1_565 S
C845   H846    1.110   .     S
C845   H847    1.111   .     S
C845   H848    1.110   .     S
C845   C626    1.519   1_565 S
O849   C850    1.411   .     S
C850   H852    1.115   .     S
C850   H635    1.111   1_565 S
C850   C637    1.520   1_565 S
C853   H856    1.111   .     S
C853   H855    1.111   .     S
H854   C637    1.111   1_565 S
