data_str_m3_o2_o5_pcu_sym.68
_audit_creation_date              2020-01-03
_audit_creation_method            'Materials Studio'
_symmetry_space_group_name_H-M    'P1'
_symmetry_Int_Tables_number       1
_symmetry_cell_setting            triclinic
loop_
_symmetry_equiv_pos_as_xyz
  x,y,z
_cell_length_a                    29.7989
_cell_length_b                    28.2654
_cell_length_c                    26.7922
_cell_angle_alpha                 90.1902
_cell_angle_beta                  90.4105
_cell_angle_gamma                 90.0524
loop_
_atom_site_label
_atom_site_type_symbol
_atom_site_fract_x
_atom_site_fract_y
_atom_site_fract_z
_atom_site_U_iso_or_equiv
_atom_site_adp_type
_atom_site_occupancy
C1     C     0.16351   0.25005   0.16805   0.00000  Uiso   1.00
C2     C     0.23534   0.44748   0.12482   0.00000  Uiso   1.00
C3     C     0.24987   0.24995   0.07280   0.00000  Uiso   1.00
C4     C     0.24995   0.25005   0.26053   0.00000  Uiso   1.00
C5     C     0.25045   0.02660   0.16675   0.00000  Uiso   1.00
C6     C     0.25041   0.47335   0.16669   0.00000  Uiso   1.00
C7     C     0.24981   0.24992   0.02176   0.00000  Uiso   1.00
C8     C     0.24984   0.25006   0.31157   0.00000  Uiso   1.00
C9     C     0.04327   0.28753   0.16793   0.00000  Uiso   1.00
C10    C     0.45466   0.20868   0.19155   0.00000  Uiso   1.00
C11    C     0.45055   0.29282   0.21218   0.00000  Uiso   1.00
C12    C     0.33657   0.25004   0.16939   0.00000  Uiso   1.00
C13    C     0.05256   0.22062   0.22403   0.00000  Uiso   1.00
C14    C     0.08950   0.28983   0.16263   0.00000  Uiso   1.00
C15    C     0.40834   0.20725   0.18576   0.00000  Uiso   1.00
C16    C     0.40637   0.29342   0.19353   0.00000  Uiso   1.00
C17    C     0.09585   0.21418   0.20581   0.00000  Uiso   1.00
C18    C     0.11552   0.25061   0.17737   0.00000  Uiso   1.00
C19    C     0.38449   0.25024   0.18196   0.00000  Uiso   1.00
C20    C     0.02474   0.25452   0.20118   0.00000  Uiso   1.00
C21    C     0.47587   0.25133   0.20522   0.00000  Uiso   1.00
C22    C     0.00812   0.30204   0.09309   0.00000  Uiso   1.00
C23    C     0.26181   0.10204   0.12464   0.00000  Uiso   1.00
C24    C     0.02698   0.33689   0.05507   0.00000  Uiso   1.00
C25    C     0.00395   0.38498   0.05843   0.00000  Uiso   1.00
C26    C     0.48811   0.16390   0.13075   0.00000  Uiso   1.00
C27    C     0.47423   0.11469   0.11247   0.00000  Uiso   1.00
C28    C     0.48733   0.10686   0.05809   0.00000  Uiso   1.00
C29    C     0.45008   0.35932   0.26432   0.00000  Uiso   1.00
C30    C     0.45204   0.41227   0.25259   0.00000  Uiso   1.00
C31    C     0.42462   0.44164   0.28918   0.00000  Uiso   1.00
C32    C     0.04515   0.21249   0.30838   0.00000  Uiso   1.00
C33    C     0.09226   0.19972   0.32792   0.00000  Uiso   1.00
C34    C     0.26504   0.39789   0.20766   0.00000  Uiso   1.00
C35    C     0.10029   0.21751   0.04766   0.00000  Uiso   1.00
C36    C     0.11976   0.36306   0.17738   0.00000  Uiso   1.00
C37    C     0.08238   0.39958   0.18446   0.00000  Uiso   1.00
C38    C     0.09638   0.43749   0.22219   0.00000  Uiso   1.00
C39    C     0.37226   0.14495   0.22255   0.00000  Uiso   1.00
C40    C     0.40787   0.11355   0.24739   0.00000  Uiso   1.00
C41    C     0.38853   0.08683   0.29174   0.00000  Uiso   1.00
C42    C     0.39642   0.35590   0.14117   0.00000  Uiso   1.00
C43    C     0.36646   0.39869   0.13102   0.00000  Uiso   1.00
C44    C     0.38053   0.42501   0.08411   0.00000  Uiso   1.00
C45    C     0.23870   0.10222   0.20884   0.00000  Uiso   1.00
C46    C     0.11631   0.13874   0.18418   0.00000  Uiso   1.00
C47    C     0.08440   0.09995   0.20180   0.00000  Uiso   1.00
C48    C     0.08320   0.05871   0.16488   0.00000  Uiso   1.00
C49    C     0.23529   0.39777   0.12563   0.00000  Uiso   1.00
C50    C     0.26206   0.05231   0.12383   0.00000  Uiso   1.00
C51    C     0.26538   0.44762   0.20851   0.00000  Uiso   1.00
C52    C     0.23878   0.05250   0.20970   0.00000  Uiso   1.00
H53    H     0.27126   0.12124   0.09151   0.00000  Uiso   1.00
H54    H     0.02194   0.26614   0.08523   0.00000  Uiso   1.00
H55    H     0.06359   0.34149   0.06096   0.00000  Uiso   1.00
H56    H     0.02210   0.32215   0.01706   0.00000  Uiso   1.00
H57    H     0.46730   0.38074   0.05248   0.00000  Uiso   1.00
H58    H     0.01743   0.40884   0.02930   0.00000  Uiso   1.00
H59    H     0.00985   0.40142   0.09556   0.00000  Uiso   1.00
H60    H     0.02478   0.16802   0.12583   0.00000  Uiso   1.00
H61    H     0.47125   0.19101   0.10677   0.00000  Uiso   1.00
H62    H     0.49059   0.08735   0.13604   0.00000  Uiso   1.00
H63    H     0.43731   0.11053   0.11592   0.00000  Uiso   1.00
H64    H     0.27715   0.37861   0.23982   0.00000  Uiso   1.00
H65    H     0.46938   0.13232   0.03359   0.00000  Uiso   1.00
H66    H     0.47802   0.07039   0.04647   0.00000  Uiso   1.00
H67    H     0.02411   0.11138   0.05346   0.00000  Uiso   1.00
H68    H     0.46807   0.35294   0.29980   0.00000  Uiso   1.00
H69    H     0.41472   0.34828   0.27067   0.00000  Uiso   1.00
H70    H     0.48754   0.42437   0.25383   0.00000  Uiso   1.00
H71    H     0.43888   0.41859   0.21437   0.00000  Uiso   1.00
H72    H     0.38908   0.42974   0.28912   0.00000  Uiso   1.00
H73    H     0.42563   0.47938   0.27793   0.00000  Uiso   1.00
H74    H     0.43886   0.43869   0.32735   0.00000  Uiso   1.00
H75    H     0.22919   0.12154   0.24199   0.00000  Uiso   1.00
H76    H     0.01995   0.19853   0.00156   0.00000  Uiso   1.00
H77    H     0.04061   0.25164   0.30796   0.00000  Uiso   1.00
H78    H     0.09660   0.16067   0.32696   0.00000  Uiso   1.00
H79    H     0.11817   0.21620   0.30408   0.00000  Uiso   1.00
H80    H     0.09796   0.25669   0.04900   0.00000  Uiso   1.00
H81    H     0.13440   0.20701   0.06038   0.00000  Uiso   1.00
H82    H     0.07546   0.20190   0.07332   0.00000  Uiso   1.00
H83    H     0.15011   0.38204   0.16451   0.00000  Uiso   1.00
H84    H     0.12890   0.34697   0.21413   0.00000  Uiso   1.00
H85    H     0.07459   0.41667   0.14816   0.00000  Uiso   1.00
H86    H     0.22318   0.37839   0.09338   0.00000  Uiso   1.00
H87    H     0.05170   0.38203   0.19849   0.00000  Uiso   1.00
H88    H     0.10486   0.42108   0.25867   0.00000  Uiso   1.00
H89    H     0.06822   0.46254   0.22792   0.00000  Uiso   1.00
H90    H     0.12593   0.45742   0.20839   0.00000  Uiso   1.00
H91    H     0.34250   0.12272   0.21352   0.00000  Uiso   1.00
H92    H     0.36047   0.17260   0.24930   0.00000  Uiso   1.00
H93    H     0.42086   0.08764   0.21974   0.00000  Uiso   1.00
H94    H     0.43623   0.13573   0.26097   0.00000  Uiso   1.00
H95    H     0.37556   0.11211   0.32001   0.00000  Uiso   1.00
H96    H     0.41522   0.06505   0.30937   0.00000  Uiso   1.00
H97    H     0.27195   0.03417   0.09001   0.00000  Uiso   1.00
H98    H     0.36091   0.06306   0.27925   0.00000  Uiso   1.00
H99    H     0.39149   0.32992   0.11014   0.00000  Uiso   1.00
H100   H     0.43211   0.36749   0.14201   0.00000  Uiso   1.00
H101   H     0.33139   0.38637   0.12606   0.00000  Uiso   1.00
H102   H     0.36777   0.42341   0.16335   0.00000  Uiso   1.00
H103   H     0.41479   0.43987   0.08902   0.00000  Uiso   1.00
H104   H     0.35688   0.45460   0.07697   0.00000  Uiso   1.00
H105   H     0.37985   0.40075   0.05141   0.00000  Uiso   1.00
H106   H     0.15002   0.12284   0.17930   0.00000  Uiso   1.00
H107   H     0.10576   0.15159   0.14647   0.00000  Uiso   1.00
H108   H     0.27797   0.46574   0.24141   0.00000  Uiso   1.00
H109   H     0.09554   0.08683   0.23894   0.00000  Uiso   1.00
H110   H     0.05007   0.11454   0.20553   0.00000  Uiso   1.00
H111   H     0.07421   0.07138   0.12691   0.00000  Uiso   1.00
H112   H     0.05760   0.03260   0.17669   0.00000  Uiso   1.00
H113   H     0.11646   0.04104   0.16360   0.00000  Uiso   1.00
H114   H     0.22905   0.03451   0.24355   0.00000  Uiso   1.00
H115   H     0.22296   0.46549   0.09190   0.00000  Uiso   1.00
H116   H     0.47126   0.29894   0.08753   0.00000  Uiso   1.00
N117   N     0.25000   0.12624   0.16667   0.00000  Uiso   1.00
N118   N     0.25000   0.37377   0.16667   0.00000  Uiso   1.00
O119   O     0.18453   0.28974   0.16667   0.00000  Uiso   1.00
O120   O     0.47911   0.16802   0.18243   0.00000  Uiso   1.00
O121   O     0.47256   0.33432   0.22604   0.00000  Uiso   1.00
O122   O     0.03654   0.19130   0.26119   0.00000  Uiso   1.00
O123   O     0.10832   0.32911   0.14016   0.00000  Uiso   1.00
O124   O     0.38805   0.16388   0.17696   0.00000  Uiso   1.00
O125   O     0.38448   0.33624   0.18764   0.00000  Uiso   1.00
O126   O     0.12018   0.17491   0.22077   0.00000  Uiso   1.00
O127   O     0.31547   0.21026   0.16666   0.00000  Uiso   1.00
O128   O     0.31547   0.28974   0.16666   0.00000  Uiso   1.00
O129   O     0.18453   0.21026   0.16667   0.00000  Uiso   1.00
O130   O     0.25000   0.28973   0.09511   0.00000  Uiso   1.00
O131   O     0.25000   0.21027   0.23822   0.00000  Uiso   1.00
O132   O     0.25000   0.28973   0.23822   0.00000  Uiso   1.00
O133   O     0.25000   0.21027   0.09511   0.00000  Uiso   1.00
O134   O     0.01640   0.31904   0.14206   0.00000  Uiso   1.00
Zn135  Zn    0.25000   0.30307   0.16667   0.00000  Uiso   1.00
Zn136  Zn    0.25000   0.19693   0.16667   0.00000  Uiso   1.00
C137   C     0.66351   0.25005   0.16805   0.00000  Uiso   1.00
C138   C     0.73534   0.44748   0.12482   0.00000  Uiso   1.00
C139   C     0.74987   0.24995   0.07280   0.00000  Uiso   1.00
C140   C     0.74995   0.25005   0.26053   0.00000  Uiso   1.00
C141   C     0.75045   0.02660   0.16675   0.00000  Uiso   1.00
C142   C     0.75041   0.47335   0.16669   0.00000  Uiso   1.00
C143   C     0.74981   0.24992   0.02176   0.00000  Uiso   1.00
C144   C     0.74984   0.25006   0.31157   0.00000  Uiso   1.00
C145   C     0.54327   0.28753   0.16793   0.00000  Uiso   1.00
C146   C     0.95466   0.20868   0.19155   0.00000  Uiso   1.00
C147   C     0.95055   0.29282   0.21218   0.00000  Uiso   1.00
C148   C     0.83657   0.25004   0.16939   0.00000  Uiso   1.00
C149   C     0.55256   0.22062   0.22403   0.00000  Uiso   1.00
C150   C     0.58950   0.28983   0.16263   0.00000  Uiso   1.00
C151   C     0.90834   0.20725   0.18576   0.00000  Uiso   1.00
C152   C     0.90637   0.29342   0.19353   0.00000  Uiso   1.00
C153   C     0.59585   0.21418   0.20581   0.00000  Uiso   1.00
C154   C     0.61552   0.25061   0.17737   0.00000  Uiso   1.00
C155   C     0.88449   0.25024   0.18196   0.00000  Uiso   1.00
C156   C     0.52474   0.25452   0.20118   0.00000  Uiso   1.00
C157   C     0.97587   0.25133   0.20522   0.00000  Uiso   1.00
C158   C     0.50812   0.30204   0.09309   0.00000  Uiso   1.00
C159   C     0.76181   0.10204   0.12464   0.00000  Uiso   1.00
C160   C     0.52698   0.33689   0.05507   0.00000  Uiso   1.00
C161   C     0.50395   0.38498   0.05843   0.00000  Uiso   1.00
C162   C     0.98811   0.16390   0.13075   0.00000  Uiso   1.00
C163   C     0.97423   0.11469   0.11247   0.00000  Uiso   1.00
C164   C     0.98733   0.10686   0.05809   0.00000  Uiso   1.00
C165   C     0.95008   0.35932   0.26432   0.00000  Uiso   1.00
C166   C     0.95204   0.41227   0.25259   0.00000  Uiso   1.00
C167   C     0.92462   0.44164   0.28918   0.00000  Uiso   1.00
C168   C     0.54515   0.21249   0.30838   0.00000  Uiso   1.00
C169   C     0.59226   0.19972   0.32792   0.00000  Uiso   1.00
C170   C     0.76504   0.39789   0.20766   0.00000  Uiso   1.00
C171   C     0.60029   0.21751   0.04766   0.00000  Uiso   1.00
C172   C     0.61976   0.36306   0.17738   0.00000  Uiso   1.00
C173   C     0.58238   0.39958   0.18446   0.00000  Uiso   1.00
C174   C     0.59638   0.43749   0.22219   0.00000  Uiso   1.00
C175   C     0.87226   0.14495   0.22255   0.00000  Uiso   1.00
C176   C     0.90787   0.11355   0.24739   0.00000  Uiso   1.00
C177   C     0.88853   0.08683   0.29174   0.00000  Uiso   1.00
C178   C     0.89642   0.35590   0.14117   0.00000  Uiso   1.00
C179   C     0.86646   0.39869   0.13102   0.00000  Uiso   1.00
C180   C     0.88053   0.42501   0.08411   0.00000  Uiso   1.00
C181   C     0.73870   0.10222   0.20884   0.00000  Uiso   1.00
C182   C     0.61631   0.13874   0.18418   0.00000  Uiso   1.00
C183   C     0.58440   0.09995   0.20180   0.00000  Uiso   1.00
C184   C     0.58320   0.05871   0.16488   0.00000  Uiso   1.00
C185   C     0.73529   0.39777   0.12563   0.00000  Uiso   1.00
C186   C     0.76206   0.05231   0.12383   0.00000  Uiso   1.00
C187   C     0.76538   0.44762   0.20851   0.00000  Uiso   1.00
C188   C     0.73878   0.05250   0.20970   0.00000  Uiso   1.00
H189   H     0.77126   0.12124   0.09151   0.00000  Uiso   1.00
H190   H     0.52194   0.26614   0.08523   0.00000  Uiso   1.00
H191   H     0.56359   0.34149   0.06096   0.00000  Uiso   1.00
H192   H     0.52210   0.32215   0.01706   0.00000  Uiso   1.00
H193   H     0.96730   0.38074   0.05248   0.00000  Uiso   1.00
H194   H     0.51743   0.40884   0.02930   0.00000  Uiso   1.00
H195   H     0.50985   0.40142   0.09556   0.00000  Uiso   1.00
H196   H     0.52478   0.16802   0.12583   0.00000  Uiso   1.00
H197   H     0.97125   0.19101   0.10677   0.00000  Uiso   1.00
H198   H     0.99059   0.08735   0.13604   0.00000  Uiso   1.00
H199   H     0.93731   0.11053   0.11592   0.00000  Uiso   1.00
H200   H     0.77715   0.37861   0.23982   0.00000  Uiso   1.00
H201   H     0.96938   0.13232   0.03359   0.00000  Uiso   1.00
H202   H     0.97802   0.07039   0.04647   0.00000  Uiso   1.00
H203   H     0.52411   0.11138   0.05346   0.00000  Uiso   1.00
H204   H     0.96807   0.35294   0.29980   0.00000  Uiso   1.00
H205   H     0.91472   0.34828   0.27067   0.00000  Uiso   1.00
H206   H     0.98754   0.42437   0.25383   0.00000  Uiso   1.00
H207   H     0.93888   0.41859   0.21437   0.00000  Uiso   1.00
H208   H     0.88908   0.42974   0.28912   0.00000  Uiso   1.00
H209   H     0.92563   0.47938   0.27793   0.00000  Uiso   1.00
H210   H     0.93886   0.43869   0.32735   0.00000  Uiso   1.00
H211   H     0.72919   0.12154   0.24199   0.00000  Uiso   1.00
H212   H     0.51995   0.19853   0.00156   0.00000  Uiso   1.00
H213   H     0.54061   0.25164   0.30796   0.00000  Uiso   1.00
H214   H     0.59660   0.16067   0.32696   0.00000  Uiso   1.00
H215   H     0.61817   0.21620   0.30408   0.00000  Uiso   1.00
H216   H     0.59796   0.25669   0.04900   0.00000  Uiso   1.00
H217   H     0.63440   0.20701   0.06038   0.00000  Uiso   1.00
H218   H     0.57546   0.20190   0.07332   0.00000  Uiso   1.00
H219   H     0.65011   0.38204   0.16451   0.00000  Uiso   1.00
H220   H     0.62890   0.34697   0.21413   0.00000  Uiso   1.00
H221   H     0.57459   0.41667   0.14816   0.00000  Uiso   1.00
H222   H     0.72318   0.37839   0.09338   0.00000  Uiso   1.00
H223   H     0.55170   0.38203   0.19849   0.00000  Uiso   1.00
H224   H     0.60486   0.42108   0.25867   0.00000  Uiso   1.00
H225   H     0.56822   0.46254   0.22792   0.00000  Uiso   1.00
H226   H     0.62593   0.45742   0.20839   0.00000  Uiso   1.00
H227   H     0.84250   0.12272   0.21352   0.00000  Uiso   1.00
H228   H     0.86047   0.17260   0.24930   0.00000  Uiso   1.00
H229   H     0.92086   0.08764   0.21974   0.00000  Uiso   1.00
H230   H     0.93623   0.13573   0.26097   0.00000  Uiso   1.00
H231   H     0.87556   0.11211   0.32001   0.00000  Uiso   1.00
H232   H     0.91522   0.06505   0.30937   0.00000  Uiso   1.00
H233   H     0.77195   0.03417   0.09001   0.00000  Uiso   1.00
H234   H     0.86091   0.06306   0.27925   0.00000  Uiso   1.00
H235   H     0.89149   0.32992   0.11014   0.00000  Uiso   1.00
H236   H     0.93211   0.36749   0.14201   0.00000  Uiso   1.00
H237   H     0.83139   0.38637   0.12606   0.00000  Uiso   1.00
H238   H     0.86777   0.42341   0.16335   0.00000  Uiso   1.00
H239   H     0.91479   0.43987   0.08902   0.00000  Uiso   1.00
H240   H     0.85688   0.45460   0.07697   0.00000  Uiso   1.00
H241   H     0.87985   0.40075   0.05141   0.00000  Uiso   1.00
H242   H     0.65002   0.12284   0.17930   0.00000  Uiso   1.00
H243   H     0.60576   0.15159   0.14647   0.00000  Uiso   1.00
H244   H     0.77797   0.46574   0.24141   0.00000  Uiso   1.00
H245   H     0.59554   0.08683   0.23894   0.00000  Uiso   1.00
H246   H     0.55007   0.11454   0.20553   0.00000  Uiso   1.00
H247   H     0.57421   0.07138   0.12691   0.00000  Uiso   1.00
H248   H     0.55760   0.03260   0.17669   0.00000  Uiso   1.00
H249   H     0.61646   0.04104   0.16360   0.00000  Uiso   1.00
H250   H     0.72905   0.03451   0.24355   0.00000  Uiso   1.00
H251   H     0.72296   0.46549   0.09190   0.00000  Uiso   1.00
H252   H     0.97126   0.29894   0.08753   0.00000  Uiso   1.00
N253   N     0.75000   0.12624   0.16667   0.00000  Uiso   1.00
N254   N     0.75000   0.37377   0.16667   0.00000  Uiso   1.00
O255   O     0.68453   0.28974   0.16667   0.00000  Uiso   1.00
O256   O     0.97911   0.16802   0.18243   0.00000  Uiso   1.00
O257   O     0.97256   0.33432   0.22604   0.00000  Uiso   1.00
O258   O     0.53654   0.19130   0.26119   0.00000  Uiso   1.00
O259   O     0.60832   0.32911   0.14016   0.00000  Uiso   1.00
O260   O     0.88805   0.16388   0.17696   0.00000  Uiso   1.00
O261   O     0.88448   0.33624   0.18764   0.00000  Uiso   1.00
O262   O     0.62018   0.17491   0.22077   0.00000  Uiso   1.00
O263   O     0.81547   0.21026   0.16666   0.00000  Uiso   1.00
O264   O     0.81547   0.28974   0.16666   0.00000  Uiso   1.00
O265   O     0.68453   0.21026   0.16667   0.00000  Uiso   1.00
O266   O     0.75000   0.28973   0.09511   0.00000  Uiso   1.00
O267   O     0.75000   0.21027   0.23822   0.00000  Uiso   1.00
O268   O     0.75000   0.28973   0.23822   0.00000  Uiso   1.00
O269   O     0.75000   0.21027   0.09511   0.00000  Uiso   1.00
O270   O     0.51640   0.31904   0.14206   0.00000  Uiso   1.00
Zn271  Zn    0.75000   0.30307   0.16667   0.00000  Uiso   1.00
Zn272  Zn    0.75000   0.19693   0.16667   0.00000  Uiso   1.00
C273   C     0.16351   0.75005   0.16805   0.00000  Uiso   1.00
C274   C     0.23534   0.94748   0.12482   0.00000  Uiso   1.00
C275   C     0.24987   0.74995   0.07280   0.00000  Uiso   1.00
C276   C     0.24995   0.75005   0.26053   0.00000  Uiso   1.00
C277   C     0.25045   0.52660   0.16675   0.00000  Uiso   1.00
C278   C     0.25041   0.97335   0.16669   0.00000  Uiso   1.00
C279   C     0.24981   0.74992   0.02176   0.00000  Uiso   1.00
C280   C     0.24984   0.75006   0.31157   0.00000  Uiso   1.00
C281   C     0.04327   0.78753   0.16793   0.00000  Uiso   1.00
C282   C     0.45466   0.70868   0.19155   0.00000  Uiso   1.00
C283   C     0.45055   0.79282   0.21218   0.00000  Uiso   1.00
C284   C     0.33657   0.75004   0.16939   0.00000  Uiso   1.00
C285   C     0.05256   0.72062   0.22403   0.00000  Uiso   1.00
C286   C     0.08950   0.78983   0.16263   0.00000  Uiso   1.00
C287   C     0.40834   0.70725   0.18576   0.00000  Uiso   1.00
C288   C     0.40637   0.79342   0.19353   0.00000  Uiso   1.00
C289   C     0.09585   0.71418   0.20581   0.00000  Uiso   1.00
C290   C     0.11552   0.75061   0.17737   0.00000  Uiso   1.00
C291   C     0.38449   0.75024   0.18196   0.00000  Uiso   1.00
C292   C     0.02474   0.75452   0.20118   0.00000  Uiso   1.00
C293   C     0.47587   0.75133   0.20522   0.00000  Uiso   1.00
C294   C     0.00812   0.80204   0.09309   0.00000  Uiso   1.00
C295   C     0.26181   0.60204   0.12464   0.00000  Uiso   1.00
C296   C     0.02698   0.83689   0.05507   0.00000  Uiso   1.00
C297   C     0.00395   0.88498   0.05843   0.00000  Uiso   1.00
C298   C     0.48811   0.66390   0.13075   0.00000  Uiso   1.00
C299   C     0.47423   0.61469   0.11247   0.00000  Uiso   1.00
C300   C     0.48733   0.60686   0.05809   0.00000  Uiso   1.00
C301   C     0.45008   0.85932   0.26432   0.00000  Uiso   1.00
C302   C     0.45204   0.91227   0.25259   0.00000  Uiso   1.00
C303   C     0.42462   0.94164   0.28918   0.00000  Uiso   1.00
C304   C     0.04515   0.71249   0.30838   0.00000  Uiso   1.00
C305   C     0.09226   0.69972   0.32792   0.00000  Uiso   1.00
C306   C     0.26504   0.89789   0.20766   0.00000  Uiso   1.00
C307   C     0.10029   0.71751   0.04766   0.00000  Uiso   1.00
C308   C     0.11976   0.86306   0.17738   0.00000  Uiso   1.00
C309   C     0.08238   0.89958   0.18446   0.00000  Uiso   1.00
C310   C     0.09638   0.93749   0.22219   0.00000  Uiso   1.00
C311   C     0.37226   0.64495   0.22255   0.00000  Uiso   1.00
C312   C     0.40787   0.61355   0.24739   0.00000  Uiso   1.00
C313   C     0.38853   0.58683   0.29174   0.00000  Uiso   1.00
C314   C     0.39642   0.85590   0.14117   0.00000  Uiso   1.00
C315   C     0.36646   0.89869   0.13102   0.00000  Uiso   1.00
C316   C     0.38053   0.92501   0.08411   0.00000  Uiso   1.00
C317   C     0.23870   0.60222   0.20884   0.00000  Uiso   1.00
C318   C     0.11631   0.63874   0.18418   0.00000  Uiso   1.00
C319   C     0.08440   0.59995   0.20180   0.00000  Uiso   1.00
C320   C     0.08320   0.55871   0.16488   0.00000  Uiso   1.00
C321   C     0.23529   0.89777   0.12563   0.00000  Uiso   1.00
C322   C     0.26206   0.55231   0.12383   0.00000  Uiso   1.00
C323   C     0.26538   0.94762   0.20851   0.00000  Uiso   1.00
C324   C     0.23878   0.55250   0.20970   0.00000  Uiso   1.00
H325   H     0.27126   0.62124   0.09151   0.00000  Uiso   1.00
H326   H     0.02194   0.76614   0.08523   0.00000  Uiso   1.00
H327   H     0.06359   0.84149   0.06096   0.00000  Uiso   1.00
H328   H     0.02210   0.82215   0.01706   0.00000  Uiso   1.00
H329   H     0.46730   0.88074   0.05248   0.00000  Uiso   1.00
H330   H     0.01743   0.90884   0.02930   0.00000  Uiso   1.00
H331   H     0.00985   0.90142   0.09556   0.00000  Uiso   1.00
H332   H     0.02478   0.66802   0.12583   0.00000  Uiso   1.00
H333   H     0.47125   0.69101   0.10677   0.00000  Uiso   1.00
H334   H     0.49059   0.58735   0.13604   0.00000  Uiso   1.00
H335   H     0.43731   0.61053   0.11592   0.00000  Uiso   1.00
H336   H     0.27715   0.87861   0.23982   0.00000  Uiso   1.00
H337   H     0.46938   0.63232   0.03359   0.00000  Uiso   1.00
H338   H     0.47802   0.57039   0.04647   0.00000  Uiso   1.00
H339   H     0.02411   0.61138   0.05346   0.00000  Uiso   1.00
H340   H     0.46807   0.85294   0.29980   0.00000  Uiso   1.00
H341   H     0.41472   0.84828   0.27067   0.00000  Uiso   1.00
H342   H     0.48754   0.92437   0.25383   0.00000  Uiso   1.00
H343   H     0.43888   0.91859   0.21437   0.00000  Uiso   1.00
H344   H     0.38908   0.92974   0.28912   0.00000  Uiso   1.00
H345   H     0.42563   0.97938   0.27793   0.00000  Uiso   1.00
H346   H     0.43886   0.93869   0.32735   0.00000  Uiso   1.00
H347   H     0.22919   0.62154   0.24199   0.00000  Uiso   1.00
H348   H     0.01995   0.69853   0.00156   0.00000  Uiso   1.00
H349   H     0.04061   0.75164   0.30796   0.00000  Uiso   1.00
H350   H     0.09660   0.66067   0.32696   0.00000  Uiso   1.00
H351   H     0.11817   0.71620   0.30408   0.00000  Uiso   1.00
H352   H     0.09796   0.75669   0.04900   0.00000  Uiso   1.00
H353   H     0.13440   0.70701   0.06038   0.00000  Uiso   1.00
H354   H     0.07546   0.70190   0.07332   0.00000  Uiso   1.00
H355   H     0.15011   0.88204   0.16451   0.00000  Uiso   1.00
H356   H     0.12890   0.84697   0.21413   0.00000  Uiso   1.00
H357   H     0.07459   0.91667   0.14816   0.00000  Uiso   1.00
H358   H     0.22318   0.87839   0.09338   0.00000  Uiso   1.00
H359   H     0.05170   0.88203   0.19849   0.00000  Uiso   1.00
H360   H     0.10486   0.92108   0.25867   0.00000  Uiso   1.00
H361   H     0.06822   0.96254   0.22792   0.00000  Uiso   1.00
H362   H     0.12593   0.95742   0.20839   0.00000  Uiso   1.00
H363   H     0.34250   0.62272   0.21352   0.00000  Uiso   1.00
H364   H     0.36047   0.67260   0.24930   0.00000  Uiso   1.00
H365   H     0.42086   0.58764   0.21974   0.00000  Uiso   1.00
H366   H     0.43623   0.63573   0.26097   0.00000  Uiso   1.00
H367   H     0.37556   0.61211   0.32001   0.00000  Uiso   1.00
H368   H     0.41522   0.56505   0.30937   0.00000  Uiso   1.00
H369   H     0.27195   0.53417   0.09001   0.00000  Uiso   1.00
H370   H     0.36091   0.56306   0.27925   0.00000  Uiso   1.00
H371   H     0.39149   0.82992   0.11014   0.00000  Uiso   1.00
H372   H     0.43211   0.86749   0.14201   0.00000  Uiso   1.00
H373   H     0.33139   0.88637   0.12606   0.00000  Uiso   1.00
H374   H     0.36777   0.92341   0.16335   0.00000  Uiso   1.00
H375   H     0.41479   0.93987   0.08902   0.00000  Uiso   1.00
H376   H     0.35688   0.95460   0.07697   0.00000  Uiso   1.00
H377   H     0.37985   0.90075   0.05141   0.00000  Uiso   1.00
H378   H     0.15002   0.62284   0.17930   0.00000  Uiso   1.00
H379   H     0.10576   0.65159   0.14647   0.00000  Uiso   1.00
H380   H     0.27797   0.96574   0.24141   0.00000  Uiso   1.00
H381   H     0.09554   0.58683   0.23894   0.00000  Uiso   1.00
H382   H     0.05007   0.61454   0.20553   0.00000  Uiso   1.00
H383   H     0.07421   0.57138   0.12691   0.00000  Uiso   1.00
H384   H     0.05760   0.53260   0.17669   0.00000  Uiso   1.00
H385   H     0.11646   0.54104   0.16360   0.00000  Uiso   1.00
H386   H     0.22905   0.53451   0.24355   0.00000  Uiso   1.00
H387   H     0.22296   0.96549   0.09190   0.00000  Uiso   1.00
H388   H     0.47126   0.79894   0.08753   0.00000  Uiso   1.00
N389   N     0.25000   0.62624   0.16667   0.00000  Uiso   1.00
N390   N     0.25000   0.87377   0.16667   0.00000  Uiso   1.00
O391   O     0.18453   0.78974   0.16667   0.00000  Uiso   1.00
O392   O     0.47911   0.66802   0.18243   0.00000  Uiso   1.00
O393   O     0.47256   0.83432   0.22604   0.00000  Uiso   1.00
O394   O     0.03654   0.69130   0.26119   0.00000  Uiso   1.00
O395   O     0.10832   0.82911   0.14016   0.00000  Uiso   1.00
O396   O     0.38805   0.66388   0.17696   0.00000  Uiso   1.00
O397   O     0.38448   0.83624   0.18764   0.00000  Uiso   1.00
O398   O     0.12018   0.67491   0.22077   0.00000  Uiso   1.00
O399   O     0.31547   0.71026   0.16666   0.00000  Uiso   1.00
O400   O     0.31547   0.78974   0.16666   0.00000  Uiso   1.00
O401   O     0.18453   0.71026   0.16667   0.00000  Uiso   1.00
O402   O     0.25000   0.78973   0.09511   0.00000  Uiso   1.00
O403   O     0.25000   0.71027   0.23822   0.00000  Uiso   1.00
O404   O     0.25000   0.78973   0.23822   0.00000  Uiso   1.00
O405   O     0.25000   0.71027   0.09511   0.00000  Uiso   1.00
O406   O     0.01640   0.81904   0.14206   0.00000  Uiso   1.00
Zn407  Zn    0.25000   0.80307   0.16667   0.00000  Uiso   1.00
Zn408  Zn    0.25000   0.69693   0.16667   0.00000  Uiso   1.00
C409   C     0.66351   0.75005   0.16805   0.00000  Uiso   1.00
C410   C     0.73534   0.94748   0.12482   0.00000  Uiso   1.00
C411   C     0.74987   0.74995   0.07280   0.00000  Uiso   1.00
C412   C     0.74995   0.75005   0.26053   0.00000  Uiso   1.00
C413   C     0.75045   0.52660   0.16675   0.00000  Uiso   1.00
C414   C     0.75041   0.97335   0.16669   0.00000  Uiso   1.00
C415   C     0.74981   0.74992   0.02176   0.00000  Uiso   1.00
C416   C     0.74984   0.75006   0.31157   0.00000  Uiso   1.00
C417   C     0.54327   0.78753   0.16793   0.00000  Uiso   1.00
C418   C     0.95466   0.70868   0.19155   0.00000  Uiso   1.00
C419   C     0.95055   0.79282   0.21218   0.00000  Uiso   1.00
C420   C     0.83657   0.75004   0.16939   0.00000  Uiso   1.00
C421   C     0.55256   0.72062   0.22403   0.00000  Uiso   1.00
C422   C     0.58950   0.78983   0.16263   0.00000  Uiso   1.00
C423   C     0.90834   0.70725   0.18576   0.00000  Uiso   1.00
C424   C     0.90637   0.79342   0.19353   0.00000  Uiso   1.00
C425   C     0.59585   0.71418   0.20581   0.00000  Uiso   1.00
C426   C     0.61552   0.75061   0.17737   0.00000  Uiso   1.00
C427   C     0.88449   0.75024   0.18196   0.00000  Uiso   1.00
C428   C     0.52474   0.75452   0.20118   0.00000  Uiso   1.00
C429   C     0.97587   0.75133   0.20522   0.00000  Uiso   1.00
C430   C     0.50812   0.80204   0.09309   0.00000  Uiso   1.00
C431   C     0.76181   0.60204   0.12464   0.00000  Uiso   1.00
C432   C     0.52698   0.83689   0.05507   0.00000  Uiso   1.00
C433   C     0.50395   0.88498   0.05843   0.00000  Uiso   1.00
C434   C     0.98811   0.66390   0.13075   0.00000  Uiso   1.00
C435   C     0.97423   0.61469   0.11247   0.00000  Uiso   1.00
C436   C     0.98733   0.60686   0.05809   0.00000  Uiso   1.00
C437   C     0.95008   0.85932   0.26432   0.00000  Uiso   1.00
C438   C     0.95204   0.91227   0.25259   0.00000  Uiso   1.00
C439   C     0.92462   0.94164   0.28918   0.00000  Uiso   1.00
C440   C     0.54515   0.71249   0.30838   0.00000  Uiso   1.00
C441   C     0.59226   0.69972   0.32792   0.00000  Uiso   1.00
C442   C     0.76504   0.89789   0.20766   0.00000  Uiso   1.00
C443   C     0.60029   0.71751   0.04766   0.00000  Uiso   1.00
C444   C     0.61976   0.86306   0.17738   0.00000  Uiso   1.00
C445   C     0.58238   0.89958   0.18446   0.00000  Uiso   1.00
C446   C     0.59638   0.93749   0.22219   0.00000  Uiso   1.00
C447   C     0.87226   0.64495   0.22255   0.00000  Uiso   1.00
C448   C     0.90787   0.61355   0.24739   0.00000  Uiso   1.00
C449   C     0.88853   0.58683   0.29174   0.00000  Uiso   1.00
C450   C     0.89642   0.85590   0.14117   0.00000  Uiso   1.00
C451   C     0.86646   0.89869   0.13102   0.00000  Uiso   1.00
C452   C     0.88053   0.92501   0.08411   0.00000  Uiso   1.00
C453   C     0.73870   0.60222   0.20884   0.00000  Uiso   1.00
C454   C     0.61631   0.63874   0.18418   0.00000  Uiso   1.00
C455   C     0.58440   0.59995   0.20180   0.00000  Uiso   1.00
C456   C     0.58320   0.55871   0.16488   0.00000  Uiso   1.00
C457   C     0.73529   0.89777   0.12563   0.00000  Uiso   1.00
C458   C     0.76206   0.55231   0.12383   0.00000  Uiso   1.00
C459   C     0.76538   0.94762   0.20851   0.00000  Uiso   1.00
C460   C     0.73878   0.55250   0.20970   0.00000  Uiso   1.00
H461   H     0.77126   0.62124   0.09151   0.00000  Uiso   1.00
H462   H     0.52194   0.76614   0.08523   0.00000  Uiso   1.00
H463   H     0.56359   0.84149   0.06096   0.00000  Uiso   1.00
H464   H     0.52210   0.82215   0.01706   0.00000  Uiso   1.00
H465   H     0.96730   0.88074   0.05248   0.00000  Uiso   1.00
H466   H     0.51743   0.90884   0.02930   0.00000  Uiso   1.00
H467   H     0.50985   0.90142   0.09556   0.00000  Uiso   1.00
H468   H     0.52478   0.66802   0.12583   0.00000  Uiso   1.00
H469   H     0.97125   0.69101   0.10677   0.00000  Uiso   1.00
H470   H     0.99059   0.58735   0.13604   0.00000  Uiso   1.00
H471   H     0.93731   0.61053   0.11592   0.00000  Uiso   1.00
H472   H     0.77715   0.87861   0.23982   0.00000  Uiso   1.00
H473   H     0.96938   0.63232   0.03359   0.00000  Uiso   1.00
H474   H     0.97802   0.57039   0.04647   0.00000  Uiso   1.00
H475   H     0.52411   0.61138   0.05346   0.00000  Uiso   1.00
H476   H     0.96807   0.85294   0.29980   0.00000  Uiso   1.00
H477   H     0.91472   0.84828   0.27067   0.00000  Uiso   1.00
H478   H     0.98754   0.92437   0.25383   0.00000  Uiso   1.00
H479   H     0.93888   0.91859   0.21437   0.00000  Uiso   1.00
H480   H     0.88908   0.92974   0.28912   0.00000  Uiso   1.00
H481   H     0.92563   0.97938   0.27793   0.00000  Uiso   1.00
H482   H     0.93886   0.93869   0.32735   0.00000  Uiso   1.00
H483   H     0.72919   0.62154   0.24199   0.00000  Uiso   1.00
H484   H     0.51995   0.69853   0.00156   0.00000  Uiso   1.00
H485   H     0.54061   0.75164   0.30796   0.00000  Uiso   1.00
H486   H     0.59660   0.66067   0.32696   0.00000  Uiso   1.00
H487   H     0.61817   0.71620   0.30408   0.00000  Uiso   1.00
H488   H     0.59796   0.75669   0.04900   0.00000  Uiso   1.00
H489   H     0.63440   0.70701   0.06038   0.00000  Uiso   1.00
H490   H     0.57546   0.70190   0.07332   0.00000  Uiso   1.00
H491   H     0.65011   0.88204   0.16451   0.00000  Uiso   1.00
H492   H     0.62890   0.84697   0.21413   0.00000  Uiso   1.00
H493   H     0.57459   0.91667   0.14816   0.00000  Uiso   1.00
H494   H     0.72318   0.87839   0.09338   0.00000  Uiso   1.00
H495   H     0.55170   0.88203   0.19849   0.00000  Uiso   1.00
H496   H     0.60486   0.92108   0.25867   0.00000  Uiso   1.00
H497   H     0.56822   0.96254   0.22792   0.00000  Uiso   1.00
H498   H     0.62593   0.95742   0.20839   0.00000  Uiso   1.00
H499   H     0.84250   0.62272   0.21352   0.00000  Uiso   1.00
H500   H     0.86047   0.67260   0.24930   0.00000  Uiso   1.00
H501   H     0.92086   0.58764   0.21974   0.00000  Uiso   1.00
H502   H     0.93623   0.63573   0.26097   0.00000  Uiso   1.00
H503   H     0.87556   0.61211   0.32001   0.00000  Uiso   1.00
H504   H     0.91522   0.56505   0.30937   0.00000  Uiso   1.00
H505   H     0.77195   0.53417   0.09001   0.00000  Uiso   1.00
H506   H     0.86091   0.56306   0.27925   0.00000  Uiso   1.00
H507   H     0.89149   0.82992   0.11014   0.00000  Uiso   1.00
H508   H     0.93211   0.86749   0.14201   0.00000  Uiso   1.00
H509   H     0.83139   0.88637   0.12606   0.00000  Uiso   1.00
H510   H     0.86777   0.92341   0.16335   0.00000  Uiso   1.00
H511   H     0.91479   0.93987   0.08902   0.00000  Uiso   1.00
H512   H     0.85688   0.95460   0.07697   0.00000  Uiso   1.00
H513   H     0.87985   0.90075   0.05141   0.00000  Uiso   1.00
H514   H     0.65002   0.62284   0.17930   0.00000  Uiso   1.00
H515   H     0.60576   0.65159   0.14647   0.00000  Uiso   1.00
H516   H     0.77797   0.96574   0.24141   0.00000  Uiso   1.00
H517   H     0.59554   0.58683   0.23894   0.00000  Uiso   1.00
H518   H     0.55007   0.61454   0.20553   0.00000  Uiso   1.00
H519   H     0.57421   0.57138   0.12691   0.00000  Uiso   1.00
H520   H     0.55760   0.53260   0.17669   0.00000  Uiso   1.00
H521   H     0.61646   0.54104   0.16360   0.00000  Uiso   1.00
H522   H     0.72905   0.53451   0.24355   0.00000  Uiso   1.00
H523   H     0.72296   0.96549   0.09190   0.00000  Uiso   1.00
H524   H     0.97126   0.79894   0.08753   0.00000  Uiso   1.00
N525   N     0.75000   0.62624   0.16667   0.00000  Uiso   1.00
N526   N     0.75000   0.87377   0.16667   0.00000  Uiso   1.00
O527   O     0.68453   0.78974   0.16667   0.00000  Uiso   1.00
O528   O     0.97911   0.66802   0.18243   0.00000  Uiso   1.00
O529   O     0.97256   0.83432   0.22604   0.00000  Uiso   1.00
O530   O     0.53654   0.69130   0.26119   0.00000  Uiso   1.00
O531   O     0.60832   0.82911   0.14016   0.00000  Uiso   1.00
O532   O     0.88805   0.66388   0.17696   0.00000  Uiso   1.00
O533   O     0.88448   0.83624   0.18764   0.00000  Uiso   1.00
O534   O     0.62018   0.67491   0.22077   0.00000  Uiso   1.00
O535   O     0.81547   0.71026   0.16666   0.00000  Uiso   1.00
O536   O     0.81547   0.78974   0.16666   0.00000  Uiso   1.00
O537   O     0.68453   0.71026   0.16667   0.00000  Uiso   1.00
O538   O     0.75000   0.78973   0.09511   0.00000  Uiso   1.00
O539   O     0.75000   0.71027   0.23822   0.00000  Uiso   1.00
O540   O     0.75000   0.78973   0.23822   0.00000  Uiso   1.00
O541   O     0.75000   0.71027   0.09511   0.00000  Uiso   1.00
O542   O     0.51640   0.81904   0.14206   0.00000  Uiso   1.00
Zn543  Zn    0.75000   0.80307   0.16667   0.00000  Uiso   1.00
Zn544  Zn    0.75000   0.69693   0.16667   0.00000  Uiso   1.00
C545   C     0.16351   0.25005   0.50138   0.00000  Uiso   1.00
C546   C     0.23534   0.44748   0.45816   0.00000  Uiso   1.00
C547   C     0.24987   0.24995   0.40613   0.00000  Uiso   1.00
C548   C     0.24995   0.25005   0.59387   0.00000  Uiso   1.00
C549   C     0.25045   0.02660   0.50008   0.00000  Uiso   1.00
C550   C     0.25041   0.47335   0.50003   0.00000  Uiso   1.00
C551   C     0.24981   0.24992   0.35509   0.00000  Uiso   1.00
C552   C     0.24984   0.25006   0.64490   0.00000  Uiso   1.00
C553   C     0.04327   0.28753   0.50127   0.00000  Uiso   1.00
C554   C     0.45466   0.20868   0.52488   0.00000  Uiso   1.00
C555   C     0.45055   0.29282   0.54551   0.00000  Uiso   1.00
C556   C     0.33657   0.25004   0.50272   0.00000  Uiso   1.00
C557   C     0.05256   0.22062   0.55737   0.00000  Uiso   1.00
C558   C     0.08950   0.28983   0.49596   0.00000  Uiso   1.00
C559   C     0.40834   0.20725   0.51909   0.00000  Uiso   1.00
C560   C     0.40637   0.29342   0.52686   0.00000  Uiso   1.00
C561   C     0.09585   0.21418   0.53914   0.00000  Uiso   1.00
C562   C     0.11552   0.25061   0.51071   0.00000  Uiso   1.00
C563   C     0.38449   0.25024   0.51529   0.00000  Uiso   1.00
C564   C     0.02474   0.25452   0.53452   0.00000  Uiso   1.00
C565   C     0.47587   0.25133   0.53856   0.00000  Uiso   1.00
C566   C     0.00812   0.30204   0.42642   0.00000  Uiso   1.00
C567   C     0.26181   0.10204   0.45798   0.00000  Uiso   1.00
C568   C     0.02698   0.33689   0.38840   0.00000  Uiso   1.00
C569   C     0.00395   0.38498   0.39177   0.00000  Uiso   1.00
C570   C     0.48811   0.16390   0.46409   0.00000  Uiso   1.00
C571   C     0.47423   0.11469   0.44580   0.00000  Uiso   1.00
C572   C     0.48733   0.10686   0.39143   0.00000  Uiso   1.00
C573   C     0.45008   0.35932   0.59765   0.00000  Uiso   1.00
C574   C     0.45204   0.41227   0.58592   0.00000  Uiso   1.00
C575   C     0.42462   0.44164   0.62251   0.00000  Uiso   1.00
C576   C     0.04515   0.21249   0.64172   0.00000  Uiso   1.00
C577   C     0.09226   0.19972   0.66126   0.00000  Uiso   1.00
C578   C     0.26504   0.39789   0.54099   0.00000  Uiso   1.00
C579   C     0.10029   0.21751   0.38099   0.00000  Uiso   1.00
C580   C     0.11976   0.36306   0.51071   0.00000  Uiso   1.00
C581   C     0.08238   0.39958   0.51780   0.00000  Uiso   1.00
C582   C     0.09638   0.43749   0.55552   0.00000  Uiso   1.00
C583   C     0.37226   0.14495   0.55588   0.00000  Uiso   1.00
C584   C     0.40787   0.11355   0.58072   0.00000  Uiso   1.00
C585   C     0.38853   0.08683   0.62507   0.00000  Uiso   1.00
C586   C     0.39642   0.35590   0.47450   0.00000  Uiso   1.00
C587   C     0.36646   0.39869   0.46435   0.00000  Uiso   1.00
C588   C     0.38053   0.42501   0.41744   0.00000  Uiso   1.00
C589   C     0.23870   0.10222   0.54217   0.00000  Uiso   1.00
C590   C     0.11631   0.13874   0.51751   0.00000  Uiso   1.00
C591   C     0.08440   0.09995   0.53514   0.00000  Uiso   1.00
C592   C     0.08320   0.05871   0.49822   0.00000  Uiso   1.00
C593   C     0.23529   0.39777   0.45897   0.00000  Uiso   1.00
C594   C     0.26206   0.05231   0.45716   0.00000  Uiso   1.00
C595   C     0.26538   0.44762   0.54184   0.00000  Uiso   1.00
C596   C     0.23878   0.05250   0.54303   0.00000  Uiso   1.00
H597   H     0.27126   0.12124   0.42484   0.00000  Uiso   1.00
H598   H     0.02194   0.26614   0.41856   0.00000  Uiso   1.00
H599   H     0.06359   0.34149   0.39429   0.00000  Uiso   1.00
H600   H     0.02210   0.32215   0.35040   0.00000  Uiso   1.00
H601   H     0.46730   0.38074   0.38581   0.00000  Uiso   1.00
H602   H     0.01743   0.40884   0.36263   0.00000  Uiso   1.00
H603   H     0.00985   0.40142   0.42890   0.00000  Uiso   1.00
H604   H     0.02478   0.16802   0.45916   0.00000  Uiso   1.00
H605   H     0.47125   0.19101   0.44010   0.00000  Uiso   1.00
H606   H     0.49059   0.08735   0.46937   0.00000  Uiso   1.00
H607   H     0.43731   0.11053   0.44925   0.00000  Uiso   1.00
H608   H     0.27715   0.37861   0.57315   0.00000  Uiso   1.00
H609   H     0.46938   0.13232   0.36692   0.00000  Uiso   1.00
H610   H     0.47802   0.07039   0.37981   0.00000  Uiso   1.00
H611   H     0.02411   0.11138   0.38680   0.00000  Uiso   1.00
H612   H     0.46807   0.35294   0.63313   0.00000  Uiso   1.00
H613   H     0.41472   0.34828   0.60400   0.00000  Uiso   1.00
H614   H     0.48754   0.42437   0.58716   0.00000  Uiso   1.00
H615   H     0.43888   0.41859   0.54770   0.00000  Uiso   1.00
H616   H     0.38908   0.42974   0.62245   0.00000  Uiso   1.00
H617   H     0.42563   0.47938   0.61126   0.00000  Uiso   1.00
H618   H     0.43886   0.43869   0.66069   0.00000  Uiso   1.00
H619   H     0.22919   0.12154   0.57533   0.00000  Uiso   1.00
H620   H     0.01995   0.19853   0.33489   0.00000  Uiso   1.00
H621   H     0.04061   0.25164   0.64129   0.00000  Uiso   1.00
H622   H     0.09660   0.16067   0.66030   0.00000  Uiso   1.00
H623   H     0.11817   0.21620   0.63741   0.00000  Uiso   1.00
H624   H     0.09796   0.25669   0.38233   0.00000  Uiso   1.00
H625   H     0.13440   0.20701   0.39371   0.00000  Uiso   1.00
H626   H     0.07546   0.20190   0.40665   0.00000  Uiso   1.00
H627   H     0.15011   0.38204   0.49785   0.00000  Uiso   1.00
H628   H     0.12890   0.34697   0.54746   0.00000  Uiso   1.00
H629   H     0.07459   0.41667   0.48149   0.00000  Uiso   1.00
H630   H     0.22318   0.37839   0.42671   0.00000  Uiso   1.00
H631   H     0.05170   0.38203   0.53182   0.00000  Uiso   1.00
H632   H     0.10486   0.42108   0.59201   0.00000  Uiso   1.00
H633   H     0.06822   0.46254   0.56126   0.00000  Uiso   1.00
H634   H     0.12593   0.45742   0.54173   0.00000  Uiso   1.00
H635   H     0.34250   0.12272   0.54685   0.00000  Uiso   1.00
H636   H     0.36047   0.17260   0.58263   0.00000  Uiso   1.00
H637   H     0.42086   0.08764   0.55308   0.00000  Uiso   1.00
H638   H     0.43623   0.13573   0.59430   0.00000  Uiso   1.00
H639   H     0.37556   0.11211   0.65334   0.00000  Uiso   1.00
H640   H     0.41522   0.06505   0.64270   0.00000  Uiso   1.00
H641   H     0.27195   0.03417   0.42334   0.00000  Uiso   1.00
H642   H     0.36091   0.06306   0.61258   0.00000  Uiso   1.00
H643   H     0.39149   0.32992   0.44348   0.00000  Uiso   1.00
H644   H     0.43211   0.36749   0.47534   0.00000  Uiso   1.00
H645   H     0.33139   0.38637   0.45939   0.00000  Uiso   1.00
H646   H     0.36777   0.42341   0.49668   0.00000  Uiso   1.00
H647   H     0.41479   0.43987   0.42236   0.00000  Uiso   1.00
H648   H     0.35688   0.45460   0.41030   0.00000  Uiso   1.00
H649   H     0.37985   0.40075   0.38474   0.00000  Uiso   1.00
H650   H     0.15002   0.12284   0.51263   0.00000  Uiso   1.00
H651   H     0.10576   0.15159   0.47981   0.00000  Uiso   1.00
H652   H     0.27797   0.46574   0.57474   0.00000  Uiso   1.00
H653   H     0.09554   0.08683   0.57227   0.00000  Uiso   1.00
H654   H     0.05007   0.11454   0.53886   0.00000  Uiso   1.00
H655   H     0.07421   0.07138   0.46025   0.00000  Uiso   1.00
H656   H     0.05760   0.03260   0.51002   0.00000  Uiso   1.00
H657   H     0.11646   0.04104   0.49693   0.00000  Uiso   1.00
H658   H     0.22905   0.03451   0.57688   0.00000  Uiso   1.00
H659   H     0.22296   0.46549   0.42524   0.00000  Uiso   1.00
H660   H     0.47126   0.29894   0.42086   0.00000  Uiso   1.00
N661   N     0.25000   0.12624   0.50000   0.00000  Uiso   1.00
N662   N     0.25000   0.37377   0.50000   0.00000  Uiso   1.00
O663   O     0.18453   0.28974   0.50000   0.00000  Uiso   1.00
O664   O     0.47911   0.16802   0.51577   0.00000  Uiso   1.00
O665   O     0.47256   0.33432   0.55938   0.00000  Uiso   1.00
O666   O     0.03654   0.19130   0.59453   0.00000  Uiso   1.00
O667   O     0.10832   0.32911   0.47349   0.00000  Uiso   1.00
O668   O     0.38805   0.16388   0.51029   0.00000  Uiso   1.00
O669   O     0.38448   0.33624   0.52098   0.00000  Uiso   1.00
O670   O     0.12018   0.17491   0.55410   0.00000  Uiso   1.00
O671   O     0.31547   0.21026   0.50000   0.00000  Uiso   1.00
O672   O     0.31547   0.28974   0.50000   0.00000  Uiso   1.00
O673   O     0.18453   0.21026   0.50000   0.00000  Uiso   1.00
O674   O     0.25000   0.28973   0.42845   0.00000  Uiso   1.00
O675   O     0.25000   0.21027   0.57155   0.00000  Uiso   1.00
O676   O     0.25000   0.28973   0.57155   0.00000  Uiso   1.00
O677   O     0.25000   0.21027   0.42845   0.00000  Uiso   1.00
O678   O     0.01640   0.31904   0.47539   0.00000  Uiso   1.00
Zn679  Zn    0.25000   0.30307   0.50000   0.00000  Uiso   1.00
Zn680  Zn    0.25000   0.19693   0.50000   0.00000  Uiso   1.00
C681   C     0.66351   0.25005   0.50138   0.00000  Uiso   1.00
C682   C     0.73534   0.44748   0.45816   0.00000  Uiso   1.00
C683   C     0.74987   0.24995   0.40613   0.00000  Uiso   1.00
C684   C     0.74995   0.25005   0.59387   0.00000  Uiso   1.00
C685   C     0.75045   0.02660   0.50008   0.00000  Uiso   1.00
C686   C     0.75041   0.47335   0.50003   0.00000  Uiso   1.00
C687   C     0.74981   0.24992   0.35509   0.00000  Uiso   1.00
C688   C     0.74984   0.25006   0.64490   0.00000  Uiso   1.00
C689   C     0.54327   0.28753   0.50127   0.00000  Uiso   1.00
C690   C     0.95466   0.20868   0.52488   0.00000  Uiso   1.00
C691   C     0.95055   0.29282   0.54551   0.00000  Uiso   1.00
C692   C     0.83657   0.25004   0.50272   0.00000  Uiso   1.00
C693   C     0.55256   0.22062   0.55737   0.00000  Uiso   1.00
C694   C     0.58950   0.28983   0.49596   0.00000  Uiso   1.00
C695   C     0.90834   0.20725   0.51909   0.00000  Uiso   1.00
C696   C     0.90637   0.29342   0.52686   0.00000  Uiso   1.00
C697   C     0.59585   0.21418   0.53914   0.00000  Uiso   1.00
C698   C     0.61552   0.25061   0.51071   0.00000  Uiso   1.00
C699   C     0.88449   0.25024   0.51529   0.00000  Uiso   1.00
C700   C     0.52474   0.25452   0.53452   0.00000  Uiso   1.00
C701   C     0.97587   0.25133   0.53856   0.00000  Uiso   1.00
C702   C     0.50812   0.30204   0.42642   0.00000  Uiso   1.00
C703   C     0.76181   0.10204   0.45798   0.00000  Uiso   1.00
C704   C     0.52698   0.33689   0.38840   0.00000  Uiso   1.00
C705   C     0.50395   0.38498   0.39177   0.00000  Uiso   1.00
C706   C     0.98811   0.16390   0.46409   0.00000  Uiso   1.00
C707   C     0.97423   0.11469   0.44580   0.00000  Uiso   1.00
C708   C     0.98733   0.10686   0.39143   0.00000  Uiso   1.00
C709   C     0.95008   0.35932   0.59765   0.00000  Uiso   1.00
C710   C     0.95204   0.41227   0.58592   0.00000  Uiso   1.00
C711   C     0.92462   0.44164   0.62251   0.00000  Uiso   1.00
C712   C     0.54515   0.21249   0.64172   0.00000  Uiso   1.00
C713   C     0.59226   0.19972   0.66126   0.00000  Uiso   1.00
C714   C     0.76504   0.39789   0.54099   0.00000  Uiso   1.00
C715   C     0.60029   0.21751   0.38099   0.00000  Uiso   1.00
C716   C     0.61976   0.36306   0.51071   0.00000  Uiso   1.00
C717   C     0.58238   0.39958   0.51780   0.00000  Uiso   1.00
C718   C     0.59638   0.43749   0.55552   0.00000  Uiso   1.00
C719   C     0.87226   0.14495   0.55588   0.00000  Uiso   1.00
C720   C     0.90787   0.11355   0.58072   0.00000  Uiso   1.00
C721   C     0.88853   0.08683   0.62507   0.00000  Uiso   1.00
C722   C     0.89642   0.35590   0.47450   0.00000  Uiso   1.00
C723   C     0.86646   0.39869   0.46435   0.00000  Uiso   1.00
C724   C     0.88053   0.42501   0.41744   0.00000  Uiso   1.00
C725   C     0.73870   0.10222   0.54217   0.00000  Uiso   1.00
C726   C     0.61631   0.13874   0.51751   0.00000  Uiso   1.00
C727   C     0.58440   0.09995   0.53514   0.00000  Uiso   1.00
C728   C     0.58320   0.05871   0.49822   0.00000  Uiso   1.00
C729   C     0.73529   0.39777   0.45897   0.00000  Uiso   1.00
C730   C     0.76206   0.05231   0.45716   0.00000  Uiso   1.00
C731   C     0.76538   0.44762   0.54184   0.00000  Uiso   1.00
C732   C     0.73878   0.05250   0.54303   0.00000  Uiso   1.00
H733   H     0.77126   0.12124   0.42484   0.00000  Uiso   1.00
H734   H     0.52194   0.26614   0.41856   0.00000  Uiso   1.00
H735   H     0.56359   0.34149   0.39429   0.00000  Uiso   1.00
H736   H     0.52210   0.32215   0.35040   0.00000  Uiso   1.00
H737   H     0.96730   0.38074   0.38581   0.00000  Uiso   1.00
H738   H     0.51743   0.40884   0.36263   0.00000  Uiso   1.00
H739   H     0.50985   0.40142   0.42890   0.00000  Uiso   1.00
H740   H     0.52478   0.16802   0.45916   0.00000  Uiso   1.00
H741   H     0.97125   0.19101   0.44010   0.00000  Uiso   1.00
H742   H     0.99059   0.08735   0.46937   0.00000  Uiso   1.00
H743   H     0.93731   0.11053   0.44925   0.00000  Uiso   1.00
H744   H     0.77715   0.37861   0.57315   0.00000  Uiso   1.00
H745   H     0.96938   0.13232   0.36692   0.00000  Uiso   1.00
H746   H     0.97802   0.07039   0.37981   0.00000  Uiso   1.00
H747   H     0.52411   0.11138   0.38680   0.00000  Uiso   1.00
H748   H     0.96807   0.35294   0.63313   0.00000  Uiso   1.00
H749   H     0.91472   0.34828   0.60400   0.00000  Uiso   1.00
H750   H     0.98754   0.42437   0.58716   0.00000  Uiso   1.00
H751   H     0.93888   0.41859   0.54770   0.00000  Uiso   1.00
H752   H     0.88908   0.42974   0.62245   0.00000  Uiso   1.00
H753   H     0.92563   0.47938   0.61126   0.00000  Uiso   1.00
H754   H     0.93886   0.43869   0.66069   0.00000  Uiso   1.00
H755   H     0.72919   0.12154   0.57533   0.00000  Uiso   1.00
H756   H     0.51995   0.19853   0.33489   0.00000  Uiso   1.00
H757   H     0.54061   0.25164   0.64129   0.00000  Uiso   1.00
H758   H     0.59660   0.16067   0.66030   0.00000  Uiso   1.00
H759   H     0.61817   0.21620   0.63741   0.00000  Uiso   1.00
H760   H     0.59796   0.25669   0.38233   0.00000  Uiso   1.00
H761   H     0.63440   0.20701   0.39371   0.00000  Uiso   1.00
H762   H     0.57546   0.20190   0.40665   0.00000  Uiso   1.00
H763   H     0.65011   0.38204   0.49785   0.00000  Uiso   1.00
H764   H     0.62890   0.34697   0.54746   0.00000  Uiso   1.00
H765   H     0.57459   0.41667   0.48149   0.00000  Uiso   1.00
H766   H     0.72318   0.37839   0.42671   0.00000  Uiso   1.00
H767   H     0.55170   0.38203   0.53182   0.00000  Uiso   1.00
H768   H     0.60486   0.42108   0.59201   0.00000  Uiso   1.00
H769   H     0.56822   0.46254   0.56126   0.00000  Uiso   1.00
H770   H     0.62593   0.45742   0.54173   0.00000  Uiso   1.00
H771   H     0.84250   0.12272   0.54685   0.00000  Uiso   1.00
H772   H     0.86047   0.17260   0.58263   0.00000  Uiso   1.00
H773   H     0.92086   0.08764   0.55308   0.00000  Uiso   1.00
H774   H     0.93623   0.13573   0.59430   0.00000  Uiso   1.00
H775   H     0.87556   0.11211   0.65334   0.00000  Uiso   1.00
H776   H     0.91522   0.06505   0.64270   0.00000  Uiso   1.00
H777   H     0.77195   0.03417   0.42334   0.00000  Uiso   1.00
H778   H     0.86091   0.06306   0.61258   0.00000  Uiso   1.00
H779   H     0.89149   0.32992   0.44348   0.00000  Uiso   1.00
H780   H     0.93211   0.36749   0.47534   0.00000  Uiso   1.00
H781   H     0.83139   0.38637   0.45939   0.00000  Uiso   1.00
H782   H     0.86777   0.42341   0.49668   0.00000  Uiso   1.00
H783   H     0.91479   0.43987   0.42236   0.00000  Uiso   1.00
H784   H     0.85688   0.45460   0.41030   0.00000  Uiso   1.00
H785   H     0.87985   0.40075   0.38474   0.00000  Uiso   1.00
H786   H     0.65002   0.12284   0.51263   0.00000  Uiso   1.00
H787   H     0.60576   0.15159   0.47981   0.00000  Uiso   1.00
H788   H     0.77797   0.46574   0.57474   0.00000  Uiso   1.00
H789   H     0.59554   0.08683   0.57227   0.00000  Uiso   1.00
H790   H     0.55007   0.11454   0.53886   0.00000  Uiso   1.00
H791   H     0.57421   0.07138   0.46025   0.00000  Uiso   1.00
H792   H     0.55760   0.03260   0.51002   0.00000  Uiso   1.00
H793   H     0.61646   0.04104   0.49693   0.00000  Uiso   1.00
H794   H     0.72905   0.03451   0.57688   0.00000  Uiso   1.00
H795   H     0.72296   0.46549   0.42524   0.00000  Uiso   1.00
H796   H     0.97126   0.29894   0.42086   0.00000  Uiso   1.00
N797   N     0.75000   0.12624   0.50000   0.00000  Uiso   1.00
N798   N     0.75000   0.37377   0.50000   0.00000  Uiso   1.00
O799   O     0.68453   0.28974   0.50000   0.00000  Uiso   1.00
O800   O     0.97911   0.16802   0.51577   0.00000  Uiso   1.00
O801   O     0.97256   0.33432   0.55938   0.00000  Uiso   1.00
O802   O     0.53654   0.19130   0.59453   0.00000  Uiso   1.00
O803   O     0.60832   0.32911   0.47349   0.00000  Uiso   1.00
O804   O     0.88805   0.16388   0.51029   0.00000  Uiso   1.00
O805   O     0.88448   0.33624   0.52098   0.00000  Uiso   1.00
O806   O     0.62018   0.17491   0.55410   0.00000  Uiso   1.00
O807   O     0.81547   0.21026   0.50000   0.00000  Uiso   1.00
O808   O     0.81547   0.28974   0.50000   0.00000  Uiso   1.00
O809   O     0.68453   0.21026   0.50000   0.00000  Uiso   1.00
O810   O     0.75000   0.28973   0.42845   0.00000  Uiso   1.00
O811   O     0.75000   0.21027   0.57155   0.00000  Uiso   1.00
O812   O     0.75000   0.28973   0.57155   0.00000  Uiso   1.00
O813   O     0.75000   0.21027   0.42845   0.00000  Uiso   1.00
O814   O     0.51640   0.31904   0.47539   0.00000  Uiso   1.00
Zn815  Zn    0.75000   0.30307   0.50000   0.00000  Uiso   1.00
Zn816  Zn    0.75000   0.19693   0.50000   0.00000  Uiso   1.00
C817   C     0.16351   0.75005   0.50138   0.00000  Uiso   1.00
C818   C     0.23534   0.94748   0.45816   0.00000  Uiso   1.00
C819   C     0.24987   0.74995   0.40613   0.00000  Uiso   1.00
C820   C     0.24995   0.75005   0.59387   0.00000  Uiso   1.00
C821   C     0.25045   0.52660   0.50008   0.00000  Uiso   1.00
C822   C     0.25041   0.97335   0.50003   0.00000  Uiso   1.00
C823   C     0.24981   0.74992   0.35509   0.00000  Uiso   1.00
C824   C     0.24984   0.75006   0.64490   0.00000  Uiso   1.00
C825   C     0.04327   0.78753   0.50127   0.00000  Uiso   1.00
C826   C     0.45466   0.70868   0.52488   0.00000  Uiso   1.00
C827   C     0.45055   0.79282   0.54551   0.00000  Uiso   1.00
C828   C     0.33657   0.75004   0.50272   0.00000  Uiso   1.00
C829   C     0.05256   0.72062   0.55737   0.00000  Uiso   1.00
C830   C     0.08950   0.78983   0.49596   0.00000  Uiso   1.00
C831   C     0.40834   0.70725   0.51909   0.00000  Uiso   1.00
C832   C     0.40637   0.79342   0.52686   0.00000  Uiso   1.00
C833   C     0.09585   0.71418   0.53914   0.00000  Uiso   1.00
C834   C     0.11552   0.75061   0.51071   0.00000  Uiso   1.00
C835   C     0.38449   0.75024   0.51529   0.00000  Uiso   1.00
C836   C     0.02474   0.75452   0.53452   0.00000  Uiso   1.00
C837   C     0.47587   0.75133   0.53856   0.00000  Uiso   1.00
C838   C     0.00812   0.80204   0.42642   0.00000  Uiso   1.00
C839   C     0.26181   0.60204   0.45798   0.00000  Uiso   1.00
C840   C     0.02698   0.83689   0.38840   0.00000  Uiso   1.00
C841   C     0.00395   0.88498   0.39177   0.00000  Uiso   1.00
C842   C     0.48811   0.66390   0.46409   0.00000  Uiso   1.00
C843   C     0.47423   0.61469   0.44580   0.00000  Uiso   1.00
C844   C     0.48733   0.60686   0.39143   0.00000  Uiso   1.00
C845   C     0.45008   0.85932   0.59765   0.00000  Uiso   1.00
C846   C     0.45204   0.91227   0.58592   0.00000  Uiso   1.00
C847   C     0.42462   0.94164   0.62251   0.00000  Uiso   1.00
C848   C     0.04515   0.71249   0.64172   0.00000  Uiso   1.00
C849   C     0.09226   0.69972   0.66126   0.00000  Uiso   1.00
C850   C     0.26504   0.89789   0.54099   0.00000  Uiso   1.00
C851   C     0.10029   0.71751   0.38099   0.00000  Uiso   1.00
C852   C     0.11976   0.86306   0.51071   0.00000  Uiso   1.00
C853   C     0.08238   0.89958   0.51780   0.00000  Uiso   1.00
C854   C     0.09638   0.93749   0.55552   0.00000  Uiso   1.00
C855   C     0.37226   0.64495   0.55588   0.00000  Uiso   1.00
C856   C     0.40787   0.61355   0.58072   0.00000  Uiso   1.00
C857   C     0.38853   0.58683   0.62507   0.00000  Uiso   1.00
C858   C     0.39642   0.85590   0.47450   0.00000  Uiso   1.00
C859   C     0.36646   0.89869   0.46435   0.00000  Uiso   1.00
C860   C     0.38053   0.92501   0.41744   0.00000  Uiso   1.00
C861   C     0.23870   0.60222   0.54217   0.00000  Uiso   1.00
C862   C     0.11631   0.63874   0.51751   0.00000  Uiso   1.00
C863   C     0.08440   0.59995   0.53514   0.00000  Uiso   1.00
C864   C     0.08320   0.55871   0.49822   0.00000  Uiso   1.00
C865   C     0.23529   0.89777   0.45897   0.00000  Uiso   1.00
C866   C     0.26206   0.55231   0.45716   0.00000  Uiso   1.00
C867   C     0.26538   0.94762   0.54184   0.00000  Uiso   1.00
C868   C     0.23878   0.55250   0.54303   0.00000  Uiso   1.00
H869   H     0.27126   0.62124   0.42484   0.00000  Uiso   1.00
H870   H     0.02194   0.76614   0.41856   0.00000  Uiso   1.00
H871   H     0.06359   0.84149   0.39429   0.00000  Uiso   1.00
H872   H     0.02210   0.82215   0.35040   0.00000  Uiso   1.00
H873   H     0.46730   0.88074   0.38581   0.00000  Uiso   1.00
H874   H     0.01743   0.90884   0.36263   0.00000  Uiso   1.00
H875   H     0.00985   0.90142   0.42890   0.00000  Uiso   1.00
H876   H     0.02478   0.66802   0.45916   0.00000  Uiso   1.00
H877   H     0.47125   0.69101   0.44010   0.00000  Uiso   1.00
H878   H     0.49059   0.58735   0.46937   0.00000  Uiso   1.00
H879   H     0.43731   0.61053   0.44925   0.00000  Uiso   1.00
H880   H     0.27715   0.87861   0.57315   0.00000  Uiso   1.00
H881   H     0.46938   0.63232   0.36692   0.00000  Uiso   1.00
H882   H     0.47802   0.57039   0.37981   0.00000  Uiso   1.00
H883   H     0.02411   0.61138   0.38680   0.00000  Uiso   1.00
H884   H     0.46807   0.85294   0.63313   0.00000  Uiso   1.00
H885   H     0.41472   0.84828   0.60400   0.00000  Uiso   1.00
H886   H     0.48754   0.92437   0.58716   0.00000  Uiso   1.00
H887   H     0.43888   0.91859   0.54770   0.00000  Uiso   1.00
H888   H     0.38908   0.92974   0.62245   0.00000  Uiso   1.00
H889   H     0.42563   0.97938   0.61126   0.00000  Uiso   1.00
H890   H     0.43886   0.93869   0.66069   0.00000  Uiso   1.00
H891   H     0.22919   0.62154   0.57533   0.00000  Uiso   1.00
H892   H     0.01995   0.69853   0.33489   0.00000  Uiso   1.00
H893   H     0.04061   0.75164   0.64129   0.00000  Uiso   1.00
H894   H     0.09660   0.66067   0.66030   0.00000  Uiso   1.00
H895   H     0.11817   0.71620   0.63741   0.00000  Uiso   1.00
H896   H     0.09796   0.75669   0.38233   0.00000  Uiso   1.00
H897   H     0.13440   0.70701   0.39371   0.00000  Uiso   1.00
H898   H     0.07546   0.70190   0.40665   0.00000  Uiso   1.00
H899   H     0.15011   0.88204   0.49785   0.00000  Uiso   1.00
H900   H     0.12890   0.84697   0.54746   0.00000  Uiso   1.00
H901   H     0.07459   0.91667   0.48149   0.00000  Uiso   1.00
H902   H     0.22318   0.87839   0.42671   0.00000  Uiso   1.00
H903   H     0.05170   0.88203   0.53182   0.00000  Uiso   1.00
H904   H     0.10486   0.92108   0.59201   0.00000  Uiso   1.00
H905   H     0.06822   0.96254   0.56126   0.00000  Uiso   1.00
H906   H     0.12593   0.95742   0.54173   0.00000  Uiso   1.00
H907   H     0.34250   0.62272   0.54685   0.00000  Uiso   1.00
H908   H     0.36047   0.67260   0.58263   0.00000  Uiso   1.00
H909   H     0.42086   0.58764   0.55308   0.00000  Uiso   1.00
H910   H     0.43623   0.63573   0.59430   0.00000  Uiso   1.00
H911   H     0.37556   0.61211   0.65334   0.00000  Uiso   1.00
H912   H     0.41522   0.56505   0.64270   0.00000  Uiso   1.00
H913   H     0.27195   0.53417   0.42334   0.00000  Uiso   1.00
H914   H     0.36091   0.56306   0.61258   0.00000  Uiso   1.00
H915   H     0.39149   0.82992   0.44348   0.00000  Uiso   1.00
H916   H     0.43211   0.86749   0.47534   0.00000  Uiso   1.00
H917   H     0.33139   0.88637   0.45939   0.00000  Uiso   1.00
H918   H     0.36777   0.92341   0.49668   0.00000  Uiso   1.00
H919   H     0.41479   0.93987   0.42236   0.00000  Uiso   1.00
H920   H     0.35688   0.95460   0.41030   0.00000  Uiso   1.00
H921   H     0.37985   0.90075   0.38474   0.00000  Uiso   1.00
H922   H     0.15002   0.62284   0.51263   0.00000  Uiso   1.00
H923   H     0.10576   0.65159   0.47981   0.00000  Uiso   1.00
H924   H     0.27797   0.96574   0.57474   0.00000  Uiso   1.00
H925   H     0.09554   0.58683   0.57227   0.00000  Uiso   1.00
H926   H     0.05007   0.61454   0.53886   0.00000  Uiso   1.00
H927   H     0.07421   0.57138   0.46025   0.00000  Uiso   1.00
H928   H     0.05760   0.53260   0.51002   0.00000  Uiso   1.00
H929   H     0.11646   0.54104   0.49693   0.00000  Uiso   1.00
H930   H     0.22905   0.53451   0.57688   0.00000  Uiso   1.00
H931   H     0.22296   0.96549   0.42524   0.00000  Uiso   1.00
H932   H     0.47126   0.79894   0.42086   0.00000  Uiso   1.00
N933   N     0.25000   0.62624   0.50000   0.00000  Uiso   1.00
N934   N     0.25000   0.87377   0.50000   0.00000  Uiso   1.00
O935   O     0.18453   0.78974   0.50000   0.00000  Uiso   1.00
O936   O     0.47911   0.66802   0.51577   0.00000  Uiso   1.00
O937   O     0.47256   0.83432   0.55938   0.00000  Uiso   1.00
O938   O     0.03654   0.69130   0.59453   0.00000  Uiso   1.00
O939   O     0.10832   0.82911   0.47349   0.00000  Uiso   1.00
O940   O     0.38805   0.66388   0.51029   0.00000  Uiso   1.00
O941   O     0.38448   0.83624   0.52098   0.00000  Uiso   1.00
O942   O     0.12018   0.67491   0.55410   0.00000  Uiso   1.00
O943   O     0.31547   0.71026   0.50000   0.00000  Uiso   1.00
O944   O     0.31547   0.78974   0.50000   0.00000  Uiso   1.00
O945   O     0.18453   0.71026   0.50000   0.00000  Uiso   1.00
O946   O     0.25000   0.78973   0.42845   0.00000  Uiso   1.00
O947   O     0.25000   0.71027   0.57155   0.00000  Uiso   1.00
O948   O     0.25000   0.78973   0.57155   0.00000  Uiso   1.00
O949   O     0.25000   0.71027   0.42845   0.00000  Uiso   1.00
O950   O     0.01640   0.81904   0.47539   0.00000  Uiso   1.00
Zn951  Zn    0.25000   0.80307   0.50000   0.00000  Uiso   1.00
Zn952  Zn    0.25000   0.69693   0.50000   0.00000  Uiso   1.00
C953   C     0.66351   0.75005   0.50138   0.00000  Uiso   1.00
C954   C     0.73534   0.94748   0.45816   0.00000  Uiso   1.00
C955   C     0.74987   0.74995   0.40613   0.00000  Uiso   1.00
C956   C     0.74995   0.75005   0.59387   0.00000  Uiso   1.00
C957   C     0.75045   0.52660   0.50008   0.00000  Uiso   1.00
C958   C     0.75041   0.97335   0.50003   0.00000  Uiso   1.00
C959   C     0.74981   0.74992   0.35509   0.00000  Uiso   1.00
C960   C     0.74984   0.75006   0.64490   0.00000  Uiso   1.00
C961   C     0.54327   0.78753   0.50127   0.00000  Uiso   1.00
C962   C     0.95466   0.70868   0.52488   0.00000  Uiso   1.00
C963   C     0.95055   0.79282   0.54551   0.00000  Uiso   1.00
C964   C     0.83657   0.75004   0.50272   0.00000  Uiso   1.00
C965   C     0.55256   0.72062   0.55737   0.00000  Uiso   1.00
C966   C     0.58950   0.78983   0.49596   0.00000  Uiso   1.00
C967   C     0.90834   0.70725   0.51909   0.00000  Uiso   1.00
C968   C     0.90637   0.79342   0.52686   0.00000  Uiso   1.00
C969   C     0.59585   0.71418   0.53914   0.00000  Uiso   1.00
C970   C     0.61552   0.75061   0.51071   0.00000  Uiso   1.00
C971   C     0.88449   0.75024   0.51529   0.00000  Uiso   1.00
C972   C     0.52474   0.75452   0.53452   0.00000  Uiso   1.00
C973   C     0.97587   0.75133   0.53856   0.00000  Uiso   1.00
C974   C     0.50812   0.80204   0.42642   0.00000  Uiso   1.00
C975   C     0.76181   0.60204   0.45798   0.00000  Uiso   1.00
C976   C     0.52698   0.83689   0.38840   0.00000  Uiso   1.00
C977   C     0.50395   0.88498   0.39177   0.00000  Uiso   1.00
C978   C     0.98811   0.66390   0.46409   0.00000  Uiso   1.00
C979   C     0.97423   0.61469   0.44580   0.00000  Uiso   1.00
C980   C     0.98733   0.60686   0.39143   0.00000  Uiso   1.00
C981   C     0.95008   0.85932   0.59765   0.00000  Uiso   1.00
C982   C     0.95204   0.91227   0.58592   0.00000  Uiso   1.00
C983   C     0.92462   0.94164   0.62251   0.00000  Uiso   1.00
C984   C     0.54515   0.71249   0.64172   0.00000  Uiso   1.00
C985   C     0.59226   0.69972   0.66126   0.00000  Uiso   1.00
C986   C     0.76504   0.89789   0.54099   0.00000  Uiso   1.00
C987   C     0.60029   0.71751   0.38099   0.00000  Uiso   1.00
C988   C     0.61976   0.86306   0.51071   0.00000  Uiso   1.00
C989   C     0.58238   0.89958   0.51780   0.00000  Uiso   1.00
C990   C     0.59638   0.93749   0.55552   0.00000  Uiso   1.00
C991   C     0.87226   0.64495   0.55588   0.00000  Uiso   1.00
C992   C     0.90787   0.61355   0.58072   0.00000  Uiso   1.00
C993   C     0.88853   0.58683   0.62507   0.00000  Uiso   1.00
C994   C     0.89642   0.85590   0.47450   0.00000  Uiso   1.00
C995   C     0.86646   0.89869   0.46435   0.00000  Uiso   1.00
C996   C     0.88053   0.92501   0.41744   0.00000  Uiso   1.00
C997   C     0.73870   0.60222   0.54217   0.00000  Uiso   1.00
C998   C     0.61631   0.63874   0.51751   0.00000  Uiso   1.00
C999   C     0.58440   0.59995   0.53514   0.00000  Uiso   1.00
C1000  C     0.58320   0.55871   0.49822   0.00000  Uiso   1.00
C1001  C     0.73529   0.89777   0.45897   0.00000  Uiso   1.00
C1002  C     0.76206   0.55231   0.45716   0.00000  Uiso   1.00
C1003  C     0.76538   0.94762   0.54184   0.00000  Uiso   1.00
C1004  C     0.73878   0.55250   0.54303   0.00000  Uiso   1.00
H1005  H     0.77126   0.62124   0.42484   0.00000  Uiso   1.00
H1006  H     0.52194   0.76614   0.41856   0.00000  Uiso   1.00
H1007  H     0.56359   0.84149   0.39429   0.00000  Uiso   1.00
H1008  H     0.52210   0.82215   0.35040   0.00000  Uiso   1.00
H1009  H     0.96730   0.88074   0.38581   0.00000  Uiso   1.00
H1010  H     0.51743   0.90884   0.36263   0.00000  Uiso   1.00
H1011  H     0.50985   0.90142   0.42890   0.00000  Uiso   1.00
H1012  H     0.52478   0.66802   0.45916   0.00000  Uiso   1.00
H1013  H     0.97125   0.69101   0.44010   0.00000  Uiso   1.00
H1014  H     0.99059   0.58735   0.46937   0.00000  Uiso   1.00
H1015  H     0.93731   0.61053   0.44925   0.00000  Uiso   1.00
H1016  H     0.77715   0.87861   0.57315   0.00000  Uiso   1.00
H1017  H     0.96938   0.63232   0.36692   0.00000  Uiso   1.00
H1018  H     0.97802   0.57039   0.37981   0.00000  Uiso   1.00
H1019  H     0.52411   0.61138   0.38680   0.00000  Uiso   1.00
H1020  H     0.96807   0.85294   0.63313   0.00000  Uiso   1.00
H1021  H     0.91472   0.84828   0.60400   0.00000  Uiso   1.00
H1022  H     0.98754   0.92437   0.58716   0.00000  Uiso   1.00
H1023  H     0.93888   0.91859   0.54770   0.00000  Uiso   1.00
H1024  H     0.88908   0.92974   0.62245   0.00000  Uiso   1.00
H1025  H     0.92563   0.97938   0.61126   0.00000  Uiso   1.00
H1026  H     0.93886   0.93869   0.66069   0.00000  Uiso   1.00
H1027  H     0.72919   0.62154   0.57533   0.00000  Uiso   1.00
H1028  H     0.51995   0.69853   0.33489   0.00000  Uiso   1.00
H1029  H     0.54061   0.75164   0.64129   0.00000  Uiso   1.00
H1030  H     0.59660   0.66067   0.66030   0.00000  Uiso   1.00
H1031  H     0.61817   0.71620   0.63741   0.00000  Uiso   1.00
H1032  H     0.59796   0.75669   0.38233   0.00000  Uiso   1.00
H1033  H     0.63440   0.70701   0.39371   0.00000  Uiso   1.00
H1034  H     0.57546   0.70190   0.40665   0.00000  Uiso   1.00
H1035  H     0.65011   0.88204   0.49785   0.00000  Uiso   1.00
H1036  H     0.62890   0.84697   0.54746   0.00000  Uiso   1.00
H1037  H     0.57459   0.91667   0.48149   0.00000  Uiso   1.00
H1038  H     0.72318   0.87839   0.42671   0.00000  Uiso   1.00
H1039  H     0.55170   0.88203   0.53182   0.00000  Uiso   1.00
H1040  H     0.60486   0.92108   0.59201   0.00000  Uiso   1.00
H1041  H     0.56822   0.96254   0.56126   0.00000  Uiso   1.00
H1042  H     0.62593   0.95742   0.54173   0.00000  Uiso   1.00
H1043  H     0.84250   0.62272   0.54685   0.00000  Uiso   1.00
H1044  H     0.86047   0.67260   0.58263   0.00000  Uiso   1.00
H1045  H     0.92086   0.58764   0.55308   0.00000  Uiso   1.00
H1046  H     0.93623   0.63573   0.59430   0.00000  Uiso   1.00
H1047  H     0.87556   0.61211   0.65334   0.00000  Uiso   1.00
H1048  H     0.91522   0.56505   0.64270   0.00000  Uiso   1.00
H1049  H     0.77195   0.53417   0.42334   0.00000  Uiso   1.00
H1050  H     0.86091   0.56306   0.61258   0.00000  Uiso   1.00
H1051  H     0.89149   0.82992   0.44348   0.00000  Uiso   1.00
H1052  H     0.93211   0.86749   0.47534   0.00000  Uiso   1.00
H1053  H     0.83139   0.88637   0.45939   0.00000  Uiso   1.00
H1054  H     0.86777   0.92341   0.49668   0.00000  Uiso   1.00
H1055  H     0.91479   0.93987   0.42236   0.00000  Uiso   1.00
H1056  H     0.85688   0.95460   0.41030   0.00000  Uiso   1.00
H1057  H     0.87985   0.90075   0.38474   0.00000  Uiso   1.00
H1058  H     0.65002   0.62284   0.51263   0.00000  Uiso   1.00
H1059  H     0.60576   0.65159   0.47981   0.00000  Uiso   1.00
H1060  H     0.77797   0.96574   0.57474   0.00000  Uiso   1.00
H1061  H     0.59554   0.58683   0.57227   0.00000  Uiso   1.00
H1062  H     0.55007   0.61454   0.53886   0.00000  Uiso   1.00
H1063  H     0.57421   0.57138   0.46025   0.00000  Uiso   1.00
H1064  H     0.55760   0.53260   0.51002   0.00000  Uiso   1.00
H1065  H     0.61646   0.54104   0.49693   0.00000  Uiso   1.00
H1066  H     0.72905   0.53451   0.57688   0.00000  Uiso   1.00
H1067  H     0.72296   0.96549   0.42524   0.00000  Uiso   1.00
H1068  H     0.97126   0.79894   0.42086   0.00000  Uiso   1.00
N1069  N     0.75000   0.62624   0.50000   0.00000  Uiso   1.00
N1070  N     0.75000   0.87377   0.50000   0.00000  Uiso   1.00
O1071  O     0.68453   0.78974   0.50000   0.00000  Uiso   1.00
O1072  O     0.97911   0.66802   0.51577   0.00000  Uiso   1.00
O1073  O     0.97256   0.83432   0.55938   0.00000  Uiso   1.00
O1074  O     0.53654   0.69130   0.59453   0.00000  Uiso   1.00
O1075  O     0.60832   0.82911   0.47349   0.00000  Uiso   1.00
O1076  O     0.88805   0.66388   0.51029   0.00000  Uiso   1.00
O1077  O     0.88448   0.83624   0.52098   0.00000  Uiso   1.00
O1078  O     0.62018   0.67491   0.55410   0.00000  Uiso   1.00
O1079  O     0.81547   0.71026   0.50000   0.00000  Uiso   1.00
O1080  O     0.81547   0.78974   0.50000   0.00000  Uiso   1.00
O1081  O     0.68453   0.71026   0.50000   0.00000  Uiso   1.00
O1082  O     0.75000   0.78973   0.42845   0.00000  Uiso   1.00
O1083  O     0.75000   0.71027   0.57155   0.00000  Uiso   1.00
O1084  O     0.75000   0.78973   0.57155   0.00000  Uiso   1.00
O1085  O     0.75000   0.71027   0.42845   0.00000  Uiso   1.00
O1086  O     0.51640   0.81904   0.47539   0.00000  Uiso   1.00
Zn1087 Zn    0.75000   0.80307   0.50000   0.00000  Uiso   1.00
Zn1088 Zn    0.75000   0.69693   0.50000   0.00000  Uiso   1.00
C1089  C     0.16351   0.25005   0.83472   0.00000  Uiso   1.00
C1090  C     0.23534   0.44748   0.79149   0.00000  Uiso   1.00
C1091  C     0.24987   0.24995   0.73947   0.00000  Uiso   1.00
C1092  C     0.24995   0.25005   0.92720   0.00000  Uiso   1.00
C1093  C     0.25045   0.02660   0.83342   0.00000  Uiso   1.00
C1094  C     0.25041   0.47335   0.83336   0.00000  Uiso   1.00
C1095  C     0.24981   0.24992   0.68843   0.00000  Uiso   1.00
C1096  C     0.24984   0.25006   0.97823   0.00000  Uiso   1.00
C1097  C     0.04327   0.28753   0.83460   0.00000  Uiso   1.00
C1098  C     0.45466   0.20868   0.85822   0.00000  Uiso   1.00
C1099  C     0.45055   0.29282   0.87885   0.00000  Uiso   1.00
C1100  C     0.33657   0.25004   0.83605   0.00000  Uiso   1.00
C1101  C     0.05256   0.22062   0.89070   0.00000  Uiso   1.00
C1102  C     0.08950   0.28983   0.82930   0.00000  Uiso   1.00
C1103  C     0.40834   0.20725   0.85243   0.00000  Uiso   1.00
C1104  C     0.40637   0.29342   0.86020   0.00000  Uiso   1.00
C1105  C     0.09585   0.21418   0.87247   0.00000  Uiso   1.00
C1106  C     0.11552   0.25061   0.84404   0.00000  Uiso   1.00
C1107  C     0.38449   0.25024   0.84863   0.00000  Uiso   1.00
C1108  C     0.02474   0.25452   0.86785   0.00000  Uiso   1.00
C1109  C     0.47587   0.25133   0.87189   0.00000  Uiso   1.00
C1110  C     0.00812   0.30204   0.75976   0.00000  Uiso   1.00
C1111  C     0.26181   0.10204   0.79131   0.00000  Uiso   1.00
C1112  C     0.02698   0.33689   0.72174   0.00000  Uiso   1.00
C1113  C     0.00395   0.38498   0.72510   0.00000  Uiso   1.00
C1114  C     0.48811   0.16390   0.79742   0.00000  Uiso   1.00
C1115  C     0.47423   0.11469   0.77914   0.00000  Uiso   1.00
C1116  C     0.48733   0.10686   0.72476   0.00000  Uiso   1.00
C1117  C     0.45008   0.35932   0.93098   0.00000  Uiso   1.00
C1118  C     0.45204   0.41227   0.91926   0.00000  Uiso   1.00
C1119  C     0.42462   0.44164   0.95585   0.00000  Uiso   1.00
C1120  C     0.04515   0.21249   0.97505   0.00000  Uiso   1.00
C1121  C     0.09226   0.19972   0.99459   0.00000  Uiso   1.00
C1122  C     0.26504   0.39789   0.87432   0.00000  Uiso   1.00
C1123  C     0.10029   0.21751   0.71432   0.00000  Uiso   1.00
C1124  C     0.11976   0.36306   0.84404   0.00000  Uiso   1.00
C1125  C     0.08238   0.39958   0.85113   0.00000  Uiso   1.00
C1126  C     0.09638   0.43749   0.88885   0.00000  Uiso   1.00
C1127  C     0.37226   0.14495   0.88921   0.00000  Uiso   1.00
C1128  C     0.40787   0.11355   0.91406   0.00000  Uiso   1.00
C1129  C     0.38853   0.08683   0.95841   0.00000  Uiso   1.00
C1130  C     0.39642   0.35590   0.80784   0.00000  Uiso   1.00
C1131  C     0.36646   0.39869   0.79768   0.00000  Uiso   1.00
C1132  C     0.38053   0.42501   0.75077   0.00000  Uiso   1.00
C1133  C     0.23870   0.10222   0.87550   0.00000  Uiso   1.00
C1134  C     0.11631   0.13874   0.85085   0.00000  Uiso   1.00
C1135  C     0.08440   0.09995   0.86847   0.00000  Uiso   1.00
C1136  C     0.08320   0.05871   0.83155   0.00000  Uiso   1.00
C1137  C     0.23529   0.39777   0.79230   0.00000  Uiso   1.00
C1138  C     0.26206   0.05231   0.79049   0.00000  Uiso   1.00
C1139  C     0.26538   0.44762   0.87518   0.00000  Uiso   1.00
C1140  C     0.23878   0.05250   0.87636   0.00000  Uiso   1.00
H1141  H     0.27126   0.12124   0.75818   0.00000  Uiso   1.00
H1142  H     0.02194   0.26614   0.75189   0.00000  Uiso   1.00
H1143  H     0.06359   0.34149   0.72763   0.00000  Uiso   1.00
H1144  H     0.02210   0.32215   0.68373   0.00000  Uiso   1.00
H1145  H     0.46730   0.38074   0.71915   0.00000  Uiso   1.00
H1146  H     0.01743   0.40884   0.69597   0.00000  Uiso   1.00
H1147  H     0.00985   0.40142   0.76223   0.00000  Uiso   1.00
H1148  H     0.02478   0.16802   0.79250   0.00000  Uiso   1.00
H1149  H     0.47125   0.19101   0.77344   0.00000  Uiso   1.00
H1150  H     0.49059   0.08735   0.80270   0.00000  Uiso   1.00
H1151  H     0.43731   0.11053   0.78258   0.00000  Uiso   1.00
H1152  H     0.27715   0.37861   0.90649   0.00000  Uiso   1.00
H1153  H     0.46938   0.13232   0.70026   0.00000  Uiso   1.00
H1154  H     0.47802   0.07039   0.71314   0.00000  Uiso   1.00
H1155  H     0.02411   0.11138   0.72013   0.00000  Uiso   1.00
H1156  H     0.46807   0.35294   0.96647   0.00000  Uiso   1.00
H1157  H     0.41472   0.34828   0.93733   0.00000  Uiso   1.00
H1158  H     0.48754   0.42437   0.92049   0.00000  Uiso   1.00
H1159  H     0.43888   0.41859   0.88104   0.00000  Uiso   1.00
H1160  H     0.38908   0.42974   0.95578   0.00000  Uiso   1.00
H1161  H     0.42563   0.47938   0.94460   0.00000  Uiso   1.00
H1162  H     0.43886   0.43869   0.99402   0.00000  Uiso   1.00
H1163  H     0.22919   0.12154   0.90866   0.00000  Uiso   1.00
H1164  H     0.01995   0.19853   0.66822   0.00000  Uiso   1.00
H1165  H     0.04061   0.25164   0.97462   0.00000  Uiso   1.00
H1166  H     0.09660   0.16067   0.99363   0.00000  Uiso   1.00
H1167  H     0.11817   0.21620   0.97074   0.00000  Uiso   1.00
H1168  H     0.09796   0.25669   0.71566   0.00000  Uiso   1.00
H1169  H     0.13440   0.20701   0.72705   0.00000  Uiso   1.00
H1170  H     0.07546   0.20190   0.73998   0.00000  Uiso   1.00
H1171  H     0.15011   0.38204   0.83118   0.00000  Uiso   1.00
H1172  H     0.12890   0.34697   0.88079   0.00000  Uiso   1.00
H1173  H     0.07459   0.41667   0.81483   0.00000  Uiso   1.00
H1174  H     0.22318   0.37839   0.76005   0.00000  Uiso   1.00
H1175  H     0.05170   0.38203   0.86516   0.00000  Uiso   1.00
H1176  H     0.10486   0.42108   0.92534   0.00000  Uiso   1.00
H1177  H     0.06822   0.46254   0.89459   0.00000  Uiso   1.00
H1178  H     0.12593   0.45742   0.87506   0.00000  Uiso   1.00
H1179  H     0.34250   0.12272   0.88019   0.00000  Uiso   1.00
H1180  H     0.36047   0.17260   0.91596   0.00000  Uiso   1.00
H1181  H     0.42086   0.08764   0.88641   0.00000  Uiso   1.00
H1182  H     0.43623   0.13573   0.92764   0.00000  Uiso   1.00
H1183  H     0.37556   0.11211   0.98668   0.00000  Uiso   1.00
H1184  H     0.41522   0.06505   0.97603   0.00000  Uiso   1.00
H1185  H     0.27195   0.03417   0.75667   0.00000  Uiso   1.00
H1186  H     0.36091   0.06306   0.94592   0.00000  Uiso   1.00
H1187  H     0.39149   0.32992   0.77681   0.00000  Uiso   1.00
H1188  H     0.43211   0.36749   0.80868   0.00000  Uiso   1.00
H1189  H     0.33139   0.38637   0.79272   0.00000  Uiso   1.00
H1190  H     0.36777   0.42341   0.83002   0.00000  Uiso   1.00
H1191  H     0.41479   0.43987   0.75569   0.00000  Uiso   1.00
H1192  H     0.35688   0.45460   0.74364   0.00000  Uiso   1.00
H1193  H     0.37985   0.40075   0.71808   0.00000  Uiso   1.00
H1194  H     0.15002   0.12284   0.84597   0.00000  Uiso   1.00
H1195  H     0.10576   0.15159   0.81314   0.00000  Uiso   1.00
H1196  H     0.27797   0.46574   0.90808   0.00000  Uiso   1.00
H1197  H     0.09554   0.08683   0.90561   0.00000  Uiso   1.00
H1198  H     0.05007   0.11454   0.87220   0.00000  Uiso   1.00
H1199  H     0.07421   0.07138   0.79358   0.00000  Uiso   1.00
H1200  H     0.05760   0.03260   0.84336   0.00000  Uiso   1.00
H1201  H     0.11646   0.04104   0.83026   0.00000  Uiso   1.00
H1202  H     0.22905   0.03451   0.91021   0.00000  Uiso   1.00
H1203  H     0.22296   0.46549   0.75857   0.00000  Uiso   1.00
H1204  H     0.47126   0.29894   0.75420   0.00000  Uiso   1.00
N1205  N     0.25000   0.12624   0.83333   0.00000  Uiso   1.00
N1206  N     0.25000   0.37377   0.83333   0.00000  Uiso   1.00
O1207  O     0.18453   0.28974   0.83334   0.00000  Uiso   1.00
O1208  O     0.47911   0.16802   0.84910   0.00000  Uiso   1.00
O1209  O     0.47256   0.33432   0.89271   0.00000  Uiso   1.00
O1210  O     0.03654   0.19130   0.92786   0.00000  Uiso   1.00
O1211  O     0.10832   0.32911   0.80682   0.00000  Uiso   1.00
O1212  O     0.38805   0.16388   0.84363   0.00000  Uiso   1.00
O1213  O     0.38448   0.33624   0.85431   0.00000  Uiso   1.00
O1214  O     0.12018   0.17491   0.88743   0.00000  Uiso   1.00
O1215  O     0.31547   0.21026   0.83333   0.00000  Uiso   1.00
O1216  O     0.31547   0.28974   0.83333   0.00000  Uiso   1.00
O1217  O     0.18453   0.21026   0.83334   0.00000  Uiso   1.00
O1218  O     0.25000   0.28973   0.76178   0.00000  Uiso   1.00
O1219  O     0.25000   0.21027   0.90489   0.00000  Uiso   1.00
O1220  O     0.25000   0.28973   0.90489   0.00000  Uiso   1.00
O1221  O     0.25000   0.21027   0.76178   0.00000  Uiso   1.00
O1222  O     0.01640   0.31904   0.80872   0.00000  Uiso   1.00
Zn1223 Zn    0.25000   0.30307   0.83333   0.00000  Uiso   1.00
Zn1224 Zn    0.25000   0.19693   0.83333   0.00000  Uiso   1.00
C1225  C     0.66351   0.25005   0.83472   0.00000  Uiso   1.00
C1226  C     0.73534   0.44748   0.79149   0.00000  Uiso   1.00
C1227  C     0.74987   0.24995   0.73947   0.00000  Uiso   1.00
C1228  C     0.74995   0.25005   0.92720   0.00000  Uiso   1.00
C1229  C     0.75045   0.02660   0.83342   0.00000  Uiso   1.00
C1230  C     0.75041   0.47335   0.83336   0.00000  Uiso   1.00
C1231  C     0.74981   0.24992   0.68843   0.00000  Uiso   1.00
C1232  C     0.74984   0.25006   0.97823   0.00000  Uiso   1.00
C1233  C     0.54327   0.28753   0.83460   0.00000  Uiso   1.00
C1234  C     0.95466   0.20868   0.85822   0.00000  Uiso   1.00
C1235  C     0.95055   0.29282   0.87885   0.00000  Uiso   1.00
C1236  C     0.83657   0.25004   0.83605   0.00000  Uiso   1.00
C1237  C     0.55256   0.22062   0.89070   0.00000  Uiso   1.00
C1238  C     0.58950   0.28983   0.82930   0.00000  Uiso   1.00
C1239  C     0.90834   0.20725   0.85243   0.00000  Uiso   1.00
C1240  C     0.90637   0.29342   0.86020   0.00000  Uiso   1.00
C1241  C     0.59585   0.21418   0.87247   0.00000  Uiso   1.00
C1242  C     0.61552   0.25061   0.84404   0.00000  Uiso   1.00
C1243  C     0.88449   0.25024   0.84863   0.00000  Uiso   1.00
C1244  C     0.52474   0.25452   0.86785   0.00000  Uiso   1.00
C1245  C     0.97587   0.25133   0.87189   0.00000  Uiso   1.00
C1246  C     0.50812   0.30204   0.75976   0.00000  Uiso   1.00
C1247  C     0.76181   0.10204   0.79131   0.00000  Uiso   1.00
C1248  C     0.52698   0.33689   0.72174   0.00000  Uiso   1.00
C1249  C     0.50395   0.38498   0.72510   0.00000  Uiso   1.00
C1250  C     0.98811   0.16390   0.79742   0.00000  Uiso   1.00
C1251  C     0.97423   0.11469   0.77914   0.00000  Uiso   1.00
C1252  C     0.98733   0.10686   0.72476   0.00000  Uiso   1.00
C1253  C     0.95008   0.35932   0.93098   0.00000  Uiso   1.00
C1254  C     0.95204   0.41227   0.91926   0.00000  Uiso   1.00
C1255  C     0.92462   0.44164   0.95585   0.00000  Uiso   1.00
C1256  C     0.54515   0.21249   0.97505   0.00000  Uiso   1.00
C1257  C     0.59226   0.19972   0.99459   0.00000  Uiso   1.00
C1258  C     0.76504   0.39789   0.87432   0.00000  Uiso   1.00
C1259  C     0.60029   0.21751   0.71432   0.00000  Uiso   1.00
C1260  C     0.61976   0.36306   0.84404   0.00000  Uiso   1.00
C1261  C     0.58238   0.39958   0.85113   0.00000  Uiso   1.00
C1262  C     0.59638   0.43749   0.88885   0.00000  Uiso   1.00
C1263  C     0.87226   0.14495   0.88921   0.00000  Uiso   1.00
C1264  C     0.90787   0.11355   0.91406   0.00000  Uiso   1.00
C1265  C     0.88853   0.08683   0.95841   0.00000  Uiso   1.00
C1266  C     0.89642   0.35590   0.80784   0.00000  Uiso   1.00
C1267  C     0.86646   0.39869   0.79768   0.00000  Uiso   1.00
C1268  C     0.88053   0.42501   0.75077   0.00000  Uiso   1.00
C1269  C     0.73870   0.10222   0.87550   0.00000  Uiso   1.00
C1270  C     0.61631   0.13874   0.85085   0.00000  Uiso   1.00
C1271  C     0.58440   0.09995   0.86847   0.00000  Uiso   1.00
C1272  C     0.58320   0.05871   0.83155   0.00000  Uiso   1.00
C1273  C     0.73529   0.39777   0.79230   0.00000  Uiso   1.00
C1274  C     0.76206   0.05231   0.79049   0.00000  Uiso   1.00
C1275  C     0.76538   0.44762   0.87518   0.00000  Uiso   1.00
C1276  C     0.73878   0.05250   0.87636   0.00000  Uiso   1.00
H1277  H     0.77126   0.12124   0.75818   0.00000  Uiso   1.00
H1278  H     0.52194   0.26614   0.75189   0.00000  Uiso   1.00
H1279  H     0.56359   0.34149   0.72763   0.00000  Uiso   1.00
H1280  H     0.52210   0.32215   0.68373   0.00000  Uiso   1.00
H1281  H     0.96730   0.38074   0.71915   0.00000  Uiso   1.00
H1282  H     0.51743   0.40884   0.69597   0.00000  Uiso   1.00
H1283  H     0.50985   0.40142   0.76223   0.00000  Uiso   1.00
H1284  H     0.52478   0.16802   0.79250   0.00000  Uiso   1.00
H1285  H     0.97125   0.19101   0.77344   0.00000  Uiso   1.00
H1286  H     0.99059   0.08735   0.80270   0.00000  Uiso   1.00
H1287  H     0.93731   0.11053   0.78258   0.00000  Uiso   1.00
H1288  H     0.77715   0.37861   0.90649   0.00000  Uiso   1.00
H1289  H     0.96938   0.13232   0.70026   0.00000  Uiso   1.00
H1290  H     0.97802   0.07039   0.71314   0.00000  Uiso   1.00
H1291  H     0.52411   0.11138   0.72013   0.00000  Uiso   1.00
H1292  H     0.96807   0.35294   0.96647   0.00000  Uiso   1.00
H1293  H     0.91472   0.34828   0.93733   0.00000  Uiso   1.00
H1294  H     0.98754   0.42437   0.92049   0.00000  Uiso   1.00
H1295  H     0.93888   0.41859   0.88104   0.00000  Uiso   1.00
H1296  H     0.88908   0.42974   0.95578   0.00000  Uiso   1.00
H1297  H     0.92563   0.47938   0.94460   0.00000  Uiso   1.00
H1298  H     0.93886   0.43869   0.99402   0.00000  Uiso   1.00
H1299  H     0.72919   0.12154   0.90866   0.00000  Uiso   1.00
H1300  H     0.51995   0.19853   0.66822   0.00000  Uiso   1.00
H1301  H     0.54061   0.25164   0.97462   0.00000  Uiso   1.00
H1302  H     0.59660   0.16067   0.99363   0.00000  Uiso   1.00
H1303  H     0.61817   0.21620   0.97074   0.00000  Uiso   1.00
H1304  H     0.59796   0.25669   0.71566   0.00000  Uiso   1.00
H1305  H     0.63440   0.20701   0.72705   0.00000  Uiso   1.00
H1306  H     0.57546   0.20190   0.73998   0.00000  Uiso   1.00
H1307  H     0.65011   0.38204   0.83118   0.00000  Uiso   1.00
H1308  H     0.62890   0.34697   0.88079   0.00000  Uiso   1.00
H1309  H     0.57459   0.41667   0.81483   0.00000  Uiso   1.00
H1310  H     0.72318   0.37839   0.76005   0.00000  Uiso   1.00
H1311  H     0.55170   0.38203   0.86516   0.00000  Uiso   1.00
H1312  H     0.60486   0.42108   0.92534   0.00000  Uiso   1.00
H1313  H     0.56822   0.46254   0.89459   0.00000  Uiso   1.00
H1314  H     0.62593   0.45742   0.87506   0.00000  Uiso   1.00
H1315  H     0.84250   0.12272   0.88019   0.00000  Uiso   1.00
H1316  H     0.86047   0.17260   0.91596   0.00000  Uiso   1.00
H1317  H     0.92086   0.08764   0.88641   0.00000  Uiso   1.00
H1318  H     0.93623   0.13573   0.92764   0.00000  Uiso   1.00
H1319  H     0.87556   0.11211   0.98668   0.00000  Uiso   1.00
H1320  H     0.91522   0.06505   0.97603   0.00000  Uiso   1.00
H1321  H     0.77195   0.03417   0.75667   0.00000  Uiso   1.00
H1322  H     0.86091   0.06306   0.94592   0.00000  Uiso   1.00
H1323  H     0.89149   0.32992   0.77681   0.00000  Uiso   1.00
H1324  H     0.93211   0.36749   0.80868   0.00000  Uiso   1.00
H1325  H     0.83139   0.38637   0.79272   0.00000  Uiso   1.00
H1326  H     0.86777   0.42341   0.83002   0.00000  Uiso   1.00
H1327  H     0.91479   0.43987   0.75569   0.00000  Uiso   1.00
H1328  H     0.85688   0.45460   0.74364   0.00000  Uiso   1.00
H1329  H     0.87985   0.40075   0.71808   0.00000  Uiso   1.00
H1330  H     0.65002   0.12284   0.84597   0.00000  Uiso   1.00
H1331  H     0.60576   0.15159   0.81314   0.00000  Uiso   1.00
H1332  H     0.77797   0.46574   0.90808   0.00000  Uiso   1.00
H1333  H     0.59554   0.08683   0.90561   0.00000  Uiso   1.00
H1334  H     0.55007   0.11454   0.87220   0.00000  Uiso   1.00
H1335  H     0.57421   0.07138   0.79358   0.00000  Uiso   1.00
H1336  H     0.55760   0.03260   0.84336   0.00000  Uiso   1.00
H1337  H     0.61646   0.04104   0.83026   0.00000  Uiso   1.00
H1338  H     0.72905   0.03451   0.91021   0.00000  Uiso   1.00
H1339  H     0.72296   0.46549   0.75857   0.00000  Uiso   1.00
H1340  H     0.97126   0.29894   0.75420   0.00000  Uiso   1.00
N1341  N     0.75000   0.12624   0.83333   0.00000  Uiso   1.00
N1342  N     0.75000   0.37377   0.83333   0.00000  Uiso   1.00
O1343  O     0.68453   0.28974   0.83334   0.00000  Uiso   1.00
O1344  O     0.97911   0.16802   0.84910   0.00000  Uiso   1.00
O1345  O     0.97256   0.33432   0.89271   0.00000  Uiso   1.00
O1346  O     0.53654   0.19130   0.92786   0.00000  Uiso   1.00
O1347  O     0.60832   0.32911   0.80682   0.00000  Uiso   1.00
O1348  O     0.88805   0.16388   0.84363   0.00000  Uiso   1.00
O1349  O     0.88448   0.33624   0.85431   0.00000  Uiso   1.00
O1350  O     0.62018   0.17491   0.88743   0.00000  Uiso   1.00
O1351  O     0.81547   0.21026   0.83333   0.00000  Uiso   1.00
O1352  O     0.81547   0.28974   0.83333   0.00000  Uiso   1.00
O1353  O     0.68453   0.21026   0.83334   0.00000  Uiso   1.00
O1354  O     0.75000   0.28973   0.76178   0.00000  Uiso   1.00
O1355  O     0.75000   0.21027   0.90489   0.00000  Uiso   1.00
O1356  O     0.75000   0.28973   0.90489   0.00000  Uiso   1.00
O1357  O     0.75000   0.21027   0.76178   0.00000  Uiso   1.00
O1358  O     0.51640   0.31904   0.80872   0.00000  Uiso   1.00
Zn1359 Zn    0.75000   0.30307   0.83333   0.00000  Uiso   1.00
Zn1360 Zn    0.75000   0.19693   0.83333   0.00000  Uiso   1.00
C1361  C     0.16351   0.75005   0.83472   0.00000  Uiso   1.00
C1362  C     0.23534   0.94748   0.79149   0.00000  Uiso   1.00
C1363  C     0.24987   0.74995   0.73947   0.00000  Uiso   1.00
C1364  C     0.24995   0.75005   0.92720   0.00000  Uiso   1.00
C1365  C     0.25045   0.52660   0.83342   0.00000  Uiso   1.00
C1366  C     0.25041   0.97335   0.83336   0.00000  Uiso   1.00
C1367  C     0.24981   0.74992   0.68843   0.00000  Uiso   1.00
C1368  C     0.24984   0.75006   0.97823   0.00000  Uiso   1.00
C1369  C     0.04327   0.78753   0.83460   0.00000  Uiso   1.00
C1370  C     0.45466   0.70868   0.85822   0.00000  Uiso   1.00
C1371  C     0.45055   0.79282   0.87885   0.00000  Uiso   1.00
C1372  C     0.33657   0.75004   0.83605   0.00000  Uiso   1.00
C1373  C     0.05256   0.72062   0.89070   0.00000  Uiso   1.00
C1374  C     0.08950   0.78983   0.82930   0.00000  Uiso   1.00
C1375  C     0.40834   0.70725   0.85243   0.00000  Uiso   1.00
C1376  C     0.40637   0.79342   0.86020   0.00000  Uiso   1.00
C1377  C     0.09585   0.71418   0.87247   0.00000  Uiso   1.00
C1378  C     0.11552   0.75061   0.84404   0.00000  Uiso   1.00
C1379  C     0.38449   0.75024   0.84863   0.00000  Uiso   1.00
C1380  C     0.02474   0.75452   0.86785   0.00000  Uiso   1.00
C1381  C     0.47587   0.75133   0.87189   0.00000  Uiso   1.00
C1382  C     0.00812   0.80204   0.75976   0.00000  Uiso   1.00
C1383  C     0.26181   0.60204   0.79131   0.00000  Uiso   1.00
C1384  C     0.02698   0.83689   0.72174   0.00000  Uiso   1.00
C1385  C     0.00395   0.88498   0.72510   0.00000  Uiso   1.00
C1386  C     0.48811   0.66390   0.79742   0.00000  Uiso   1.00
C1387  C     0.47423   0.61469   0.77914   0.00000  Uiso   1.00
C1388  C     0.48733   0.60686   0.72476   0.00000  Uiso   1.00
C1389  C     0.45008   0.85932   0.93098   0.00000  Uiso   1.00
C1390  C     0.45204   0.91227   0.91926   0.00000  Uiso   1.00
C1391  C     0.42462   0.94164   0.95585   0.00000  Uiso   1.00
C1392  C     0.04515   0.71249   0.97505   0.00000  Uiso   1.00
C1393  C     0.09226   0.69972   0.99459   0.00000  Uiso   1.00
C1394  C     0.26504   0.89789   0.87432   0.00000  Uiso   1.00
C1395  C     0.10029   0.71751   0.71432   0.00000  Uiso   1.00
C1396  C     0.11976   0.86306   0.84404   0.00000  Uiso   1.00
C1397  C     0.08238   0.89958   0.85113   0.00000  Uiso   1.00
C1398  C     0.09638   0.93749   0.88885   0.00000  Uiso   1.00
C1399  C     0.37226   0.64495   0.88921   0.00000  Uiso   1.00
C1400  C     0.40787   0.61355   0.91406   0.00000  Uiso   1.00
C1401  C     0.38853   0.58683   0.95841   0.00000  Uiso   1.00
C1402  C     0.39642   0.85590   0.80784   0.00000  Uiso   1.00
C1403  C     0.36646   0.89869   0.79768   0.00000  Uiso   1.00
C1404  C     0.38053   0.92501   0.75077   0.00000  Uiso   1.00
C1405  C     0.23870   0.60222   0.87550   0.00000  Uiso   1.00
C1406  C     0.11631   0.63874   0.85085   0.00000  Uiso   1.00
C1407  C     0.08440   0.59995   0.86847   0.00000  Uiso   1.00
C1408  C     0.08320   0.55871   0.83155   0.00000  Uiso   1.00
C1409  C     0.23529   0.89777   0.79230   0.00000  Uiso   1.00
C1410  C     0.26206   0.55231   0.79049   0.00000  Uiso   1.00
C1411  C     0.26538   0.94762   0.87518   0.00000  Uiso   1.00
C1412  C     0.23878   0.55250   0.87636   0.00000  Uiso   1.00
H1413  H     0.27126   0.62124   0.75818   0.00000  Uiso   1.00
H1414  H     0.02194   0.76614   0.75189   0.00000  Uiso   1.00
H1415  H     0.06359   0.84149   0.72763   0.00000  Uiso   1.00
H1416  H     0.02210   0.82215   0.68373   0.00000  Uiso   1.00
H1417  H     0.46730   0.88074   0.71915   0.00000  Uiso   1.00
H1418  H     0.01743   0.90884   0.69597   0.00000  Uiso   1.00
H1419  H     0.00985   0.90142   0.76223   0.00000  Uiso   1.00
H1420  H     0.02478   0.66802   0.79250   0.00000  Uiso   1.00
H1421  H     0.47125   0.69101   0.77344   0.00000  Uiso   1.00
H1422  H     0.49059   0.58735   0.80270   0.00000  Uiso   1.00
H1423  H     0.43731   0.61053   0.78258   0.00000  Uiso   1.00
H1424  H     0.27715   0.87861   0.90649   0.00000  Uiso   1.00
H1425  H     0.46938   0.63232   0.70026   0.00000  Uiso   1.00
H1426  H     0.47802   0.57039   0.71314   0.00000  Uiso   1.00
H1427  H     0.02411   0.61138   0.72013   0.00000  Uiso   1.00
H1428  H     0.46807   0.85294   0.96647   0.00000  Uiso   1.00
H1429  H     0.41472   0.84828   0.93733   0.00000  Uiso   1.00
H1430  H     0.48754   0.92437   0.92049   0.00000  Uiso   1.00
H1431  H     0.43888   0.91859   0.88104   0.00000  Uiso   1.00
H1432  H     0.38908   0.92974   0.95578   0.00000  Uiso   1.00
H1433  H     0.42563   0.97938   0.94460   0.00000  Uiso   1.00
H1434  H     0.43886   0.93869   0.99402   0.00000  Uiso   1.00
H1435  H     0.22919   0.62154   0.90866   0.00000  Uiso   1.00
H1436  H     0.01995   0.69853   0.66822   0.00000  Uiso   1.00
H1437  H     0.04061   0.75164   0.97462   0.00000  Uiso   1.00
H1438  H     0.09660   0.66067   0.99363   0.00000  Uiso   1.00
H1439  H     0.11817   0.71620   0.97074   0.00000  Uiso   1.00
H1440  H     0.09796   0.75669   0.71566   0.00000  Uiso   1.00
H1441  H     0.13440   0.70701   0.72705   0.00000  Uiso   1.00
H1442  H     0.07546   0.70190   0.73998   0.00000  Uiso   1.00
H1443  H     0.15011   0.88204   0.83118   0.00000  Uiso   1.00
H1444  H     0.12890   0.84697   0.88079   0.00000  Uiso   1.00
H1445  H     0.07459   0.91667   0.81483   0.00000  Uiso   1.00
H1446  H     0.22318   0.87839   0.76005   0.00000  Uiso   1.00
H1447  H     0.05170   0.88203   0.86516   0.00000  Uiso   1.00
H1448  H     0.10486   0.92108   0.92534   0.00000  Uiso   1.00
H1449  H     0.06822   0.96254   0.89459   0.00000  Uiso   1.00
H1450  H     0.12593   0.95742   0.87506   0.00000  Uiso   1.00
H1451  H     0.34250   0.62272   0.88019   0.00000  Uiso   1.00
H1452  H     0.36047   0.67260   0.91596   0.00000  Uiso   1.00
H1453  H     0.42086   0.58764   0.88641   0.00000  Uiso   1.00
H1454  H     0.43623   0.63573   0.92764   0.00000  Uiso   1.00
H1455  H     0.37556   0.61211   0.98668   0.00000  Uiso   1.00
H1456  H     0.41522   0.56505   0.97603   0.00000  Uiso   1.00
H1457  H     0.27195   0.53417   0.75667   0.00000  Uiso   1.00
H1458  H     0.36091   0.56306   0.94592   0.00000  Uiso   1.00
H1459  H     0.39149   0.82992   0.77681   0.00000  Uiso   1.00
H1460  H     0.43211   0.86749   0.80868   0.00000  Uiso   1.00
H1461  H     0.33139   0.88637   0.79272   0.00000  Uiso   1.00
H1462  H     0.36777   0.92341   0.83002   0.00000  Uiso   1.00
H1463  H     0.41479   0.93987   0.75569   0.00000  Uiso   1.00
H1464  H     0.35688   0.95460   0.74364   0.00000  Uiso   1.00
H1465  H     0.37985   0.90075   0.71808   0.00000  Uiso   1.00
H1466  H     0.15002   0.62284   0.84597   0.00000  Uiso   1.00
H1467  H     0.10576   0.65159   0.81314   0.00000  Uiso   1.00
H1468  H     0.27797   0.96574   0.90808   0.00000  Uiso   1.00
H1469  H     0.09554   0.58683   0.90561   0.00000  Uiso   1.00
H1470  H     0.05007   0.61454   0.87220   0.00000  Uiso   1.00
H1471  H     0.07421   0.57138   0.79358   0.00000  Uiso   1.00
H1472  H     0.05760   0.53260   0.84336   0.00000  Uiso   1.00
H1473  H     0.11646   0.54104   0.83026   0.00000  Uiso   1.00
H1474  H     0.22905   0.53451   0.91021   0.00000  Uiso   1.00
H1475  H     0.22296   0.96549   0.75857   0.00000  Uiso   1.00
H1476  H     0.47126   0.79894   0.75420   0.00000  Uiso   1.00
N1477  N     0.25000   0.62624   0.83333   0.00000  Uiso   1.00
N1478  N     0.25000   0.87377   0.83333   0.00000  Uiso   1.00
O1479  O     0.18453   0.78974   0.83334   0.00000  Uiso   1.00
O1480  O     0.47911   0.66802   0.84910   0.00000  Uiso   1.00
O1481  O     0.47256   0.83432   0.89271   0.00000  Uiso   1.00
O1482  O     0.03654   0.69130   0.92786   0.00000  Uiso   1.00
O1483  O     0.10832   0.82911   0.80682   0.00000  Uiso   1.00
O1484  O     0.38805   0.66388   0.84363   0.00000  Uiso   1.00
O1485  O     0.38448   0.83624   0.85431   0.00000  Uiso   1.00
O1486  O     0.12018   0.67491   0.88743   0.00000  Uiso   1.00
O1487  O     0.31547   0.71026   0.83333   0.00000  Uiso   1.00
O1488  O     0.31547   0.78974   0.83333   0.00000  Uiso   1.00
O1489  O     0.18453   0.71026   0.83334   0.00000  Uiso   1.00
O1490  O     0.25000   0.78973   0.76178   0.00000  Uiso   1.00
O1491  O     0.25000   0.71027   0.90489   0.00000  Uiso   1.00
O1492  O     0.25000   0.78973   0.90489   0.00000  Uiso   1.00
O1493  O     0.25000   0.71027   0.76178   0.00000  Uiso   1.00
O1494  O     0.01640   0.81904   0.80872   0.00000  Uiso   1.00
Zn1495 Zn    0.25000   0.80307   0.83333   0.00000  Uiso   1.00
Zn1496 Zn    0.25000   0.69693   0.83333   0.00000  Uiso   1.00
C1497  C     0.66351   0.75005   0.83472   0.00000  Uiso   1.00
C1498  C     0.73534   0.94748   0.79149   0.00000  Uiso   1.00
C1499  C     0.74987   0.74995   0.73947   0.00000  Uiso   1.00
C1500  C     0.74995   0.75005   0.92720   0.00000  Uiso   1.00
C1501  C     0.75045   0.52660   0.83342   0.00000  Uiso   1.00
C1502  C     0.75041   0.97335   0.83336   0.00000  Uiso   1.00
C1503  C     0.74981   0.74992   0.68843   0.00000  Uiso   1.00
C1504  C     0.74984   0.75006   0.97823   0.00000  Uiso   1.00
C1505  C     0.54327   0.78753   0.83460   0.00000  Uiso   1.00
C1506  C     0.95466   0.70868   0.85822   0.00000  Uiso   1.00
C1507  C     0.95055   0.79282   0.87885   0.00000  Uiso   1.00
C1508  C     0.83657   0.75004   0.83605   0.00000  Uiso   1.00
C1509  C     0.55256   0.72062   0.89070   0.00000  Uiso   1.00
C1510  C     0.58950   0.78983   0.82930   0.00000  Uiso   1.00
C1511  C     0.90834   0.70725   0.85243   0.00000  Uiso   1.00
C1512  C     0.90637   0.79342   0.86020   0.00000  Uiso   1.00
C1513  C     0.59585   0.71418   0.87247   0.00000  Uiso   1.00
C1514  C     0.61552   0.75061   0.84404   0.00000  Uiso   1.00
C1515  C     0.88449   0.75024   0.84863   0.00000  Uiso   1.00
C1516  C     0.52474   0.75452   0.86785   0.00000  Uiso   1.00
C1517  C     0.97587   0.75133   0.87189   0.00000  Uiso   1.00
C1518  C     0.50812   0.80204   0.75976   0.00000  Uiso   1.00
C1519  C     0.76181   0.60204   0.79131   0.00000  Uiso   1.00
C1520  C     0.52698   0.83689   0.72174   0.00000  Uiso   1.00
C1521  C     0.50395   0.88498   0.72510   0.00000  Uiso   1.00
C1522  C     0.98811   0.66390   0.79742   0.00000  Uiso   1.00
C1523  C     0.97423   0.61469   0.77914   0.00000  Uiso   1.00
C1524  C     0.98733   0.60686   0.72476   0.00000  Uiso   1.00
C1525  C     0.95008   0.85932   0.93098   0.00000  Uiso   1.00
C1526  C     0.95204   0.91227   0.91926   0.00000  Uiso   1.00
C1527  C     0.92462   0.94164   0.95585   0.00000  Uiso   1.00
C1528  C     0.54515   0.71249   0.97505   0.00000  Uiso   1.00
C1529  C     0.59226   0.69972   0.99459   0.00000  Uiso   1.00
C1530  C     0.76504   0.89789   0.87432   0.00000  Uiso   1.00
C1531  C     0.60029   0.71751   0.71432   0.00000  Uiso   1.00
C1532  C     0.61976   0.86306   0.84404   0.00000  Uiso   1.00
C1533  C     0.58238   0.89958   0.85113   0.00000  Uiso   1.00
C1534  C     0.59638   0.93749   0.88885   0.00000  Uiso   1.00
C1535  C     0.87226   0.64495   0.88921   0.00000  Uiso   1.00
C1536  C     0.90787   0.61355   0.91406   0.00000  Uiso   1.00
C1537  C     0.88853   0.58683   0.95841   0.00000  Uiso   1.00
C1538  C     0.89642   0.85590   0.80784   0.00000  Uiso   1.00
C1539  C     0.86646   0.89869   0.79768   0.00000  Uiso   1.00
C1540  C     0.88053   0.92501   0.75077   0.00000  Uiso   1.00
C1541  C     0.73870   0.60222   0.87550   0.00000  Uiso   1.00
C1542  C     0.61631   0.63874   0.85085   0.00000  Uiso   1.00
C1543  C     0.58440   0.59995   0.86847   0.00000  Uiso   1.00
C1544  C     0.58320   0.55871   0.83155   0.00000  Uiso   1.00
C1545  C     0.73529   0.89777   0.79230   0.00000  Uiso   1.00
C1546  C     0.76206   0.55231   0.79049   0.00000  Uiso   1.00
C1547  C     0.76538   0.94762   0.87518   0.00000  Uiso   1.00
C1548  C     0.73878   0.55250   0.87636   0.00000  Uiso   1.00
H1549  H     0.77126   0.62124   0.75818   0.00000  Uiso   1.00
H1550  H     0.52194   0.76614   0.75189   0.00000  Uiso   1.00
H1551  H     0.56359   0.84149   0.72763   0.00000  Uiso   1.00
H1552  H     0.52210   0.82215   0.68373   0.00000  Uiso   1.00
H1553  H     0.96730   0.88074   0.71915   0.00000  Uiso   1.00
H1554  H     0.51743   0.90884   0.69597   0.00000  Uiso   1.00
H1555  H     0.50985   0.90142   0.76223   0.00000  Uiso   1.00
H1556  H     0.52478   0.66802   0.79250   0.00000  Uiso   1.00
H1557  H     0.97125   0.69101   0.77344   0.00000  Uiso   1.00
H1558  H     0.99059   0.58735   0.80270   0.00000  Uiso   1.00
H1559  H     0.93731   0.61053   0.78258   0.00000  Uiso   1.00
H1560  H     0.77715   0.87861   0.90649   0.00000  Uiso   1.00
H1561  H     0.96938   0.63232   0.70026   0.00000  Uiso   1.00
H1562  H     0.97802   0.57039   0.71314   0.00000  Uiso   1.00
H1563  H     0.52411   0.61138   0.72013   0.00000  Uiso   1.00
H1564  H     0.96807   0.85294   0.96647   0.00000  Uiso   1.00
H1565  H     0.91472   0.84828   0.93733   0.00000  Uiso   1.00
H1566  H     0.98754   0.92437   0.92049   0.00000  Uiso   1.00
H1567  H     0.93888   0.91859   0.88104   0.00000  Uiso   1.00
H1568  H     0.88908   0.92974   0.95578   0.00000  Uiso   1.00
H1569  H     0.92563   0.97938   0.94460   0.00000  Uiso   1.00
H1570  H     0.93886   0.93869   0.99402   0.00000  Uiso   1.00
H1571  H     0.72919   0.62154   0.90866   0.00000  Uiso   1.00
H1572  H     0.51995   0.69853   0.66822   0.00000  Uiso   1.00
H1573  H     0.54061   0.75164   0.97462   0.00000  Uiso   1.00
H1574  H     0.59660   0.66067   0.99363   0.00000  Uiso   1.00
H1575  H     0.61817   0.71620   0.97074   0.00000  Uiso   1.00
H1576  H     0.59796   0.75669   0.71566   0.00000  Uiso   1.00
H1577  H     0.63440   0.70701   0.72705   0.00000  Uiso   1.00
H1578  H     0.57546   0.70190   0.73998   0.00000  Uiso   1.00
H1579  H     0.65011   0.88204   0.83118   0.00000  Uiso   1.00
H1580  H     0.62890   0.84697   0.88079   0.00000  Uiso   1.00
H1581  H     0.57459   0.91667   0.81483   0.00000  Uiso   1.00
H1582  H     0.72318   0.87839   0.76005   0.00000  Uiso   1.00
H1583  H     0.55170   0.88203   0.86516   0.00000  Uiso   1.00
H1584  H     0.60486   0.92108   0.92534   0.00000  Uiso   1.00
H1585  H     0.56822   0.96254   0.89459   0.00000  Uiso   1.00
H1586  H     0.62593   0.95742   0.87506   0.00000  Uiso   1.00
H1587  H     0.84250   0.62272   0.88019   0.00000  Uiso   1.00
H1588  H     0.86047   0.67260   0.91596   0.00000  Uiso   1.00
H1589  H     0.92086   0.58764   0.88641   0.00000  Uiso   1.00
H1590  H     0.93623   0.63573   0.92764   0.00000  Uiso   1.00
H1591  H     0.87556   0.61211   0.98668   0.00000  Uiso   1.00
H1592  H     0.91522   0.56505   0.97603   0.00000  Uiso   1.00
H1593  H     0.77195   0.53417   0.75667   0.00000  Uiso   1.00
H1594  H     0.86091   0.56306   0.94592   0.00000  Uiso   1.00
H1595  H     0.89149   0.82992   0.77681   0.00000  Uiso   1.00
H1596  H     0.93211   0.86749   0.80868   0.00000  Uiso   1.00
H1597  H     0.83139   0.88637   0.79272   0.00000  Uiso   1.00
H1598  H     0.86777   0.92341   0.83002   0.00000  Uiso   1.00
H1599  H     0.91479   0.93987   0.75569   0.00000  Uiso   1.00
H1600  H     0.85688   0.95460   0.74364   0.00000  Uiso   1.00
H1601  H     0.87985   0.90075   0.71808   0.00000  Uiso   1.00
H1602  H     0.65002   0.62284   0.84597   0.00000  Uiso   1.00
H1603  H     0.60576   0.65159   0.81314   0.00000  Uiso   1.00
H1604  H     0.77797   0.96574   0.90808   0.00000  Uiso   1.00
H1605  H     0.59554   0.58683   0.90561   0.00000  Uiso   1.00
H1606  H     0.55007   0.61454   0.87220   0.00000  Uiso   1.00
H1607  H     0.57421   0.57138   0.79358   0.00000  Uiso   1.00
H1608  H     0.55760   0.53260   0.84336   0.00000  Uiso   1.00
H1609  H     0.61646   0.54104   0.83026   0.00000  Uiso   1.00
H1610  H     0.72905   0.53451   0.91021   0.00000  Uiso   1.00
H1611  H     0.72296   0.96549   0.75857   0.00000  Uiso   1.00
H1612  H     0.97126   0.79894   0.75420   0.00000  Uiso   1.00
N1613  N     0.75000   0.62624   0.83333   0.00000  Uiso   1.00
N1614  N     0.75000   0.87377   0.83333   0.00000  Uiso   1.00
O1615  O     0.68453   0.78974   0.83334   0.00000  Uiso   1.00
O1616  O     0.97911   0.66802   0.84910   0.00000  Uiso   1.00
O1617  O     0.97256   0.83432   0.89271   0.00000  Uiso   1.00
O1618  O     0.53654   0.69130   0.92786   0.00000  Uiso   1.00
O1619  O     0.60832   0.82911   0.80682   0.00000  Uiso   1.00
O1620  O     0.88805   0.66388   0.84363   0.00000  Uiso   1.00
O1621  O     0.88448   0.83624   0.85431   0.00000  Uiso   1.00
O1622  O     0.62018   0.67491   0.88743   0.00000  Uiso   1.00
O1623  O     0.81547   0.71026   0.83333   0.00000  Uiso   1.00
O1624  O     0.81547   0.78974   0.83333   0.00000  Uiso   1.00
O1625  O     0.68453   0.71026   0.83334   0.00000  Uiso   1.00
O1626  O     0.75000   0.78973   0.76178   0.00000  Uiso   1.00
O1627  O     0.75000   0.71027   0.90489   0.00000  Uiso   1.00
O1628  O     0.75000   0.78973   0.90489   0.00000  Uiso   1.00
O1629  O     0.75000   0.71027   0.76178   0.00000  Uiso   1.00
O1630  O     0.51640   0.81904   0.80872   0.00000  Uiso   1.00
Zn1631 Zn    0.75000   0.80307   0.83333   0.00000  Uiso   1.00
Zn1632 Zn    0.75000   0.69693   0.83333   0.00000  Uiso   1.00
loop_
_geom_bond_atom_site_label_1
_geom_bond_atom_site_label_2
_geom_bond_distance
_geom_bond_site_symmetry_2
_ccdc_geom_bond_type
C1     O119    1.285   .     A
C1     C18     1.454   .     S
C1     O129    1.288   .     A
C2     C6      1.408   .     A
C2     C49     1.405   .     A
C2     H115    1.082   .     S
C3     O130    1.272   .     A
C3     C7      1.367   .     S
C3     O133    1.273   .     A
C4     C8      1.367   .     S
C4     O131    1.272   .     A
C4     O132    1.273   .     A
C5     C52     1.408   .     A
C5     C50     1.408   .     A
C5     C278    1.505   1_545 S
C6     C51     1.408   .     A
C6     C277    1.505   .     S
C7     C1096   1.166   1_554 S
C8     C551    1.166   .     S
C9     O134    1.383   .     S
C9     C14     1.388   .     A
C9     C20     1.407   .     A
C10    C15     1.388   .     A
C10    C21     1.407   .     A
C10    O120    1.383   .     S
C11    O121    1.391   .     S
C11    C21     1.408   .     A
C11    C16     1.405   .     A
C12    O127    1.289   .     A
C12    O128    1.289   .     A
C12    C19     1.465   .     S
C13    C20     1.406   .     A
C13    C17     1.395   .     A
C13    O122    1.385   .     S
C14    C18     1.409   .     A
C14    O123    1.385   .     S
C15    C19     1.412   .     A
C15    O124    1.385   .     S
C16    C19     1.416   .     A
C16    O125    1.384   .     S
C17    C18     1.412   .     A
C17    O126    1.385   .     S
C20    C157    1.464   1_455 S
C21    C156    1.464   .     S
C22    H54     1.115   .     S
C22    O134    1.416   .     S
C22    C24     1.529   .     S
C22    H252    1.111   1_455 S
C23    H53     1.081   .     S
C23    N117    1.364   .     A
C23    C50     1.406   .     A
C24    H55     1.109   .     S
C24    C25     1.526   .     S
C24    H56     1.108   .     S
C25    H58     1.110   .     S
C25    H59     1.109   .     S
C25    H193    1.109   1_455 S
C26    H61     1.119   .     S
C26    O120    1.417   .     S
C26    C27     1.529   .     S
C26    H196    1.107   .     S
C27    H62     1.111   .     S
C27    H63     1.111   .     S
C27    C28     1.526   .     S
C28    H66     1.110   .     S
C28    H65     1.111   .     S
C28    H203    1.111   .     S
C29    C30     1.531   .     S
C29    O121    1.416   .     S
C29    H69     1.113   .     S
C29    H68     1.103   .     S
C30    H71     1.109   .     S
C30    C31     1.525   .     S
C30    H70     1.112   .     S
C31    H73     1.110   .     S
C31    H74     1.108   .     S
C31    H72     1.111   .     S
C32    H77     1.115   .     S
C32    O122    1.419   .     S
C32    C33     1.539   .     S
C32    H620    1.110   .     S
C33    H78     1.112   .     S
C33    H79     1.109   .     S
C33    C579    1.524   .     S
C34    N118    1.364   .     A
C34    C51     1.406   .     A
C34    H64     1.081   .     S
C35    H81     1.111   .     S
C35    H80     1.110   .     S
C35    H82     1.106   .     S
C35    C1121   1.524   1_554 S
C36    C37     1.532   .     S
C36    H83     1.109   .     S
C36    O123    1.421   .     S
C36    H84     1.118   .     S
C37    H85     1.110   .     S
C37    C38     1.526   .     S
C37    H87     1.108   .     S
C38    H89     1.110   .     S
C38    H88     1.111   .     S
C38    H90     1.111   .     S
C39    H91     1.111   .     S
C39    C40     1.534   .     S
C39    O124    1.418   .     S
C39    H92     1.117   .     S
C40    H93     1.112   .     S
C40    C41     1.526   .     S
C40    H94     1.110   .     S
C41    H96     1.110   .     S
C41    H95     1.111   .     S
C41    H98     1.111   .     S
C42    O125    1.413   .     S
C42    H100    1.113   .     S
C42    H99     1.116   .     S
C42    C43     1.528   .     S
C43    C44     1.524   .     S
C43    H101    1.108   .     S
C43    H102    1.112   .     S
C44    H105    1.111   .     S
C44    H103    1.111   .     S
C44    H104    1.111   .     S
C45    C52     1.406   .     A
C45    N117    1.364   .     A
C45    H75     1.081   .     S
C46    O126    1.418   .     S
C46    H107    1.118   .     S
C46    C47     1.529   .     S
C46    H106    1.109   .     S
C47    H109    1.112   .     S
C47    C48     1.526   .     S
C47    H110    1.108   .     S
C48    H112    1.109   .     S
C48    H111    1.111   .     S
C48    H113    1.111   .     S
C49    N118    1.364   .     A
C49    H86     1.081   .     S
C50    H97     1.083   .     S
C51    H108    1.083   .     S
C52    H114    1.083   .     S
H57    C161    1.109   .     S
H60    C162    1.107   1_455 S
H67    C164    1.111   1_455 S
H76    C1120   1.110   1_554 S
H116   C158    1.111   .     S
N117   Zn136   1.998   .     S
N118   Zn135   1.998   .     S
O119   Zn135   1.987   .     S
O127   Zn136   1.987   .     S
O128   Zn135   1.987   .     S
O129   Zn136   1.987   .     S
O130   Zn135   1.953   .     S
O131   Zn136   1.953   .     S
O132   Zn135   1.955   .     S
O133   Zn136   1.955   .     S
C137   O255    1.285   .     A
C137   C154    1.454   .     S
C137   O265    1.288   .     A
C138   C142    1.408   .     A
C138   C185    1.405   .     A
C138   H251    1.082   .     S
C139   O266    1.272   .     A
C139   C143    1.367   .     S
C139   O269    1.273   .     A
C140   C144    1.367   .     S
C140   O267    1.272   .     A
C140   O268    1.273   .     A
C141   C188    1.408   .     A
C141   C186    1.408   .     A
C141   C414    1.505   1_545 S
C142   C187    1.408   .     A
C142   C413    1.505   .     S
C143   C1232   1.166   1_554 S
C144   C687    1.166   .     S
C145   O270    1.383   .     S
C145   C150    1.388   .     A
C145   C156    1.407   .     A
C146   C151    1.388   .     A
C146   C157    1.407   .     A
C146   O256    1.383   .     S
C147   O257    1.391   .     S
C147   C157    1.408   .     A
C147   C152    1.405   .     A
C148   O263    1.289   .     A
C148   O264    1.289   .     A
C148   C155    1.465   .     S
C149   C156    1.406   .     A
C149   C153    1.395   .     A
C149   O258    1.385   .     S
C150   C154    1.409   .     A
C150   O259    1.385   .     S
C151   C155    1.412   .     A
C151   O260    1.385   .     S
C152   C155    1.416   .     A
C152   O261    1.384   .     S
C153   C154    1.412   .     A
C153   O262    1.385   .     S
C157   C20     1.464   1_655 S
C158   H190    1.115   .     S
C158   O270    1.416   .     S
C158   C160    1.529   .     S
C159   H189    1.081   .     S
C159   N253    1.364   .     A
C159   C186    1.406   .     A
C160   H191    1.109   .     S
C160   C161    1.526   .     S
C160   H192    1.108   .     S
C161   H194    1.110   .     S
C161   H195    1.109   .     S
C162   H197    1.119   .     S
C162   O256    1.417   .     S
C162   C163    1.529   .     S
C162   H60     1.107   1_655 S
C163   H198    1.111   .     S
C163   H199    1.111   .     S
C163   C164    1.526   .     S
C164   H202    1.110   .     S
C164   H201    1.111   .     S
C164   H67     1.111   1_655 S
C165   C166    1.531   .     S
C165   O257    1.416   .     S
C165   H205    1.113   .     S
C165   H204    1.103   .     S
C166   H207    1.109   .     S
C166   C167    1.525   .     S
C166   H206    1.112   .     S
C167   H209    1.110   .     S
C167   H210    1.108   .     S
C167   H208    1.111   .     S
C168   H213    1.115   .     S
C168   O258    1.419   .     S
C168   C169    1.539   .     S
C168   H756    1.110   .     S
C169   H214    1.112   .     S
C169   H215    1.109   .     S
C169   C715    1.524   .     S
C170   N254    1.364   .     A
C170   C187    1.406   .     A
C170   H200    1.081   .     S
C171   H217    1.111   .     S
C171   H216    1.110   .     S
C171   H218    1.106   .     S
C171   C1257   1.524   1_554 S
C172   C173    1.532   .     S
C172   H219    1.109   .     S
C172   O259    1.421   .     S
C172   H220    1.118   .     S
C173   H221    1.110   .     S
C173   C174    1.526   .     S
C173   H223    1.108   .     S
C174   H225    1.110   .     S
C174   H224    1.111   .     S
C174   H226    1.111   .     S
C175   H227    1.111   .     S
C175   C176    1.534   .     S
C175   O260    1.418   .     S
C175   H228    1.117   .     S
C176   H229    1.112   .     S
C176   C177    1.526   .     S
C176   H230    1.110   .     S
C177   H232    1.110   .     S
C177   H231    1.111   .     S
C177   H234    1.111   .     S
C178   O261    1.413   .     S
C178   H236    1.113   .     S
C178   H235    1.116   .     S
C178   C179    1.528   .     S
C179   C180    1.524   .     S
C179   H237    1.108   .     S
C179   H238    1.112   .     S
C180   H241    1.111   .     S
C180   H239    1.111   .     S
C180   H240    1.111   .     S
C181   C188    1.406   .     A
C181   N253    1.364   .     A
C181   H211    1.081   .     S
C182   O262    1.418   .     S
C182   H243    1.118   .     S
C182   C183    1.529   .     S
C182   H242    1.109   .     S
C183   H245    1.112   .     S
C183   C184    1.526   .     S
C183   H246    1.108   .     S
C184   H248    1.109   .     S
C184   H247    1.111   .     S
C184   H249    1.111   .     S
C185   N254    1.364   .     A
C185   H222    1.081   .     S
C186   H233    1.083   .     S
C187   H244    1.083   .     S
C188   H250    1.083   .     S
H193   C25     1.109   1_655 S
H212   C1256   1.110   1_554 S
H252   C22     1.111   1_655 S
N253   Zn272   1.998   .     S
N254   Zn271   1.998   .     S
O255   Zn271   1.987   .     S
O263   Zn272   1.987   .     S
O264   Zn271   1.987   .     S
O265   Zn272   1.987   .     S
O266   Zn271   1.953   .     S
O267   Zn272   1.953   .     S
O268   Zn271   1.955   .     S
O269   Zn272   1.955   .     S
C273   O391    1.285   .     A
C273   C290    1.454   .     S
C273   O401    1.288   .     A
C274   C278    1.408   .     A
C274   C321    1.405   .     A
C274   H387    1.082   .     S
C275   O402    1.272   .     A
C275   C279    1.367   .     S
C275   O405    1.273   .     A
C276   C280    1.367   .     S
C276   O403    1.272   .     A
C276   O404    1.273   .     A
C277   C324    1.408   .     A
C277   C322    1.408   .     A
C278   C323    1.408   .     A
C278   C5      1.505   1_565 S
C279   C1368   1.166   1_554 S
C280   C823    1.166   .     S
C281   O406    1.383   .     S
C281   C286    1.388   .     A
C281   C292    1.407   .     A
C282   C287    1.388   .     A
C282   C293    1.407   .     A
C282   O392    1.383   .     S
C283   O393    1.391   .     S
C283   C293    1.408   .     A
C283   C288    1.405   .     A
C284   O399    1.289   .     A
C284   O400    1.289   .     A
C284   C291    1.465   .     S
C285   C292    1.406   .     A
C285   C289    1.395   .     A
C285   O394    1.385   .     S
C286   C290    1.409   .     A
C286   O395    1.385   .     S
C287   C291    1.412   .     A
C287   O396    1.385   .     S
C288   C291    1.416   .     A
C288   O397    1.384   .     S
C289   C290    1.412   .     A
C289   O398    1.385   .     S
C292   C429    1.464   1_455 S
C293   C428    1.464   .     S
C294   H326    1.115   .     S
C294   O406    1.416   .     S
C294   C296    1.529   .     S
C294   H524    1.111   1_455 S
C295   H325    1.081   .     S
C295   N389    1.364   .     A
C295   C322    1.406   .     A
C296   H327    1.109   .     S
C296   C297    1.526   .     S
C296   H328    1.108   .     S
C297   H330    1.110   .     S
C297   H331    1.109   .     S
C297   H465    1.109   1_455 S
C298   H333    1.119   .     S
C298   O392    1.417   .     S
C298   C299    1.529   .     S
C298   H468    1.107   .     S
C299   H334    1.111   .     S
C299   H335    1.111   .     S
C299   C300    1.526   .     S
C300   H338    1.110   .     S
C300   H337    1.111   .     S
C300   H475    1.111   .     S
C301   C302    1.531   .     S
C301   O393    1.416   .     S
C301   H341    1.113   .     S
C301   H340    1.103   .     S
C302   H343    1.109   .     S
C302   C303    1.525   .     S
C302   H342    1.112   .     S
C303   H345    1.110   .     S
C303   H346    1.108   .     S
C303   H344    1.111   .     S
C304   H349    1.115   .     S
C304   O394    1.419   .     S
C304   C305    1.539   .     S
C304   H892    1.110   .     S
C305   H350    1.112   .     S
C305   H351    1.109   .     S
C305   C851    1.524   .     S
C306   N390    1.364   .     A
C306   C323    1.406   .     A
C306   H336    1.081   .     S
C307   H353    1.111   .     S
C307   H352    1.110   .     S
C307   H354    1.106   .     S
C307   C1393   1.524   1_554 S
C308   C309    1.532   .     S
C308   H355    1.109   .     S
C308   O395    1.421   .     S
C308   H356    1.118   .     S
C309   H357    1.110   .     S
C309   C310    1.526   .     S
C309   H359    1.108   .     S
C310   H361    1.110   .     S
C310   H360    1.111   .     S
C310   H362    1.111   .     S
C311   H363    1.111   .     S
C311   C312    1.534   .     S
C311   O396    1.418   .     S
C311   H364    1.117   .     S
C312   H365    1.112   .     S
C312   C313    1.526   .     S
C312   H366    1.110   .     S
C313   H368    1.110   .     S
C313   H367    1.111   .     S
C313   H370    1.111   .     S
C314   O397    1.413   .     S
C314   H372    1.113   .     S
C314   H371    1.116   .     S
C314   C315    1.528   .     S
C315   C316    1.524   .     S
C315   H373    1.108   .     S
C315   H374    1.112   .     S
C316   H377    1.111   .     S
C316   H375    1.111   .     S
C316   H376    1.111   .     S
C317   C324    1.406   .     A
C317   N389    1.364   .     A
C317   H347    1.081   .     S
C318   O398    1.418   .     S
C318   H379    1.118   .     S
C318   C319    1.529   .     S
C318   H378    1.109   .     S
C319   H381    1.112   .     S
C319   C320    1.526   .     S
C319   H382    1.108   .     S
C320   H384    1.109   .     S
C320   H383    1.111   .     S
C320   H385    1.111   .     S
C321   N390    1.364   .     A
C321   H358    1.081   .     S
C322   H369    1.083   .     S
C323   H380    1.083   .     S
C324   H386    1.083   .     S
H329   C433    1.109   .     S
H332   C434    1.107   1_455 S
H339   C436    1.111   1_455 S
H348   C1392   1.110   1_554 S
H388   C430    1.111   .     S
N389   Zn408   1.998   .     S
N390   Zn407   1.998   .     S
O391   Zn407   1.987   .     S
O399   Zn408   1.987   .     S
O400   Zn407   1.987   .     S
O401   Zn408   1.987   .     S
O402   Zn407   1.953   .     S
O403   Zn408   1.953   .     S
O404   Zn407   1.955   .     S
O405   Zn408   1.955   .     S
C409   O527    1.285   .     A
C409   C426    1.454   .     S
C409   O537    1.288   .     A
C410   C414    1.408   .     A
C410   C457    1.405   .     A
C410   H523    1.082   .     S
C411   O538    1.272   .     A
C411   C415    1.367   .     S
C411   O541    1.273   .     A
C412   C416    1.367   .     S
C412   O539    1.272   .     A
C412   O540    1.273   .     A
C413   C460    1.408   .     A
C413   C458    1.408   .     A
C414   C459    1.408   .     A
C414   C141    1.505   1_565 S
C415   C1504   1.166   1_554 S
C416   C959    1.166   .     S
C417   O542    1.383   .     S
C417   C422    1.388   .     A
C417   C428    1.407   .     A
C418   C423    1.388   .     A
C418   C429    1.407   .     A
C418   O528    1.383   .     S
C419   O529    1.391   .     S
C419   C429    1.408   .     A
C419   C424    1.405   .     A
C420   O535    1.289   .     A
C420   O536    1.289   .     A
C420   C427    1.465   .     S
C421   C428    1.406   .     A
C421   C425    1.395   .     A
C421   O530    1.385   .     S
C422   C426    1.409   .     A
C422   O531    1.385   .     S
C423   C427    1.412   .     A
C423   O532    1.385   .     S
C424   C427    1.416   .     A
C424   O533    1.384   .     S
C425   C426    1.412   .     A
C425   O534    1.385   .     S
C429   C292    1.464   1_655 S
C430   H462    1.115   .     S
C430   O542    1.416   .     S
C430   C432    1.529   .     S
C431   H461    1.081   .     S
C431   N525    1.364   .     A
C431   C458    1.406   .     A
C432   H463    1.109   .     S
C432   C433    1.526   .     S
C432   H464    1.108   .     S
C433   H466    1.110   .     S
C433   H467    1.109   .     S
C434   H469    1.119   .     S
C434   O528    1.417   .     S
C434   C435    1.529   .     S
C434   H332    1.107   1_655 S
C435   H470    1.111   .     S
C435   H471    1.111   .     S
C435   C436    1.526   .     S
C436   H474    1.110   .     S
C436   H473    1.111   .     S
C436   H339    1.111   1_655 S
C437   C438    1.531   .     S
C437   O529    1.416   .     S
C437   H477    1.113   .     S
C437   H476    1.103   .     S
C438   H479    1.109   .     S
C438   C439    1.525   .     S
C438   H478    1.112   .     S
C439   H481    1.110   .     S
C439   H482    1.108   .     S
C439   H480    1.111   .     S
C440   H485    1.115   .     S
C440   O530    1.419   .     S
C440   C441    1.539   .     S
C440   H1028   1.110   .     S
C441   H486    1.112   .     S
C441   H487    1.109   .     S
C441   C987    1.524   .     S
C442   N526    1.364   .     A
C442   C459    1.406   .     A
C442   H472    1.081   .     S
C443   H489    1.111   .     S
C443   H488    1.110   .     S
C443   H490    1.106   .     S
C443   C1529   1.524   1_554 S
C444   C445    1.532   .     S
C444   H491    1.109   .     S
C444   O531    1.421   .     S
C444   H492    1.118   .     S
C445   H493    1.110   .     S
C445   C446    1.526   .     S
C445   H495    1.108   .     S
C446   H497    1.110   .     S
C446   H496    1.111   .     S
C446   H498    1.111   .     S
C447   H499    1.111   .     S
C447   C448    1.534   .     S
C447   O532    1.418   .     S
C447   H500    1.117   .     S
C448   H501    1.112   .     S
C448   C449    1.526   .     S
C448   H502    1.110   .     S
C449   H504    1.110   .     S
C449   H503    1.111   .     S
C449   H506    1.111   .     S
C450   O533    1.413   .     S
C450   H508    1.113   .     S
C450   H507    1.116   .     S
C450   C451    1.528   .     S
C451   C452    1.524   .     S
C451   H509    1.108   .     S
C451   H510    1.112   .     S
C452   H513    1.111   .     S
C452   H511    1.111   .     S
C452   H512    1.111   .     S
C453   C460    1.406   .     A
C453   N525    1.364   .     A
C453   H483    1.081   .     S
C454   O534    1.418   .     S
C454   H515    1.118   .     S
C454   C455    1.529   .     S
C454   H514    1.109   .     S
C455   H517    1.112   .     S
C455   C456    1.526   .     S
C455   H518    1.108   .     S
C456   H520    1.109   .     S
C456   H519    1.111   .     S
C456   H521    1.111   .     S
C457   N526    1.364   .     A
C457   H494    1.081   .     S
C458   H505    1.083   .     S
C459   H516    1.083   .     S
C460   H522    1.083   .     S
H465   C297    1.109   1_655 S
H484   C1528   1.110   1_554 S
H524   C294    1.111   1_655 S
N525   Zn544   1.998   .     S
N526   Zn543   1.998   .     S
O527   Zn543   1.987   .     S
O535   Zn544   1.987   .     S
O536   Zn543   1.987   .     S
O537   Zn544   1.987   .     S
O538   Zn543   1.953   .     S
O539   Zn544   1.953   .     S
O540   Zn543   1.955   .     S
O541   Zn544   1.955   .     S
C545   O663    1.285   .     A
C545   C562    1.454   .     S
C545   O673    1.288   .     A
C546   C550    1.408   .     A
C546   C593    1.405   .     A
C546   H659    1.082   .     S
C547   O674    1.272   .     A
C547   C551    1.367   .     S
C547   O677    1.273   .     A
C548   C552    1.367   .     S
C548   O675    1.272   .     A
C548   O676    1.273   .     A
C549   C596    1.408   .     A
C549   C594    1.408   .     A
C549   C822    1.505   1_545 S
C550   C595    1.408   .     A
C550   C821    1.505   .     S
C552   C1095   1.166   .     S
C553   O678    1.383   .     S
C553   C558    1.388   .     A
C553   C564    1.407   .     A
C554   C559    1.388   .     A
C554   C565    1.407   .     A
C554   O664    1.383   .     S
C555   O665    1.391   .     S
C555   C565    1.408   .     A
C555   C560    1.405   .     A
C556   O671    1.289   .     A
C556   O672    1.289   .     A
C556   C563    1.465   .     S
C557   C564    1.406   .     A
C557   C561    1.395   .     A
C557   O666    1.385   .     S
C558   C562    1.409   .     A
C558   O667    1.385   .     S
C559   C563    1.412   .     A
C559   O668    1.385   .     S
C560   C563    1.416   .     A
C560   O669    1.384   .     S
C561   C562    1.412   .     A
C561   O670    1.385   .     S
C564   C701    1.464   1_455 S
C565   C700    1.464   .     S
C566   H598    1.115   .     S
C566   O678    1.416   .     S
C566   C568    1.529   .     S
C566   H796    1.111   1_455 S
C567   H597    1.081   .     S
C567   N661    1.364   .     A
C567   C594    1.406   .     A
C568   H599    1.109   .     S
C568   C569    1.526   .     S
C568   H600    1.108   .     S
C569   H602    1.110   .     S
C569   H603    1.109   .     S
C569   H737    1.109   1_455 S
C570   H605    1.119   .     S
C570   O664    1.417   .     S
C570   C571    1.529   .     S
C570   H740    1.107   .     S
C571   H606    1.111   .     S
C571   H607    1.111   .     S
C571   C572    1.526   .     S
C572   H610    1.110   .     S
C572   H609    1.111   .     S
C572   H747    1.111   .     S
C573   C574    1.531   .     S
C573   O665    1.416   .     S
C573   H613    1.113   .     S
C573   H612    1.103   .     S
C574   H615    1.109   .     S
C574   C575    1.525   .     S
C574   H614    1.112   .     S
C575   H617    1.110   .     S
C575   H618    1.108   .     S
C575   H616    1.111   .     S
C576   H621    1.115   .     S
C576   O666    1.419   .     S
C576   C577    1.539   .     S
C576   H1164   1.110   .     S
C577   H622    1.112   .     S
C577   H623    1.109   .     S
C577   C1123   1.524   .     S
C578   N662    1.364   .     A
C578   C595    1.406   .     A
C578   H608    1.081   .     S
C579   H625    1.111   .     S
C579   H624    1.110   .     S
C579   H626    1.106   .     S
C580   C581    1.532   .     S
C580   H627    1.109   .     S
C580   O667    1.421   .     S
C580   H628    1.118   .     S
C581   H629    1.110   .     S
C581   C582    1.526   .     S
C581   H631    1.108   .     S
C582   H633    1.110   .     S
C582   H632    1.111   .     S
C582   H634    1.111   .     S
C583   H635    1.111   .     S
C583   C584    1.534   .     S
C583   O668    1.418   .     S
C583   H636    1.117   .     S
C584   H637    1.112   .     S
C584   C585    1.526   .     S
C584   H638    1.110   .     S
C585   H640    1.110   .     S
C585   H639    1.111   .     S
C585   H642    1.111   .     S
C586   O669    1.413   .     S
C586   H644    1.113   .     S
C586   H643    1.116   .     S
C586   C587    1.528   .     S
C587   C588    1.524   .     S
C587   H645    1.108   .     S
C587   H646    1.112   .     S
C588   H649    1.111   .     S
C588   H647    1.111   .     S
C588   H648    1.111   .     S
C589   C596    1.406   .     A
C589   N661    1.364   .     A
C589   H619    1.081   .     S
C590   O670    1.418   .     S
C590   H651    1.118   .     S
C590   C591    1.529   .     S
C590   H650    1.109   .     S
C591   H653    1.112   .     S
C591   C592    1.526   .     S
C591   H654    1.108   .     S
C592   H656    1.109   .     S
C592   H655    1.111   .     S
C592   H657    1.111   .     S
C593   N662    1.364   .     A
C593   H630    1.081   .     S
C594   H641    1.083   .     S
C595   H652    1.083   .     S
C596   H658    1.083   .     S
H601   C705    1.109   .     S
H604   C706    1.107   1_455 S
H611   C708    1.111   1_455 S
H660   C702    1.111   .     S
N661   Zn680   1.998   .     S
N662   Zn679   1.998   .     S
O663   Zn679   1.987   .     S
O671   Zn680   1.987   .     S
O672   Zn679   1.987   .     S
O673   Zn680   1.987   .     S
O674   Zn679   1.953   .     S
O675   Zn680   1.953   .     S
O676   Zn679   1.955   .     S
O677   Zn680   1.955   .     S
C681   O799    1.285   .     A
C681   C698    1.454   .     S
C681   O809    1.288   .     A
C682   C686    1.408   .     A
C682   C729    1.405   .     A
C682   H795    1.082   .     S
C683   O810    1.272   .     A
C683   C687    1.367   .     S
C683   O813    1.273   .     A
C684   C688    1.367   .     S
C684   O811    1.272   .     A
C684   O812    1.273   .     A
C685   C732    1.408   .     A
C685   C730    1.408   .     A
C685   C958    1.505   1_545 S
C686   C731    1.408   .     A
C686   C957    1.505   .     S
C688   C1231   1.166   .     S
C689   O814    1.383   .     S
C689   C694    1.388   .     A
C689   C700    1.407   .     A
C690   C695    1.388   .     A
C690   C701    1.407   .     A
C690   O800    1.383   .     S
C691   O801    1.391   .     S
C691   C701    1.408   .     A
C691   C696    1.405   .     A
C692   O807    1.289   .     A
C692   O808    1.289   .     A
C692   C699    1.465   .     S
C693   C700    1.406   .     A
C693   C697    1.395   .     A
C693   O802    1.385   .     S
C694   C698    1.409   .     A
C694   O803    1.385   .     S
C695   C699    1.412   .     A
C695   O804    1.385   .     S
C696   C699    1.416   .     A
C696   O805    1.384   .     S
C697   C698    1.412   .     A
C697   O806    1.385   .     S
C701   C564    1.464   1_655 S
C702   H734    1.115   .     S
C702   O814    1.416   .     S
C702   C704    1.529   .     S
C703   H733    1.081   .     S
C703   N797    1.364   .     A
C703   C730    1.406   .     A
C704   H735    1.109   .     S
C704   C705    1.526   .     S
C704   H736    1.108   .     S
C705   H738    1.110   .     S
C705   H739    1.109   .     S
C706   H741    1.119   .     S
C706   O800    1.417   .     S
C706   C707    1.529   .     S
C706   H604    1.107   1_655 S
C707   H742    1.111   .     S
C707   H743    1.111   .     S
C707   C708    1.526   .     S
C708   H746    1.110   .     S
C708   H745    1.111   .     S
C708   H611    1.111   1_655 S
C709   C710    1.531   .     S
C709   O801    1.416   .     S
C709   H749    1.113   .     S
C709   H748    1.103   .     S
C710   H751    1.109   .     S
C710   C711    1.525   .     S
C710   H750    1.112   .     S
C711   H753    1.110   .     S
C711   H754    1.108   .     S
C711   H752    1.111   .     S
C712   H757    1.115   .     S
C712   O802    1.419   .     S
C712   C713    1.539   .     S
C712   H1300   1.110   .     S
C713   H758    1.112   .     S
C713   H759    1.109   .     S
C713   C1259   1.524   .     S
C714   N798    1.364   .     A
C714   C731    1.406   .     A
C714   H744    1.081   .     S
C715   H761    1.111   .     S
C715   H760    1.110   .     S
C715   H762    1.106   .     S
C716   C717    1.532   .     S
C716   H763    1.109   .     S
C716   O803    1.421   .     S
C716   H764    1.118   .     S
C717   H765    1.110   .     S
C717   C718    1.526   .     S
C717   H767    1.108   .     S
C718   H769    1.110   .     S
C718   H768    1.111   .     S
C718   H770    1.111   .     S
C719   H771    1.111   .     S
C719   C720    1.534   .     S
C719   O804    1.418   .     S
C719   H772    1.117   .     S
C720   H773    1.112   .     S
C720   C721    1.526   .     S
C720   H774    1.110   .     S
C721   H776    1.110   .     S
C721   H775    1.111   .     S
C721   H778    1.111   .     S
C722   O805    1.413   .     S
C722   H780    1.113   .     S
C722   H779    1.116   .     S
C722   C723    1.528   .     S
C723   C724    1.524   .     S
C723   H781    1.108   .     S
C723   H782    1.112   .     S
C724   H785    1.111   .     S
C724   H783    1.111   .     S
C724   H784    1.111   .     S
C725   C732    1.406   .     A
C725   N797    1.364   .     A
C725   H755    1.081   .     S
C726   O806    1.418   .     S
C726   H787    1.118   .     S
C726   C727    1.529   .     S
C726   H786    1.109   .     S
C727   H789    1.112   .     S
C727   C728    1.526   .     S
C727   H790    1.108   .     S
C728   H792    1.109   .     S
C728   H791    1.111   .     S
C728   H793    1.111   .     S
C729   N798    1.364   .     A
C729   H766    1.081   .     S
C730   H777    1.083   .     S
C731   H788    1.083   .     S
C732   H794    1.083   .     S
H737   C569    1.109   1_655 S
H796   C566    1.111   1_655 S
N797   Zn816   1.998   .     S
N798   Zn815   1.998   .     S
O799   Zn815   1.987   .     S
O807   Zn816   1.987   .     S
O808   Zn815   1.987   .     S
O809   Zn816   1.987   .     S
O810   Zn815   1.953   .     S
O811   Zn816   1.953   .     S
O812   Zn815   1.955   .     S
O813   Zn816   1.955   .     S
C817   O935    1.285   .     A
C817   C834    1.454   .     S
C817   O945    1.288   .     A
C818   C822    1.408   .     A
C818   C865    1.405   .     A
C818   H931    1.082   .     S
C819   O946    1.272   .     A
C819   C823    1.367   .     S
C819   O949    1.273   .     A
C820   C824    1.367   .     S
C820   O947    1.272   .     A
C820   O948    1.273   .     A
C821   C868    1.408   .     A
C821   C866    1.408   .     A
C822   C867    1.408   .     A
C822   C549    1.505   1_565 S
C824   C1367   1.166   .     S
C825   O950    1.383   .     S
C825   C830    1.388   .     A
C825   C836    1.407   .     A
C826   C831    1.388   .     A
C826   C837    1.407   .     A
C826   O936    1.383   .     S
C827   O937    1.391   .     S
C827   C837    1.408   .     A
C827   C832    1.405   .     A
C828   O943    1.289   .     A
C828   O944    1.289   .     A
C828   C835    1.465   .     S
C829   C836    1.406   .     A
C829   C833    1.395   .     A
C829   O938    1.385   .     S
C830   C834    1.409   .     A
C830   O939    1.385   .     S
C831   C835    1.412   .     A
C831   O940    1.385   .     S
C832   C835    1.416   .     A
C832   O941    1.384   .     S
C833   C834    1.412   .     A
C833   O942    1.385   .     S
C836   C973    1.464   1_455 S
C837   C972    1.464   .     S
C838   H870    1.115   .     S
C838   O950    1.416   .     S
C838   C840    1.529   .     S
C838   H1068   1.111   1_455 S
C839   H869    1.081   .     S
C839   N933    1.364   .     A
C839   C866    1.406   .     A
C840   H871    1.109   .     S
C840   C841    1.526   .     S
C840   H872    1.108   .     S
C841   H874    1.110   .     S
C841   H875    1.109   .     S
C841   H1009   1.109   1_455 S
C842   H877    1.119   .     S
C842   O936    1.417   .     S
C842   C843    1.529   .     S
C842   H1012   1.107   .     S
C843   H878    1.111   .     S
C843   H879    1.111   .     S
C843   C844    1.526   .     S
C844   H882    1.110   .     S
C844   H881    1.111   .     S
C844   H1019   1.111   .     S
C845   C846    1.531   .     S
C845   O937    1.416   .     S
C845   H885    1.113   .     S
C845   H884    1.103   .     S
C846   H887    1.109   .     S
C846   C847    1.525   .     S
C846   H886    1.112   .     S
C847   H889    1.110   .     S
C847   H890    1.108   .     S
C847   H888    1.111   .     S
C848   H893    1.115   .     S
C848   O938    1.419   .     S
C848   C849    1.539   .     S
C848   H1436   1.110   .     S
C849   H894    1.112   .     S
C849   H895    1.109   .     S
C849   C1395   1.524   .     S
C850   N934    1.364   .     A
C850   C867    1.406   .     A
C850   H880    1.081   .     S
C851   H897    1.111   .     S
C851   H896    1.110   .     S
C851   H898    1.106   .     S
C852   C853    1.532   .     S
C852   H899    1.109   .     S
C852   O939    1.421   .     S
C852   H900    1.118   .     S
C853   H901    1.110   .     S
C853   C854    1.526   .     S
C853   H903    1.108   .     S
C854   H905    1.110   .     S
C854   H904    1.111   .     S
C854   H906    1.111   .     S
C855   H907    1.111   .     S
C855   C856    1.534   .     S
C855   O940    1.418   .     S
C855   H908    1.117   .     S
C856   H909    1.112   .     S
C856   C857    1.526   .     S
C856   H910    1.110   .     S
C857   H912    1.110   .     S
C857   H911    1.111   .     S
C857   H914    1.111   .     S
C858   O941    1.413   .     S
C858   H916    1.113   .     S
C858   H915    1.116   .     S
C858   C859    1.528   .     S
C859   C860    1.524   .     S
C859   H917    1.108   .     S
C859   H918    1.112   .     S
C860   H921    1.111   .     S
C860   H919    1.111   .     S
C860   H920    1.111   .     S
C861   C868    1.406   .     A
C861   N933    1.364   .     A
C861   H891    1.081   .     S
C862   O942    1.418   .     S
C862   H923    1.118   .     S
C862   C863    1.529   .     S
C862   H922    1.109   .     S
C863   H925    1.112   .     S
C863   C864    1.526   .     S
C863   H926    1.108   .     S
C864   H928    1.109   .     S
C864   H927    1.111   .     S
C864   H929    1.111   .     S
C865   N934    1.364   .     A
C865   H902    1.081   .     S
C866   H913    1.083   .     S
C867   H924    1.083   .     S
C868   H930    1.083   .     S
H873   C977    1.109   .     S
H876   C978    1.107   1_455 S
H883   C980    1.111   1_455 S
H932   C974    1.111   .     S
N933   Zn952   1.998   .     S
N934   Zn951   1.998   .     S
O935   Zn951   1.987   .     S
O943   Zn952   1.987   .     S
O944   Zn951   1.987   .     S
O945   Zn952   1.987   .     S
O946   Zn951   1.953   .     S
O947   Zn952   1.953   .     S
O948   Zn951   1.955   .     S
O949   Zn952   1.955   .     S
C953   O1071   1.285   .     A
C953   C970    1.454   .     S
C953   O1081   1.288   .     A
C954   C958    1.408   .     A
C954   C1001   1.405   .     A
C954   H1067   1.082   .     S
C955   O1082   1.272   .     A
C955   C959    1.367   .     S
C955   O1085   1.273   .     A
C956   C960    1.367   .     S
C956   O1083   1.272   .     A
C956   O1084   1.273   .     A
C957   C1004   1.408   .     A
C957   C1002   1.408   .     A
C958   C1003   1.408   .     A
C958   C685    1.505   1_565 S
C960   C1503   1.166   .     S
C961   O1086   1.383   .     S
C961   C966    1.388   .     A
C961   C972    1.407   .     A
C962   C967    1.388   .     A
C962   C973    1.407   .     A
C962   O1072   1.383   .     S
C963   O1073   1.391   .     S
C963   C973    1.408   .     A
C963   C968    1.405   .     A
C964   O1079   1.289   .     A
C964   O1080   1.289   .     A
C964   C971    1.465   .     S
C965   C972    1.406   .     A
C965   C969    1.395   .     A
C965   O1074   1.385   .     S
C966   C970    1.409   .     A
C966   O1075   1.385   .     S
C967   C971    1.412   .     A
C967   O1076   1.385   .     S
C968   C971    1.416   .     A
C968   O1077   1.384   .     S
C969   C970    1.412   .     A
C969   O1078   1.385   .     S
C973   C836    1.464   1_655 S
C974   H1006   1.115   .     S
C974   O1086   1.416   .     S
C974   C976    1.529   .     S
C975   H1005   1.081   .     S
C975   N1069   1.364   .     A
C975   C1002   1.406   .     A
C976   H1007   1.109   .     S
C976   C977    1.526   .     S
C976   H1008   1.108   .     S
C977   H1010   1.110   .     S
C977   H1011   1.109   .     S
C978   H1013   1.119   .     S
C978   O1072   1.417   .     S
C978   C979    1.529   .     S
C978   H876    1.107   1_655 S
C979   H1014   1.111   .     S
C979   H1015   1.111   .     S
C979   C980    1.526   .     S
C980   H1018   1.110   .     S
C980   H1017   1.111   .     S
C980   H883    1.111   1_655 S
C981   C982    1.531   .     S
C981   O1073   1.416   .     S
C981   H1021   1.113   .     S
C981   H1020   1.103   .     S
C982   H1023   1.109   .     S
C982   C983    1.525   .     S
C982   H1022   1.112   .     S
C983   H1025   1.110   .     S
C983   H1026   1.108   .     S
C983   H1024   1.111   .     S
C984   H1029   1.115   .     S
C984   O1074   1.419   .     S
C984   C985    1.539   .     S
C984   H1572   1.110   .     S
C985   H1030   1.112   .     S
C985   H1031   1.109   .     S
C985   C1531   1.524   .     S
C986   N1070   1.364   .     A
C986   C1003   1.406   .     A
C986   H1016   1.081   .     S
C987   H1033   1.111   .     S
C987   H1032   1.110   .     S
C987   H1034   1.106   .     S
C988   C989    1.532   .     S
C988   H1035   1.109   .     S
C988   O1075   1.421   .     S
C988   H1036   1.118   .     S
C989   H1037   1.110   .     S
C989   C990    1.526   .     S
C989   H1039   1.108   .     S
C990   H1041   1.110   .     S
C990   H1040   1.111   .     S
C990   H1042   1.111   .     S
C991   H1043   1.111   .     S
C991   C992    1.534   .     S
C991   O1076   1.418   .     S
C991   H1044   1.117   .     S
C992   H1045   1.112   .     S
C992   C993    1.526   .     S
C992   H1046   1.110   .     S
C993   H1048   1.110   .     S
C993   H1047   1.111   .     S
C993   H1050   1.111   .     S
C994   O1077   1.413   .     S
C994   H1052   1.113   .     S
C994   H1051   1.116   .     S
C994   C995    1.528   .     S
C995   C996    1.524   .     S
C995   H1053   1.108   .     S
C995   H1054   1.112   .     S
C996   H1057   1.111   .     S
C996   H1055   1.111   .     S
C996   H1056   1.111   .     S
C997   C1004   1.406   .     A
C997   N1069   1.364   .     A
C997   H1027   1.081   .     S
C998   O1078   1.418   .     S
C998   H1059   1.118   .     S
C998   C999    1.529   .     S
C998   H1058   1.109   .     S
C999   H1061   1.112   .     S
C999   C1000   1.526   .     S
C999   H1062   1.108   .     S
C1000  H1064   1.109   .     S
C1000  H1063   1.111   .     S
C1000  H1065   1.111   .     S
C1001  N1070   1.364   .     A
C1001  H1038   1.081   .     S
C1002  H1049   1.083   .     S
C1003  H1060   1.083   .     S
C1004  H1066   1.083   .     S
H1009  C841    1.109   1_655 S
H1068  C838    1.111   1_655 S
N1069  Zn1088  1.998   .     S
N1070  Zn1087  1.998   .     S
O1071  Zn1087  1.987   .     S
O1079  Zn1088  1.987   .     S
O1080  Zn1087  1.987   .     S
O1081  Zn1088  1.987   .     S
O1082  Zn1087  1.953   .     S
O1083  Zn1088  1.953   .     S
O1084  Zn1087  1.955   .     S
O1085  Zn1088  1.955   .     S
C1089  O1207   1.285   .     A
C1089  C1106   1.454   .     S
C1089  O1217   1.288   .     A
C1090  C1094   1.408   .     A
C1090  C1137   1.405   .     A
C1090  H1203   1.082   .     S
C1091  O1218   1.272   .     A
C1091  C1095   1.367   .     S
C1091  O1221   1.273   .     A
C1092  C1096   1.367   .     S
C1092  O1219   1.272   .     A
C1092  O1220   1.273   .     A
C1093  C1140   1.408   .     A
C1093  C1138   1.408   .     A
C1093  C1366   1.505   1_545 S
C1094  C1139   1.408   .     A
C1094  C1365   1.505   .     S
C1096  C7      1.166   1_556 S
C1097  O1222   1.383   .     S
C1097  C1102   1.388   .     A
C1097  C1108   1.407   .     A
C1098  C1103   1.388   .     A
C1098  C1109   1.407   .     A
C1098  O1208   1.383   .     S
C1099  O1209   1.391   .     S
C1099  C1109   1.408   .     A
C1099  C1104   1.405   .     A
C1100  O1215   1.289   .     A
C1100  O1216   1.289   .     A
C1100  C1107   1.465   .     S
C1101  C1108   1.406   .     A
C1101  C1105   1.395   .     A
C1101  O1210   1.385   .     S
C1102  C1106   1.409   .     A
C1102  O1211   1.385   .     S
C1103  C1107   1.412   .     A
C1103  O1212   1.385   .     S
C1104  C1107   1.416   .     A
C1104  O1213   1.384   .     S
C1105  C1106   1.412   .     A
C1105  O1214   1.385   .     S
C1108  C1245   1.464   1_455 S
C1109  C1244   1.464   .     S
C1110  H1142   1.115   .     S
C1110  O1222   1.416   .     S
C1110  C1112   1.529   .     S
C1110  H1340   1.111   1_455 S
C1111  H1141   1.081   .     S
C1111  N1205   1.364   .     A
C1111  C1138   1.406   .     A
C1112  H1143   1.109   .     S
C1112  C1113   1.526   .     S
C1112  H1144   1.108   .     S
C1113  H1146   1.110   .     S
C1113  H1147   1.109   .     S
C1113  H1281   1.109   1_455 S
C1114  H1149   1.119   .     S
C1114  O1208   1.417   .     S
C1114  C1115   1.529   .     S
C1114  H1284   1.107   .     S
C1115  H1150   1.111   .     S
C1115  H1151   1.111   .     S
C1115  C1116   1.526   .     S
C1116  H1154   1.110   .     S
C1116  H1153   1.111   .     S
C1116  H1291   1.111   .     S
C1117  C1118   1.531   .     S
C1117  O1209   1.416   .     S
C1117  H1157   1.113   .     S
C1117  H1156   1.103   .     S
C1118  H1159   1.109   .     S
C1118  C1119   1.525   .     S
C1118  H1158   1.112   .     S
C1119  H1161   1.110   .     S
C1119  H1162   1.108   .     S
C1119  H1160   1.111   .     S
C1120  H1165   1.115   .     S
C1120  O1210   1.419   .     S
C1120  C1121   1.539   .     S
C1120  H76     1.110   1_556 S
C1121  H1166   1.112   .     S
C1121  H1167   1.109   .     S
C1121  C35     1.524   1_556 S
C1122  N1206   1.364   .     A
C1122  C1139   1.406   .     A
C1122  H1152   1.081   .     S
C1123  H1169   1.111   .     S
C1123  H1168   1.110   .     S
C1123  H1170   1.106   .     S
C1124  C1125   1.532   .     S
C1124  H1171   1.109   .     S
C1124  O1211   1.421   .     S
C1124  H1172   1.118   .     S
C1125  H1173   1.110   .     S
C1125  C1126   1.526   .     S
C1125  H1175   1.108   .     S
C1126  H1177   1.110   .     S
C1126  H1176   1.111   .     S
C1126  H1178   1.111   .     S
C1127  H1179   1.111   .     S
C1127  C1128   1.534   .     S
C1127  O1212   1.418   .     S
C1127  H1180   1.117   .     S
C1128  H1181   1.112   .     S
C1128  C1129   1.526   .     S
C1128  H1182   1.110   .     S
C1129  H1184   1.110   .     S
C1129  H1183   1.111   .     S
C1129  H1186   1.111   .     S
C1130  O1213   1.413   .     S
C1130  H1188   1.113   .     S
C1130  H1187   1.116   .     S
C1130  C1131   1.528   .     S
C1131  C1132   1.524   .     S
C1131  H1189   1.108   .     S
C1131  H1190   1.112   .     S
C1132  H1193   1.111   .     S
C1132  H1191   1.111   .     S
C1132  H1192   1.111   .     S
C1133  C1140   1.406   .     A
C1133  N1205   1.364   .     A
C1133  H1163   1.081   .     S
C1134  O1214   1.418   .     S
C1134  H1195   1.118   .     S
C1134  C1135   1.529   .     S
C1134  H1194   1.109   .     S
C1135  H1197   1.112   .     S
C1135  C1136   1.526   .     S
C1135  H1198   1.108   .     S
C1136  H1200   1.109   .     S
C1136  H1199   1.111   .     S
C1136  H1201   1.111   .     S
C1137  N1206   1.364   .     A
C1137  H1174   1.081   .     S
C1138  H1185   1.083   .     S
C1139  H1196   1.083   .     S
C1140  H1202   1.083   .     S
H1145  C1249   1.109   .     S
H1148  C1250   1.107   1_455 S
H1155  C1252   1.111   1_455 S
H1204  C1246   1.111   .     S
N1205  Zn1224  1.998   .     S
N1206  Zn1223  1.998   .     S
O1207  Zn1223  1.987   .     S
O1215  Zn1224  1.987   .     S
O1216  Zn1223  1.987   .     S
O1217  Zn1224  1.987   .     S
O1218  Zn1223  1.953   .     S
O1219  Zn1224  1.953   .     S
O1220  Zn1223  1.955   .     S
O1221  Zn1224  1.955   .     S
C1225  O1343   1.285   .     A
C1225  C1242   1.454   .     S
C1225  O1353   1.288   .     A
C1226  C1230   1.408   .     A
C1226  C1273   1.405   .     A
C1226  H1339   1.082   .     S
C1227  O1354   1.272   .     A
C1227  C1231   1.367   .     S
C1227  O1357   1.273   .     A
C1228  C1232   1.367   .     S
C1228  O1355   1.272   .     A
C1228  O1356   1.273   .     A
C1229  C1276   1.408   .     A
C1229  C1274   1.408   .     A
C1229  C1502   1.505   1_545 S
C1230  C1275   1.408   .     A
C1230  C1501   1.505   .     S
C1232  C143    1.166   1_556 S
C1233  O1358   1.383   .     S
C1233  C1238   1.388   .     A
C1233  C1244   1.407   .     A
C1234  C1239   1.388   .     A
C1234  C1245   1.407   .     A
C1234  O1344   1.383   .     S
C1235  O1345   1.391   .     S
C1235  C1245   1.408   .     A
C1235  C1240   1.405   .     A
C1236  O1351   1.289   .     A
C1236  O1352   1.289   .     A
C1236  C1243   1.465   .     S
C1237  C1244   1.406   .     A
C1237  C1241   1.395   .     A
C1237  O1346   1.385   .     S
C1238  C1242   1.409   .     A
C1238  O1347   1.385   .     S
C1239  C1243   1.412   .     A
C1239  O1348   1.385   .     S
C1240  C1243   1.416   .     A
C1240  O1349   1.384   .     S
C1241  C1242   1.412   .     A
C1241  O1350   1.385   .     S
C1245  C1108   1.464   1_655 S
C1246  H1278   1.115   .     S
C1246  O1358   1.416   .     S
C1246  C1248   1.529   .     S
C1247  H1277   1.081   .     S
C1247  N1341   1.364   .     A
C1247  C1274   1.406   .     A
C1248  H1279   1.109   .     S
C1248  C1249   1.526   .     S
C1248  H1280   1.108   .     S
C1249  H1282   1.110   .     S
C1249  H1283   1.109   .     S
C1250  H1285   1.119   .     S
C1250  O1344   1.417   .     S
C1250  C1251   1.529   .     S
C1250  H1148   1.107   1_655 S
C1251  H1286   1.111   .     S
C1251  H1287   1.111   .     S
C1251  C1252   1.526   .     S
C1252  H1290   1.110   .     S
C1252  H1289   1.111   .     S
C1252  H1155   1.111   1_655 S
C1253  C1254   1.531   .     S
C1253  O1345   1.416   .     S
C1253  H1293   1.113   .     S
C1253  H1292   1.103   .     S
C1254  H1295   1.109   .     S
C1254  C1255   1.525   .     S
C1254  H1294   1.112   .     S
C1255  H1297   1.110   .     S
C1255  H1298   1.108   .     S
C1255  H1296   1.111   .     S
C1256  H1301   1.115   .     S
C1256  O1346   1.419   .     S
C1256  C1257   1.539   .     S
C1256  H212    1.110   1_556 S
C1257  H1302   1.112   .     S
C1257  H1303   1.109   .     S
C1257  C171    1.524   1_556 S
C1258  N1342   1.364   .     A
C1258  C1275   1.406   .     A
C1258  H1288   1.081   .     S
C1259  H1305   1.111   .     S
C1259  H1304   1.110   .     S
C1259  H1306   1.106   .     S
C1260  C1261   1.532   .     S
C1260  H1307   1.109   .     S
C1260  O1347   1.421   .     S
C1260  H1308   1.118   .     S
C1261  H1309   1.110   .     S
C1261  C1262   1.526   .     S
C1261  H1311   1.108   .     S
C1262  H1313   1.110   .     S
C1262  H1312   1.111   .     S
C1262  H1314   1.111   .     S
C1263  H1315   1.111   .     S
C1263  C1264   1.534   .     S
C1263  O1348   1.418   .     S
C1263  H1316   1.117   .     S
C1264  H1317   1.112   .     S
C1264  C1265   1.526   .     S
C1264  H1318   1.110   .     S
C1265  H1320   1.110   .     S
C1265  H1319   1.111   .     S
C1265  H1322   1.111   .     S
C1266  O1349   1.413   .     S
C1266  H1324   1.113   .     S
C1266  H1323   1.116   .     S
C1266  C1267   1.528   .     S
C1267  C1268   1.524   .     S
C1267  H1325   1.108   .     S
C1267  H1326   1.112   .     S
C1268  H1329   1.111   .     S
C1268  H1327   1.111   .     S
C1268  H1328   1.111   .     S
C1269  C1276   1.406   .     A
C1269  N1341   1.364   .     A
C1269  H1299   1.081   .     S
C1270  O1350   1.418   .     S
C1270  H1331   1.118   .     S
C1270  C1271   1.529   .     S
C1270  H1330   1.109   .     S
C1271  H1333   1.112   .     S
C1271  C1272   1.526   .     S
C1271  H1334   1.108   .     S
C1272  H1336   1.109   .     S
C1272  H1335   1.111   .     S
C1272  H1337   1.111   .     S
C1273  N1342   1.364   .     A
C1273  H1310   1.081   .     S
C1274  H1321   1.083   .     S
C1275  H1332   1.083   .     S
C1276  H1338   1.083   .     S
H1281  C1113   1.109   1_655 S
H1340  C1110   1.111   1_655 S
N1341  Zn1360  1.998   .     S
N1342  Zn1359  1.998   .     S
O1343  Zn1359  1.987   .     S
O1351  Zn1360  1.987   .     S
O1352  Zn1359  1.987   .     S
O1353  Zn1360  1.987   .     S
O1354  Zn1359  1.953   .     S
O1355  Zn1360  1.953   .     S
O1356  Zn1359  1.955   .     S
O1357  Zn1360  1.955   .     S
C1361  O1479   1.285   .     A
C1361  C1378   1.454   .     S
C1361  O1489   1.288   .     A
C1362  C1366   1.408   .     A
C1362  C1409   1.405   .     A
C1362  H1475   1.082   .     S
C1363  O1490   1.272   .     A
C1363  C1367   1.367   .     S
C1363  O1493   1.273   .     A
C1364  C1368   1.367   .     S
C1364  O1491   1.272   .     A
C1364  O1492   1.273   .     A
C1365  C1412   1.408   .     A
C1365  C1410   1.408   .     A
C1366  C1411   1.408   .     A
C1366  C1093   1.505   1_565 S
C1368  C279    1.166   1_556 S
C1369  O1494   1.383   .     S
C1369  C1374   1.388   .     A
C1369  C1380   1.407   .     A
C1370  C1375   1.388   .     A
C1370  C1381   1.407   .     A
C1370  O1480   1.383   .     S
C1371  O1481   1.391   .     S
C1371  C1381   1.408   .     A
C1371  C1376   1.405   .     A
C1372  O1487   1.289   .     A
C1372  O1488   1.289   .     A
C1372  C1379   1.465   .     S
C1373  C1380   1.406   .     A
C1373  C1377   1.395   .     A
C1373  O1482   1.385   .     S
C1374  C1378   1.409   .     A
C1374  O1483   1.385   .     S
C1375  C1379   1.412   .     A
C1375  O1484   1.385   .     S
C1376  C1379   1.416   .     A
C1376  O1485   1.384   .     S
C1377  C1378   1.412   .     A
C1377  O1486   1.385   .     S
C1380  C1517   1.464   1_455 S
C1381  C1516   1.464   .     S
C1382  H1414   1.115   .     S
C1382  O1494   1.416   .     S
C1382  C1384   1.529   .     S
C1382  H1612   1.111   1_455 S
C1383  H1413   1.081   .     S
C1383  N1477   1.364   .     A
C1383  C1410   1.406   .     A
C1384  H1415   1.109   .     S
C1384  C1385   1.526   .     S
C1384  H1416   1.108   .     S
C1385  H1418   1.110   .     S
C1385  H1419   1.109   .     S
C1385  H1553   1.109   1_455 S
C1386  H1421   1.119   .     S
C1386  O1480   1.417   .     S
C1386  C1387   1.529   .     S
C1386  H1556   1.107   .     S
C1387  H1422   1.111   .     S
C1387  H1423   1.111   .     S
C1387  C1388   1.526   .     S
C1388  H1426   1.110   .     S
C1388  H1425   1.111   .     S
C1388  H1563   1.111   .     S
C1389  C1390   1.531   .     S
C1389  O1481   1.416   .     S
C1389  H1429   1.113   .     S
C1389  H1428   1.103   .     S
C1390  H1431   1.109   .     S
C1390  C1391   1.525   .     S
C1390  H1430   1.112   .     S
C1391  H1433   1.110   .     S
C1391  H1434   1.108   .     S
C1391  H1432   1.111   .     S
C1392  H1437   1.115   .     S
C1392  O1482   1.419   .     S
C1392  C1393   1.539   .     S
C1392  H348    1.110   1_556 S
C1393  H1438   1.112   .     S
C1393  H1439   1.109   .     S
C1393  C307    1.524   1_556 S
C1394  N1478   1.364   .     A
C1394  C1411   1.406   .     A
C1394  H1424   1.081   .     S
C1395  H1441   1.111   .     S
C1395  H1440   1.110   .     S
C1395  H1442   1.106   .     S
C1396  C1397   1.532   .     S
C1396  H1443   1.109   .     S
C1396  O1483   1.421   .     S
C1396  H1444   1.118   .     S
C1397  H1445   1.110   .     S
C1397  C1398   1.526   .     S
C1397  H1447   1.108   .     S
C1398  H1449   1.110   .     S
C1398  H1448   1.111   .     S
C1398  H1450   1.111   .     S
C1399  H1451   1.111   .     S
C1399  C1400   1.534   .     S
C1399  O1484   1.418   .     S
C1399  H1452   1.117   .     S
C1400  H1453   1.112   .     S
C1400  C1401   1.526   .     S
C1400  H1454   1.110   .     S
C1401  H1456   1.110   .     S
C1401  H1455   1.111   .     S
C1401  H1458   1.111   .     S
C1402  O1485   1.413   .     S
C1402  H1460   1.113   .     S
C1402  H1459   1.116   .     S
C1402  C1403   1.528   .     S
C1403  C1404   1.524   .     S
C1403  H1461   1.108   .     S
C1403  H1462   1.112   .     S
C1404  H1465   1.111   .     S
C1404  H1463   1.111   .     S
C1404  H1464   1.111   .     S
C1405  C1412   1.406   .     A
C1405  N1477   1.364   .     A
C1405  H1435   1.081   .     S
C1406  O1486   1.418   .     S
C1406  H1467   1.118   .     S
C1406  C1407   1.529   .     S
C1406  H1466   1.109   .     S
C1407  H1469   1.112   .     S
C1407  C1408   1.526   .     S
C1407  H1470   1.108   .     S
C1408  H1472   1.109   .     S
C1408  H1471   1.111   .     S
C1408  H1473   1.111   .     S
C1409  N1478   1.364   .     A
C1409  H1446   1.081   .     S
C1410  H1457   1.083   .     S
C1411  H1468   1.083   .     S
C1412  H1474   1.083   .     S
H1417  C1521   1.109   .     S
H1420  C1522   1.107   1_455 S
H1427  C1524   1.111   1_455 S
H1476  C1518   1.111   .     S
N1477  Zn1496  1.998   .     S
N1478  Zn1495  1.998   .     S
O1479  Zn1495  1.987   .     S
O1487  Zn1496  1.987   .     S
O1488  Zn1495  1.987   .     S
O1489  Zn1496  1.987   .     S
O1490  Zn1495  1.953   .     S
O1491  Zn1496  1.953   .     S
O1492  Zn1495  1.955   .     S
O1493  Zn1496  1.955   .     S
C1497  O1615   1.285   .     A
C1497  C1514   1.454   .     S
C1497  O1625   1.288   .     A
C1498  C1502   1.408   .     A
C1498  C1545   1.405   .     A
C1498  H1611   1.082   .     S
C1499  O1626   1.272   .     A
C1499  C1503   1.367   .     S
C1499  O1629   1.273   .     A
C1500  C1504   1.367   .     S
C1500  O1627   1.272   .     A
C1500  O1628   1.273   .     A
C1501  C1548   1.408   .     A
C1501  C1546   1.408   .     A
C1502  C1547   1.408   .     A
C1502  C1229   1.505   1_565 S
C1504  C415    1.166   1_556 S
C1505  O1630   1.383   .     S
C1505  C1510   1.388   .     A
C1505  C1516   1.407   .     A
C1506  C1511   1.388   .     A
C1506  C1517   1.407   .     A
C1506  O1616   1.383   .     S
C1507  O1617   1.391   .     S
C1507  C1517   1.408   .     A
C1507  C1512   1.405   .     A
C1508  O1623   1.289   .     A
C1508  O1624   1.289   .     A
C1508  C1515   1.465   .     S
C1509  C1516   1.406   .     A
C1509  C1513   1.395   .     A
C1509  O1618   1.385   .     S
C1510  C1514   1.409   .     A
C1510  O1619   1.385   .     S
C1511  C1515   1.412   .     A
C1511  O1620   1.385   .     S
C1512  C1515   1.416   .     A
C1512  O1621   1.384   .     S
C1513  C1514   1.412   .     A
C1513  O1622   1.385   .     S
C1517  C1380   1.464   1_655 S
C1518  H1550   1.115   .     S
C1518  O1630   1.416   .     S
C1518  C1520   1.529   .     S
C1519  H1549   1.081   .     S
C1519  N1613   1.364   .     A
C1519  C1546   1.406   .     A
C1520  H1551   1.109   .     S
C1520  C1521   1.526   .     S
C1520  H1552   1.108   .     S
C1521  H1554   1.110   .     S
C1521  H1555   1.109   .     S
C1522  H1557   1.119   .     S
C1522  O1616   1.417   .     S
C1522  C1523   1.529   .     S
C1522  H1420   1.107   1_655 S
C1523  H1558   1.111   .     S
C1523  H1559   1.111   .     S
C1523  C1524   1.526   .     S
C1524  H1562   1.110   .     S
C1524  H1561   1.111   .     S
C1524  H1427   1.111   1_655 S
C1525  C1526   1.531   .     S
C1525  O1617   1.416   .     S
C1525  H1565   1.113   .     S
C1525  H1564   1.103   .     S
C1526  H1567   1.109   .     S
C1526  C1527   1.525   .     S
C1526  H1566   1.112   .     S
C1527  H1569   1.110   .     S
C1527  H1570   1.108   .     S
C1527  H1568   1.111   .     S
C1528  H1573   1.115   .     S
C1528  O1618   1.419   .     S
C1528  C1529   1.539   .     S
C1528  H484    1.110   1_556 S
C1529  H1574   1.112   .     S
C1529  H1575   1.109   .     S
C1529  C443    1.524   1_556 S
C1530  N1614   1.364   .     A
C1530  C1547   1.406   .     A
C1530  H1560   1.081   .     S
C1531  H1577   1.111   .     S
C1531  H1576   1.110   .     S
C1531  H1578   1.106   .     S
C1532  C1533   1.532   .     S
C1532  H1579   1.109   .     S
C1532  O1619   1.421   .     S
C1532  H1580   1.118   .     S
C1533  H1581   1.110   .     S
C1533  C1534   1.526   .     S
C1533  H1583   1.108   .     S
C1534  H1585   1.110   .     S
C1534  H1584   1.111   .     S
C1534  H1586   1.111   .     S
C1535  H1587   1.111   .     S
C1535  C1536   1.534   .     S
C1535  O1620   1.418   .     S
C1535  H1588   1.117   .     S
C1536  H1589   1.112   .     S
C1536  C1537   1.526   .     S
C1536  H1590   1.110   .     S
C1537  H1592   1.110   .     S
C1537  H1591   1.111   .     S
C1537  H1594   1.111   .     S
C1538  O1621   1.413   .     S
C1538  H1596   1.113   .     S
C1538  H1595   1.116   .     S
C1538  C1539   1.528   .     S
C1539  C1540   1.524   .     S
C1539  H1597   1.108   .     S
C1539  H1598   1.112   .     S
C1540  H1601   1.111   .     S
C1540  H1599   1.111   .     S
C1540  H1600   1.111   .     S
C1541  C1548   1.406   .     A
C1541  N1613   1.364   .     A
C1541  H1571   1.081   .     S
C1542  O1622   1.418   .     S
C1542  H1603   1.118   .     S
C1542  C1543   1.529   .     S
C1542  H1602   1.109   .     S
C1543  H1605   1.112   .     S
C1543  C1544   1.526   .     S
C1543  H1606   1.108   .     S
C1544  H1608   1.109   .     S
C1544  H1607   1.111   .     S
C1544  H1609   1.111   .     S
C1545  N1614   1.364   .     A
C1545  H1582   1.081   .     S
C1546  H1593   1.083   .     S
C1547  H1604   1.083   .     S
C1548  H1610   1.083   .     S
H1553  C1385   1.109   1_655 S
H1612  C1382   1.111   1_655 S
N1613  Zn1632  1.998   .     S
N1614  Zn1631  1.998   .     S
O1615  Zn1631  1.987   .     S
O1623  Zn1632  1.987   .     S
O1624  Zn1631  1.987   .     S
O1625  Zn1632  1.987   .     S
O1626  Zn1631  1.953   .     S
O1627  Zn1632  1.953   .     S
O1628  Zn1631  1.955   .     S
O1629  Zn1632  1.955   .     S
