data_str_m3_o1_o18_pcu_sym.158
_audit_creation_date              2020-01-03
_audit_creation_method            'Materials Studio'
_symmetry_space_group_name_H-M    'P1'
_symmetry_Int_Tables_number       1
_symmetry_cell_setting            triclinic
loop_
_symmetry_equiv_pos_as_xyz
  x,y,z
_cell_length_a                    29.5482
_cell_length_b                    32.0683
_cell_length_c                    30.9469
_cell_angle_alpha                 90.0257
_cell_angle_beta                  67.4749
_cell_angle_gamma                 89.8810
loop_
_atom_site_label
_atom_site_type_symbol
_atom_site_fract_x
_atom_site_fract_y
_atom_site_fract_z
_atom_site_U_iso_or_equiv
_atom_site_adp_type
_atom_site_occupancy
C1     C     0.16644   0.24667   0.25043   0.00000  Uiso   1.00
C2     C     0.16691   0.08667   0.24954   0.00000  Uiso   1.00
C3     C     0.10578   0.16756   0.05492   0.00000  Uiso   1.00
C4     C     0.20808   0.11813   0.45729   0.00000  Uiso   1.00
C5     C     0.07216   0.17564   0.03467   0.00000  Uiso   1.00
C6     C     0.24159   0.11026   0.47787   0.00000  Uiso   1.00
C7     C     0.21074   0.31152   0.22858   0.00000  Uiso   1.00
C8     C     0.12262   0.02182   0.27131   0.00000  Uiso   1.00
C9     C     0.21124   0.02095   0.22786   0.00000  Uiso   1.00
C10    C     0.12211   0.31240   0.27202   0.00000  Uiso   1.00
C11    C     0.16707   0.04255   0.24939   0.00000  Uiso   1.00
C12    C     0.16629   0.29079   0.25052   0.00000  Uiso   1.00
C13    C     0.32153   0.14180   0.21977   0.00000  Uiso   1.00
C14    C     0.01181   0.19155   0.28020   0.00000  Uiso   1.00
C15    C     0.03613   0.14180   0.21979   0.00000  Uiso   1.00
C16    C     0.29722   0.19157   0.28017   0.00000  Uiso   1.00
C17    C     0.13592   0.16661   0.33815   0.00000  Uiso   1.00
C18    C     0.19734   0.16585   0.16186   0.00000  Uiso   1.00
C19    C     0.11590   0.16566   0.38921   0.00000  Uiso   1.00
C20    C     0.21592   0.15801   0.11157   0.00000  Uiso   1.00
C21    C     0.05375   0.18390   0.46457   0.00000  Uiso   1.00
C22    C     0.26808   0.11918   0.04335   0.00000  Uiso   1.00
C23    C     0.06909   0.18106   0.41600   0.00000  Uiso   1.00
C24    C     0.25849   0.13460   0.08836   0.00000  Uiso   1.00
C25    C     0.14608   0.15093   0.41101   0.00000  Uiso   1.00
C26    C     0.18434   0.16717   0.08927   0.00000  Uiso   1.00
C27    C     0.13180   0.15289   0.45951   0.00000  Uiso   1.00
C28    C     0.19008   0.14863   0.04675   0.00000  Uiso   1.00
C29    C     0.08534   0.17060   0.48656   0.00000  Uiso   1.00
C30    C     0.23374   0.12593   0.02232   0.00000  Uiso   1.00
C31    C     0.16452   0.14099   0.48106   0.00000  Uiso   1.00
C32    C     0.15347   0.15282   0.02794   0.00000  Uiso   1.00
H33    H     0.03641   0.18729   0.05695   0.00000  Uiso   1.00
H34    H     0.27400   0.09230   0.45820   0.00000  Uiso   1.00
H35    H     0.15420   0.18812   0.10677   0.00000  Uiso   1.00
H36    H     0.18214   0.14026   0.38893   0.00000  Uiso   1.00
H37    H     0.09297   0.17214   0.09226   0.00000  Uiso   1.00
H38    H     0.21650   0.10449   0.42323   0.00000  Uiso   1.00
H39    H     0.24479   0.29464   0.21145   0.00000  Uiso   1.00
H40    H     0.08856   0.03870   0.28844   0.00000  Uiso   1.00
H41    H     0.31312   0.12193   0.19560   0.00000  Uiso   1.00
H42    H     0.02024   0.21144   0.30436   0.00000  Uiso   1.00
H43    H     0.06399   0.12189   0.19563   0.00000  Uiso   1.00
H44    H     0.26938   0.21152   0.30429   0.00000  Uiso   1.00
N45    N     0.04759   0.16668   0.25001   0.00000  Uiso   1.00
N46    N     0.28574   0.16666   0.24999   0.00000  Uiso   1.00
O47    O     0.12846   0.22775   0.25001   0.00000  Uiso   1.00
O48    O     0.20488   0.10558   0.25000   0.00000  Uiso   1.00
O49    O     0.20490   0.22774   0.25000   0.00000  Uiso   1.00
O50    O     0.12843   0.10559   0.25000   0.00000  Uiso   1.00
O51    O     0.10661   0.16667   0.31613   0.00000  Uiso   1.00
O52    O     0.22672   0.16666   0.18388   0.00000  Uiso   1.00
O53    O     0.18305   0.16666   0.31612   0.00000  Uiso   1.00
O54    O     0.15028   0.16667   0.18388   0.00000  Uiso   1.00
Zn55   Zn    0.11562   0.16667   0.25000   0.00000  Uiso   1.00
Zn56   Zn    0.21771   0.16666   0.25000   0.00000  Uiso   1.00
F57    F     0.28945   0.12514   0.11000   0.00000  Uiso   1.00
F58    F     0.03944   0.19559   0.39492   0.00000  Uiso   1.00
Cl59   Cl    0.32971   0.20743   0.49596   0.00000  Uiso   1.00
Cl60   Cl    0.32222   0.08991   0.01560   0.00000  Uiso   1.00
F61    F     0.25435   0.04102   0.20532   0.00000  Uiso   1.00
F62    F     0.07899   0.29234   0.29453   0.00000  Uiso   1.00
C63    C     0.49977   0.24667   0.25043   0.00000  Uiso   1.00
C64    C     0.50024   0.08667   0.24954   0.00000  Uiso   1.00
C65    C     0.43912   0.16756   0.05492   0.00000  Uiso   1.00
C66    C     0.54141   0.11813   0.45729   0.00000  Uiso   1.00
C67    C     0.40550   0.17564   0.03467   0.00000  Uiso   1.00
C68    C     0.57492   0.11026   0.47787   0.00000  Uiso   1.00
C69    C     0.54407   0.31152   0.22858   0.00000  Uiso   1.00
C70    C     0.45595   0.02182   0.27131   0.00000  Uiso   1.00
C71    C     0.54458   0.02095   0.22786   0.00000  Uiso   1.00
C72    C     0.45544   0.31240   0.27202   0.00000  Uiso   1.00
C73    C     0.50040   0.04255   0.24939   0.00000  Uiso   1.00
C74    C     0.49962   0.29079   0.25052   0.00000  Uiso   1.00
C75    C     0.65486   0.14180   0.21977   0.00000  Uiso   1.00
C76    C     0.34515   0.19155   0.28020   0.00000  Uiso   1.00
C77    C     0.36946   0.14180   0.21979   0.00000  Uiso   1.00
C78    C     0.63056   0.19157   0.28017   0.00000  Uiso   1.00
C79    C     0.46925   0.16661   0.33815   0.00000  Uiso   1.00
C80    C     0.53067   0.16585   0.16186   0.00000  Uiso   1.00
C81    C     0.44923   0.16566   0.38921   0.00000  Uiso   1.00
C82    C     0.54925   0.15801   0.11157   0.00000  Uiso   1.00
C83    C     0.38708   0.18390   0.46457   0.00000  Uiso   1.00
C84    C     0.60141   0.11918   0.04335   0.00000  Uiso   1.00
C85    C     0.40242   0.18106   0.41600   0.00000  Uiso   1.00
C86    C     0.59183   0.13460   0.08836   0.00000  Uiso   1.00
C87    C     0.47941   0.15093   0.41101   0.00000  Uiso   1.00
C88    C     0.51767   0.16717   0.08927   0.00000  Uiso   1.00
C89    C     0.46514   0.15289   0.45951   0.00000  Uiso   1.00
C90    C     0.52341   0.14863   0.04675   0.00000  Uiso   1.00
C91    C     0.41867   0.17060   0.48656   0.00000  Uiso   1.00
C92    C     0.56707   0.12593   0.02232   0.00000  Uiso   1.00
C93    C     0.49785   0.14099   0.48106   0.00000  Uiso   1.00
C94    C     0.48681   0.15282   0.02794   0.00000  Uiso   1.00
H95    H     0.36974   0.18729   0.05695   0.00000  Uiso   1.00
H96    H     0.60734   0.09230   0.45820   0.00000  Uiso   1.00
H97    H     0.48753   0.18812   0.10677   0.00000  Uiso   1.00
H98    H     0.51547   0.14026   0.38893   0.00000  Uiso   1.00
H99    H     0.42630   0.17214   0.09226   0.00000  Uiso   1.00
H100   H     0.54984   0.10449   0.42323   0.00000  Uiso   1.00
H101   H     0.57813   0.29464   0.21145   0.00000  Uiso   1.00
H102   H     0.42189   0.03870   0.28844   0.00000  Uiso   1.00
H103   H     0.64645   0.12193   0.19560   0.00000  Uiso   1.00
H104   H     0.35357   0.21144   0.30436   0.00000  Uiso   1.00
H105   H     0.39732   0.12189   0.19563   0.00000  Uiso   1.00
H106   H     0.60271   0.21152   0.30429   0.00000  Uiso   1.00
N107   N     0.38093   0.16668   0.25001   0.00000  Uiso   1.00
N108   N     0.61907   0.16666   0.24999   0.00000  Uiso   1.00
O109   O     0.46179   0.22775   0.25001   0.00000  Uiso   1.00
O110   O     0.53821   0.10558   0.25000   0.00000  Uiso   1.00
O111   O     0.53823   0.22774   0.25000   0.00000  Uiso   1.00
O112   O     0.46177   0.10559   0.25000   0.00000  Uiso   1.00
O113   O     0.43994   0.16667   0.31613   0.00000  Uiso   1.00
O114   O     0.56006   0.16666   0.18388   0.00000  Uiso   1.00
O115   O     0.51639   0.16666   0.31612   0.00000  Uiso   1.00
O116   O     0.48361   0.16667   0.18388   0.00000  Uiso   1.00
Zn117  Zn    0.44896   0.16667   0.25000   0.00000  Uiso   1.00
Zn118  Zn    0.55104   0.16666   0.25000   0.00000  Uiso   1.00
F119   F     0.62279   0.12514   0.11000   0.00000  Uiso   1.00
F120   F     0.37278   0.19559   0.39492   0.00000  Uiso   1.00
Cl121  Cl    0.66305   0.20743   0.49596   0.00000  Uiso   1.00
Cl122  Cl    0.65555   0.08991   0.01560   0.00000  Uiso   1.00
F123   F     0.58768   0.04102   0.20532   0.00000  Uiso   1.00
F124   F     0.41232   0.29234   0.29453   0.00000  Uiso   1.00
C125   C     0.83311   0.24667   0.25043   0.00000  Uiso   1.00
C126   C     0.83357   0.08667   0.24954   0.00000  Uiso   1.00
C127   C     0.77245   0.16756   0.05492   0.00000  Uiso   1.00
C128   C     0.87475   0.11813   0.45729   0.00000  Uiso   1.00
C129   C     0.73883   0.17564   0.03467   0.00000  Uiso   1.00
C130   C     0.90825   0.11026   0.47787   0.00000  Uiso   1.00
C131   C     0.87740   0.31152   0.22858   0.00000  Uiso   1.00
C132   C     0.78928   0.02182   0.27131   0.00000  Uiso   1.00
C133   C     0.87791   0.02095   0.22786   0.00000  Uiso   1.00
C134   C     0.78878   0.31240   0.27202   0.00000  Uiso   1.00
C135   C     0.83373   0.04255   0.24939   0.00000  Uiso   1.00
C136   C     0.83296   0.29079   0.25052   0.00000  Uiso   1.00
C137   C     0.98820   0.14180   0.21977   0.00000  Uiso   1.00
C138   C     0.67848   0.19155   0.28020   0.00000  Uiso   1.00
C139   C     0.70280   0.14180   0.21979   0.00000  Uiso   1.00
C140   C     0.96389   0.19157   0.28017   0.00000  Uiso   1.00
C141   C     0.80258   0.16661   0.33815   0.00000  Uiso   1.00
C142   C     0.86401   0.16585   0.16186   0.00000  Uiso   1.00
C143   C     0.78257   0.16566   0.38921   0.00000  Uiso   1.00
C144   C     0.88258   0.15801   0.11157   0.00000  Uiso   1.00
C145   C     0.72042   0.18390   0.46457   0.00000  Uiso   1.00
C146   C     0.93475   0.11918   0.04335   0.00000  Uiso   1.00
C147   C     0.73575   0.18106   0.41600   0.00000  Uiso   1.00
C148   C     0.92516   0.13460   0.08836   0.00000  Uiso   1.00
C149   C     0.81274   0.15093   0.41101   0.00000  Uiso   1.00
C150   C     0.85101   0.16717   0.08927   0.00000  Uiso   1.00
C151   C     0.79847   0.15289   0.45951   0.00000  Uiso   1.00
C152   C     0.85674   0.14863   0.04675   0.00000  Uiso   1.00
C153   C     0.75200   0.17060   0.48656   0.00000  Uiso   1.00
C154   C     0.90040   0.12593   0.02232   0.00000  Uiso   1.00
C155   C     0.83118   0.14099   0.48106   0.00000  Uiso   1.00
C156   C     0.82014   0.15282   0.02794   0.00000  Uiso   1.00
H157   H     0.70308   0.18729   0.05695   0.00000  Uiso   1.00
H158   H     0.94067   0.09230   0.45820   0.00000  Uiso   1.00
H159   H     0.82087   0.18812   0.10677   0.00000  Uiso   1.00
H160   H     0.84881   0.14026   0.38893   0.00000  Uiso   1.00
H161   H     0.75964   0.17214   0.09226   0.00000  Uiso   1.00
H162   H     0.88317   0.10449   0.42323   0.00000  Uiso   1.00
H163   H     0.91146   0.29464   0.21145   0.00000  Uiso   1.00
H164   H     0.75523   0.03870   0.28844   0.00000  Uiso   1.00
H165   H     0.97978   0.12193   0.19560   0.00000  Uiso   1.00
H166   H     0.68691   0.21144   0.30436   0.00000  Uiso   1.00
H167   H     0.73066   0.12189   0.19563   0.00000  Uiso   1.00
H168   H     0.93605   0.21152   0.30429   0.00000  Uiso   1.00
N169   N     0.71426   0.16668   0.25001   0.00000  Uiso   1.00
N170   N     0.95241   0.16666   0.24999   0.00000  Uiso   1.00
O171   O     0.79512   0.22775   0.25001   0.00000  Uiso   1.00
O172   O     0.87154   0.10558   0.25000   0.00000  Uiso   1.00
O173   O     0.87157   0.22774   0.25000   0.00000  Uiso   1.00
O174   O     0.79510   0.10559   0.25000   0.00000  Uiso   1.00
O175   O     0.77328   0.16667   0.31613   0.00000  Uiso   1.00
O176   O     0.89339   0.16666   0.18388   0.00000  Uiso   1.00
O177   O     0.84972   0.16666   0.31612   0.00000  Uiso   1.00
O178   O     0.81695   0.16667   0.18388   0.00000  Uiso   1.00
Zn179  Zn    0.78229   0.16667   0.25000   0.00000  Uiso   1.00
Zn180  Zn    0.88438   0.16666   0.25000   0.00000  Uiso   1.00
F181   F     0.95612   0.12514   0.11000   0.00000  Uiso   1.00
F182   F     0.70611   0.19559   0.39492   0.00000  Uiso   1.00
Cl183  Cl    0.99638   0.20743   0.49596   0.00000  Uiso   1.00
Cl184  Cl    0.98888   0.08991   0.01560   0.00000  Uiso   1.00
F185   F     0.92102   0.04102   0.20532   0.00000  Uiso   1.00
F186   F     0.74566   0.29234   0.29453   0.00000  Uiso   1.00
C187   C     0.16644   0.58000   0.25043   0.00000  Uiso   1.00
C188   C     0.16691   0.42000   0.24954   0.00000  Uiso   1.00
C189   C     0.10578   0.50089   0.05492   0.00000  Uiso   1.00
C190   C     0.20808   0.45146   0.45729   0.00000  Uiso   1.00
C191   C     0.07216   0.50897   0.03467   0.00000  Uiso   1.00
C192   C     0.24159   0.44360   0.47787   0.00000  Uiso   1.00
C193   C     0.21074   0.64485   0.22858   0.00000  Uiso   1.00
C194   C     0.12262   0.35515   0.27131   0.00000  Uiso   1.00
C195   C     0.21124   0.35428   0.22786   0.00000  Uiso   1.00
C196   C     0.12211   0.64573   0.27202   0.00000  Uiso   1.00
C197   C     0.16707   0.37588   0.24939   0.00000  Uiso   1.00
C198   C     0.16629   0.62413   0.25052   0.00000  Uiso   1.00
C199   C     0.32153   0.47514   0.21977   0.00000  Uiso   1.00
C200   C     0.01181   0.52489   0.28020   0.00000  Uiso   1.00
C201   C     0.03613   0.47513   0.21979   0.00000  Uiso   1.00
C202   C     0.29722   0.52490   0.28017   0.00000  Uiso   1.00
C203   C     0.13592   0.49994   0.33815   0.00000  Uiso   1.00
C204   C     0.19734   0.49918   0.16186   0.00000  Uiso   1.00
C205   C     0.11590   0.49899   0.38921   0.00000  Uiso   1.00
C206   C     0.21592   0.49134   0.11157   0.00000  Uiso   1.00
C207   C     0.05375   0.51723   0.46457   0.00000  Uiso   1.00
C208   C     0.26808   0.45251   0.04335   0.00000  Uiso   1.00
C209   C     0.06909   0.51439   0.41600   0.00000  Uiso   1.00
C210   C     0.25849   0.46793   0.08836   0.00000  Uiso   1.00
C211   C     0.14608   0.48426   0.41101   0.00000  Uiso   1.00
C212   C     0.18434   0.50050   0.08927   0.00000  Uiso   1.00
C213   C     0.13180   0.48623   0.45951   0.00000  Uiso   1.00
C214   C     0.19008   0.48197   0.04675   0.00000  Uiso   1.00
C215   C     0.08534   0.50394   0.48656   0.00000  Uiso   1.00
C216   C     0.23374   0.45927   0.02232   0.00000  Uiso   1.00
C217   C     0.16452   0.47432   0.48106   0.00000  Uiso   1.00
C218   C     0.15347   0.48616   0.02794   0.00000  Uiso   1.00
H219   H     0.03641   0.52062   0.05695   0.00000  Uiso   1.00
H220   H     0.27400   0.42563   0.45820   0.00000  Uiso   1.00
H221   H     0.15420   0.52145   0.10677   0.00000  Uiso   1.00
H222   H     0.18214   0.47359   0.38893   0.00000  Uiso   1.00
H223   H     0.09297   0.50547   0.09226   0.00000  Uiso   1.00
H224   H     0.21650   0.43783   0.42323   0.00000  Uiso   1.00
H225   H     0.24479   0.62797   0.21145   0.00000  Uiso   1.00
H226   H     0.08856   0.37203   0.28844   0.00000  Uiso   1.00
H227   H     0.31312   0.45526   0.19560   0.00000  Uiso   1.00
H228   H     0.02024   0.54477   0.30436   0.00000  Uiso   1.00
H229   H     0.06399   0.45522   0.19563   0.00000  Uiso   1.00
H230   H     0.26938   0.54485   0.30429   0.00000  Uiso   1.00
N231   N     0.04759   0.50001   0.25001   0.00000  Uiso   1.00
N232   N     0.28574   0.49999   0.24999   0.00000  Uiso   1.00
O233   O     0.12846   0.56108   0.25001   0.00000  Uiso   1.00
O234   O     0.20488   0.43892   0.25000   0.00000  Uiso   1.00
O235   O     0.20490   0.56107   0.25000   0.00000  Uiso   1.00
O236   O     0.12843   0.43893   0.25000   0.00000  Uiso   1.00
O237   O     0.10661   0.50001   0.31613   0.00000  Uiso   1.00
O238   O     0.22672   0.49999   0.18388   0.00000  Uiso   1.00
O239   O     0.18305   0.50000   0.31612   0.00000  Uiso   1.00
O240   O     0.15028   0.50000   0.18388   0.00000  Uiso   1.00
Zn241  Zn    0.11562   0.50001   0.25000   0.00000  Uiso   1.00
Zn242  Zn    0.21771   0.49999   0.25000   0.00000  Uiso   1.00
F243   F     0.28945   0.45848   0.11000   0.00000  Uiso   1.00
F244   F     0.03944   0.52892   0.39492   0.00000  Uiso   1.00
Cl245  Cl    0.32971   0.54077   0.49596   0.00000  Uiso   1.00
Cl246  Cl    0.32222   0.42325   0.01560   0.00000  Uiso   1.00
F247   F     0.25435   0.37435   0.20532   0.00000  Uiso   1.00
F248   F     0.07899   0.62567   0.29453   0.00000  Uiso   1.00
C249   C     0.49977   0.58000   0.25043   0.00000  Uiso   1.00
C250   C     0.50024   0.42000   0.24954   0.00000  Uiso   1.00
C251   C     0.43912   0.50089   0.05492   0.00000  Uiso   1.00
C252   C     0.54141   0.45146   0.45729   0.00000  Uiso   1.00
C253   C     0.40550   0.50897   0.03467   0.00000  Uiso   1.00
C254   C     0.57492   0.44360   0.47787   0.00000  Uiso   1.00
C255   C     0.54407   0.64485   0.22858   0.00000  Uiso   1.00
C256   C     0.45595   0.35515   0.27131   0.00000  Uiso   1.00
C257   C     0.54458   0.35428   0.22786   0.00000  Uiso   1.00
C258   C     0.45544   0.64573   0.27202   0.00000  Uiso   1.00
C259   C     0.50040   0.37588   0.24939   0.00000  Uiso   1.00
C260   C     0.49962   0.62413   0.25052   0.00000  Uiso   1.00
C261   C     0.65486   0.47514   0.21977   0.00000  Uiso   1.00
C262   C     0.34515   0.52489   0.28020   0.00000  Uiso   1.00
C263   C     0.36946   0.47513   0.21979   0.00000  Uiso   1.00
C264   C     0.63056   0.52490   0.28017   0.00000  Uiso   1.00
C265   C     0.46925   0.49994   0.33815   0.00000  Uiso   1.00
C266   C     0.53067   0.49918   0.16186   0.00000  Uiso   1.00
C267   C     0.44923   0.49899   0.38921   0.00000  Uiso   1.00
C268   C     0.54925   0.49134   0.11157   0.00000  Uiso   1.00
C269   C     0.38708   0.51723   0.46457   0.00000  Uiso   1.00
C270   C     0.60141   0.45251   0.04335   0.00000  Uiso   1.00
C271   C     0.40242   0.51439   0.41600   0.00000  Uiso   1.00
C272   C     0.59183   0.46793   0.08836   0.00000  Uiso   1.00
C273   C     0.47941   0.48426   0.41101   0.00000  Uiso   1.00
C274   C     0.51767   0.50050   0.08927   0.00000  Uiso   1.00
C275   C     0.46514   0.48623   0.45951   0.00000  Uiso   1.00
C276   C     0.52341   0.48197   0.04675   0.00000  Uiso   1.00
C277   C     0.41867   0.50394   0.48656   0.00000  Uiso   1.00
C278   C     0.56707   0.45927   0.02232   0.00000  Uiso   1.00
C279   C     0.49785   0.47432   0.48106   0.00000  Uiso   1.00
C280   C     0.48681   0.48616   0.02794   0.00000  Uiso   1.00
H281   H     0.36974   0.52062   0.05695   0.00000  Uiso   1.00
H282   H     0.60734   0.42563   0.45820   0.00000  Uiso   1.00
H283   H     0.48753   0.52145   0.10677   0.00000  Uiso   1.00
H284   H     0.51547   0.47359   0.38893   0.00000  Uiso   1.00
H285   H     0.42630   0.50547   0.09226   0.00000  Uiso   1.00
H286   H     0.54984   0.43783   0.42323   0.00000  Uiso   1.00
H287   H     0.57813   0.62797   0.21145   0.00000  Uiso   1.00
H288   H     0.42189   0.37203   0.28844   0.00000  Uiso   1.00
H289   H     0.64645   0.45526   0.19560   0.00000  Uiso   1.00
H290   H     0.35357   0.54477   0.30436   0.00000  Uiso   1.00
H291   H     0.39732   0.45522   0.19563   0.00000  Uiso   1.00
H292   H     0.60271   0.54485   0.30429   0.00000  Uiso   1.00
N293   N     0.38093   0.50001   0.25001   0.00000  Uiso   1.00
N294   N     0.61907   0.49999   0.24999   0.00000  Uiso   1.00
O295   O     0.46179   0.56108   0.25001   0.00000  Uiso   1.00
O296   O     0.53821   0.43892   0.25000   0.00000  Uiso   1.00
O297   O     0.53823   0.56107   0.25000   0.00000  Uiso   1.00
O298   O     0.46177   0.43893   0.25000   0.00000  Uiso   1.00
O299   O     0.43994   0.50001   0.31613   0.00000  Uiso   1.00
O300   O     0.56006   0.49999   0.18388   0.00000  Uiso   1.00
O301   O     0.51639   0.50000   0.31612   0.00000  Uiso   1.00
O302   O     0.48361   0.50000   0.18388   0.00000  Uiso   1.00
Zn303  Zn    0.44896   0.50001   0.25000   0.00000  Uiso   1.00
Zn304  Zn    0.55104   0.49999   0.25000   0.00000  Uiso   1.00
F305   F     0.62279   0.45848   0.11000   0.00000  Uiso   1.00
F306   F     0.37278   0.52892   0.39492   0.00000  Uiso   1.00
Cl307  Cl    0.66305   0.54077   0.49596   0.00000  Uiso   1.00
Cl308  Cl    0.65555   0.42325   0.01560   0.00000  Uiso   1.00
F309   F     0.58768   0.37435   0.20532   0.00000  Uiso   1.00
F310   F     0.41232   0.62567   0.29453   0.00000  Uiso   1.00
C311   C     0.83311   0.58000   0.25043   0.00000  Uiso   1.00
C312   C     0.83357   0.42000   0.24954   0.00000  Uiso   1.00
C313   C     0.77245   0.50089   0.05492   0.00000  Uiso   1.00
C314   C     0.87475   0.45146   0.45729   0.00000  Uiso   1.00
C315   C     0.73883   0.50897   0.03467   0.00000  Uiso   1.00
C316   C     0.90825   0.44360   0.47787   0.00000  Uiso   1.00
C317   C     0.87740   0.64485   0.22858   0.00000  Uiso   1.00
C318   C     0.78928   0.35515   0.27131   0.00000  Uiso   1.00
C319   C     0.87791   0.35428   0.22786   0.00000  Uiso   1.00
C320   C     0.78878   0.64573   0.27202   0.00000  Uiso   1.00
C321   C     0.83373   0.37588   0.24939   0.00000  Uiso   1.00
C322   C     0.83296   0.62413   0.25052   0.00000  Uiso   1.00
C323   C     0.98820   0.47514   0.21977   0.00000  Uiso   1.00
C324   C     0.67848   0.52489   0.28020   0.00000  Uiso   1.00
C325   C     0.70280   0.47513   0.21979   0.00000  Uiso   1.00
C326   C     0.96389   0.52490   0.28017   0.00000  Uiso   1.00
C327   C     0.80258   0.49994   0.33815   0.00000  Uiso   1.00
C328   C     0.86401   0.49918   0.16186   0.00000  Uiso   1.00
C329   C     0.78257   0.49899   0.38921   0.00000  Uiso   1.00
C330   C     0.88258   0.49134   0.11157   0.00000  Uiso   1.00
C331   C     0.72042   0.51723   0.46457   0.00000  Uiso   1.00
C332   C     0.93475   0.45251   0.04335   0.00000  Uiso   1.00
C333   C     0.73575   0.51439   0.41600   0.00000  Uiso   1.00
C334   C     0.92516   0.46793   0.08836   0.00000  Uiso   1.00
C335   C     0.81274   0.48426   0.41101   0.00000  Uiso   1.00
C336   C     0.85101   0.50050   0.08927   0.00000  Uiso   1.00
C337   C     0.79847   0.48623   0.45951   0.00000  Uiso   1.00
C338   C     0.85674   0.48197   0.04675   0.00000  Uiso   1.00
C339   C     0.75200   0.50394   0.48656   0.00000  Uiso   1.00
C340   C     0.90040   0.45927   0.02232   0.00000  Uiso   1.00
C341   C     0.83118   0.47432   0.48106   0.00000  Uiso   1.00
C342   C     0.82014   0.48616   0.02794   0.00000  Uiso   1.00
H343   H     0.70308   0.52062   0.05695   0.00000  Uiso   1.00
H344   H     0.94067   0.42563   0.45820   0.00000  Uiso   1.00
H345   H     0.82087   0.52145   0.10677   0.00000  Uiso   1.00
H346   H     0.84881   0.47359   0.38893   0.00000  Uiso   1.00
H347   H     0.75964   0.50547   0.09226   0.00000  Uiso   1.00
H348   H     0.88317   0.43783   0.42323   0.00000  Uiso   1.00
H349   H     0.91146   0.62797   0.21145   0.00000  Uiso   1.00
H350   H     0.75523   0.37203   0.28844   0.00000  Uiso   1.00
H351   H     0.97978   0.45526   0.19560   0.00000  Uiso   1.00
H352   H     0.68691   0.54477   0.30436   0.00000  Uiso   1.00
H353   H     0.73066   0.45522   0.19563   0.00000  Uiso   1.00
H354   H     0.93605   0.54485   0.30429   0.00000  Uiso   1.00
N355   N     0.71426   0.50001   0.25001   0.00000  Uiso   1.00
N356   N     0.95241   0.49999   0.24999   0.00000  Uiso   1.00
O357   O     0.79512   0.56108   0.25001   0.00000  Uiso   1.00
O358   O     0.87154   0.43892   0.25000   0.00000  Uiso   1.00
O359   O     0.87157   0.56107   0.25000   0.00000  Uiso   1.00
O360   O     0.79510   0.43893   0.25000   0.00000  Uiso   1.00
O361   O     0.77328   0.50001   0.31613   0.00000  Uiso   1.00
O362   O     0.89339   0.49999   0.18388   0.00000  Uiso   1.00
O363   O     0.84972   0.50000   0.31612   0.00000  Uiso   1.00
O364   O     0.81695   0.50000   0.18388   0.00000  Uiso   1.00
Zn365  Zn    0.78229   0.50001   0.25000   0.00000  Uiso   1.00
Zn366  Zn    0.88438   0.49999   0.25000   0.00000  Uiso   1.00
F367   F     0.95612   0.45848   0.11000   0.00000  Uiso   1.00
F368   F     0.70611   0.52892   0.39492   0.00000  Uiso   1.00
Cl369  Cl    0.99638   0.54077   0.49596   0.00000  Uiso   1.00
Cl370  Cl    0.98888   0.42325   0.01560   0.00000  Uiso   1.00
F371   F     0.92102   0.37435   0.20532   0.00000  Uiso   1.00
F372   F     0.74566   0.62567   0.29453   0.00000  Uiso   1.00
C373   C     0.16644   0.91333   0.25043   0.00000  Uiso   1.00
C374   C     0.16691   0.75334   0.24954   0.00000  Uiso   1.00
C375   C     0.10578   0.83422   0.05492   0.00000  Uiso   1.00
C376   C     0.20808   0.78479   0.45729   0.00000  Uiso   1.00
C377   C     0.07216   0.84231   0.03467   0.00000  Uiso   1.00
C378   C     0.24159   0.77693   0.47787   0.00000  Uiso   1.00
C379   C     0.21074   0.97819   0.22858   0.00000  Uiso   1.00
C380   C     0.12262   0.68849   0.27131   0.00000  Uiso   1.00
C381   C     0.21124   0.68761   0.22786   0.00000  Uiso   1.00
C382   C     0.12211   0.97907   0.27202   0.00000  Uiso   1.00
C383   C     0.16707   0.70921   0.24939   0.00000  Uiso   1.00
C384   C     0.16629   0.95746   0.25052   0.00000  Uiso   1.00
C385   C     0.32153   0.80847   0.21977   0.00000  Uiso   1.00
C386   C     0.01181   0.85822   0.28020   0.00000  Uiso   1.00
C387   C     0.03613   0.80846   0.21979   0.00000  Uiso   1.00
C388   C     0.29722   0.85824   0.28017   0.00000  Uiso   1.00
C389   C     0.13592   0.83327   0.33815   0.00000  Uiso   1.00
C390   C     0.19734   0.83251   0.16186   0.00000  Uiso   1.00
C391   C     0.11590   0.83233   0.38921   0.00000  Uiso   1.00
C392   C     0.21592   0.82467   0.11157   0.00000  Uiso   1.00
C393   C     0.05375   0.85057   0.46457   0.00000  Uiso   1.00
C394   C     0.26808   0.78584   0.04335   0.00000  Uiso   1.00
C395   C     0.06909   0.84772   0.41600   0.00000  Uiso   1.00
C396   C     0.25849   0.80127   0.08836   0.00000  Uiso   1.00
C397   C     0.14608   0.81759   0.41101   0.00000  Uiso   1.00
C398   C     0.18434   0.83384   0.08927   0.00000  Uiso   1.00
C399   C     0.13180   0.81956   0.45951   0.00000  Uiso   1.00
C400   C     0.19008   0.81530   0.04675   0.00000  Uiso   1.00
C401   C     0.08534   0.83727   0.48656   0.00000  Uiso   1.00
C402   C     0.23374   0.79260   0.02232   0.00000  Uiso   1.00
C403   C     0.16452   0.80766   0.48106   0.00000  Uiso   1.00
C404   C     0.15347   0.81949   0.02794   0.00000  Uiso   1.00
H405   H     0.03641   0.85396   0.05695   0.00000  Uiso   1.00
H406   H     0.27400   0.75896   0.45820   0.00000  Uiso   1.00
H407   H     0.15420   0.85479   0.10677   0.00000  Uiso   1.00
H408   H     0.18214   0.80692   0.38893   0.00000  Uiso   1.00
H409   H     0.09297   0.83881   0.09226   0.00000  Uiso   1.00
H410   H     0.21650   0.77116   0.42323   0.00000  Uiso   1.00
H411   H     0.24479   0.96131   0.21145   0.00000  Uiso   1.00
H412   H     0.08856   0.70537   0.28844   0.00000  Uiso   1.00
H413   H     0.31312   0.78859   0.19560   0.00000  Uiso   1.00
H414   H     0.02024   0.87811   0.30436   0.00000  Uiso   1.00
H415   H     0.06399   0.78856   0.19563   0.00000  Uiso   1.00
H416   H     0.26938   0.87818   0.30429   0.00000  Uiso   1.00
N417   N     0.04759   0.83334   0.25001   0.00000  Uiso   1.00
N418   N     0.28574   0.83332   0.24999   0.00000  Uiso   1.00
O419   O     0.12846   0.89442   0.25001   0.00000  Uiso   1.00
O420   O     0.20488   0.77225   0.25000   0.00000  Uiso   1.00
O421   O     0.20490   0.89441   0.25000   0.00000  Uiso   1.00
O422   O     0.12843   0.77226   0.25000   0.00000  Uiso   1.00
O423   O     0.10661   0.83334   0.31613   0.00000  Uiso   1.00
O424   O     0.22672   0.83333   0.18388   0.00000  Uiso   1.00
O425   O     0.18305   0.83333   0.31612   0.00000  Uiso   1.00
O426   O     0.15028   0.83334   0.18388   0.00000  Uiso   1.00
Zn427  Zn    0.11562   0.83334   0.25000   0.00000  Uiso   1.00
Zn428  Zn    0.21771   0.83333   0.25000   0.00000  Uiso   1.00
F429   F     0.28945   0.79181   0.11000   0.00000  Uiso   1.00
F430   F     0.03944   0.86225   0.39492   0.00000  Uiso   1.00
Cl431  Cl    0.32971   0.87410   0.49596   0.00000  Uiso   1.00
Cl432  Cl    0.32222   0.75658   0.01560   0.00000  Uiso   1.00
F433   F     0.25435   0.70768   0.20532   0.00000  Uiso   1.00
F434   F     0.07899   0.95900   0.29453   0.00000  Uiso   1.00
C435   C     0.49977   0.91333   0.25043   0.00000  Uiso   1.00
C436   C     0.50024   0.75334   0.24954   0.00000  Uiso   1.00
C437   C     0.43912   0.83422   0.05492   0.00000  Uiso   1.00
C438   C     0.54141   0.78479   0.45729   0.00000  Uiso   1.00
C439   C     0.40550   0.84231   0.03467   0.00000  Uiso   1.00
C440   C     0.57492   0.77693   0.47787   0.00000  Uiso   1.00
C441   C     0.54407   0.97819   0.22858   0.00000  Uiso   1.00
C442   C     0.45595   0.68849   0.27131   0.00000  Uiso   1.00
C443   C     0.54458   0.68761   0.22786   0.00000  Uiso   1.00
C444   C     0.45544   0.97907   0.27202   0.00000  Uiso   1.00
C445   C     0.50040   0.70921   0.24939   0.00000  Uiso   1.00
C446   C     0.49962   0.95746   0.25052   0.00000  Uiso   1.00
C447   C     0.65486   0.80847   0.21977   0.00000  Uiso   1.00
C448   C     0.34515   0.85822   0.28020   0.00000  Uiso   1.00
C449   C     0.36946   0.80846   0.21979   0.00000  Uiso   1.00
C450   C     0.63056   0.85824   0.28017   0.00000  Uiso   1.00
C451   C     0.46925   0.83327   0.33815   0.00000  Uiso   1.00
C452   C     0.53067   0.83251   0.16186   0.00000  Uiso   1.00
C453   C     0.44923   0.83233   0.38921   0.00000  Uiso   1.00
C454   C     0.54925   0.82467   0.11157   0.00000  Uiso   1.00
C455   C     0.38708   0.85057   0.46457   0.00000  Uiso   1.00
C456   C     0.60141   0.78584   0.04335   0.00000  Uiso   1.00
C457   C     0.40242   0.84772   0.41600   0.00000  Uiso   1.00
C458   C     0.59183   0.80127   0.08836   0.00000  Uiso   1.00
C459   C     0.47941   0.81759   0.41101   0.00000  Uiso   1.00
C460   C     0.51767   0.83384   0.08927   0.00000  Uiso   1.00
C461   C     0.46514   0.81956   0.45951   0.00000  Uiso   1.00
C462   C     0.52341   0.81530   0.04675   0.00000  Uiso   1.00
C463   C     0.41867   0.83727   0.48656   0.00000  Uiso   1.00
C464   C     0.56707   0.79260   0.02232   0.00000  Uiso   1.00
C465   C     0.49785   0.80766   0.48106   0.00000  Uiso   1.00
C466   C     0.48681   0.81949   0.02794   0.00000  Uiso   1.00
H467   H     0.36974   0.85396   0.05695   0.00000  Uiso   1.00
H468   H     0.60734   0.75896   0.45820   0.00000  Uiso   1.00
H469   H     0.48753   0.85479   0.10677   0.00000  Uiso   1.00
H470   H     0.51547   0.80692   0.38893   0.00000  Uiso   1.00
H471   H     0.42630   0.83881   0.09226   0.00000  Uiso   1.00
H472   H     0.54984   0.77116   0.42323   0.00000  Uiso   1.00
H473   H     0.57813   0.96131   0.21145   0.00000  Uiso   1.00
H474   H     0.42189   0.70537   0.28844   0.00000  Uiso   1.00
H475   H     0.64645   0.78859   0.19560   0.00000  Uiso   1.00
H476   H     0.35357   0.87811   0.30436   0.00000  Uiso   1.00
H477   H     0.39732   0.78856   0.19563   0.00000  Uiso   1.00
H478   H     0.60271   0.87818   0.30429   0.00000  Uiso   1.00
N479   N     0.38093   0.83334   0.25001   0.00000  Uiso   1.00
N480   N     0.61907   0.83332   0.24999   0.00000  Uiso   1.00
O481   O     0.46179   0.89442   0.25001   0.00000  Uiso   1.00
O482   O     0.53821   0.77225   0.25000   0.00000  Uiso   1.00
O483   O     0.53823   0.89441   0.25000   0.00000  Uiso   1.00
O484   O     0.46177   0.77226   0.25000   0.00000  Uiso   1.00
O485   O     0.43994   0.83334   0.31613   0.00000  Uiso   1.00
O486   O     0.56006   0.83333   0.18388   0.00000  Uiso   1.00
O487   O     0.51639   0.83333   0.31612   0.00000  Uiso   1.00
O488   O     0.48361   0.83334   0.18388   0.00000  Uiso   1.00
Zn489  Zn    0.44896   0.83334   0.25000   0.00000  Uiso   1.00
Zn490  Zn    0.55104   0.83333   0.25000   0.00000  Uiso   1.00
F491   F     0.62279   0.79181   0.11000   0.00000  Uiso   1.00
F492   F     0.37278   0.86225   0.39492   0.00000  Uiso   1.00
Cl493  Cl    0.66305   0.87410   0.49596   0.00000  Uiso   1.00
Cl494  Cl    0.65555   0.75658   0.01560   0.00000  Uiso   1.00
F495   F     0.58768   0.70768   0.20532   0.00000  Uiso   1.00
F496   F     0.41232   0.95900   0.29453   0.00000  Uiso   1.00
C497   C     0.83311   0.91333   0.25043   0.00000  Uiso   1.00
C498   C     0.83357   0.75334   0.24954   0.00000  Uiso   1.00
C499   C     0.77245   0.83422   0.05492   0.00000  Uiso   1.00
C500   C     0.87475   0.78479   0.45729   0.00000  Uiso   1.00
C501   C     0.73883   0.84231   0.03467   0.00000  Uiso   1.00
C502   C     0.90825   0.77693   0.47787   0.00000  Uiso   1.00
C503   C     0.87740   0.97819   0.22858   0.00000  Uiso   1.00
C504   C     0.78928   0.68849   0.27131   0.00000  Uiso   1.00
C505   C     0.87791   0.68761   0.22786   0.00000  Uiso   1.00
C506   C     0.78878   0.97907   0.27202   0.00000  Uiso   1.00
C507   C     0.83373   0.70921   0.24939   0.00000  Uiso   1.00
C508   C     0.83296   0.95746   0.25052   0.00000  Uiso   1.00
C509   C     0.98820   0.80847   0.21977   0.00000  Uiso   1.00
C510   C     0.67848   0.85822   0.28020   0.00000  Uiso   1.00
C511   C     0.70280   0.80846   0.21979   0.00000  Uiso   1.00
C512   C     0.96389   0.85824   0.28017   0.00000  Uiso   1.00
C513   C     0.80258   0.83327   0.33815   0.00000  Uiso   1.00
C514   C     0.86401   0.83251   0.16186   0.00000  Uiso   1.00
C515   C     0.78257   0.83233   0.38921   0.00000  Uiso   1.00
C516   C     0.88258   0.82467   0.11157   0.00000  Uiso   1.00
C517   C     0.72042   0.85057   0.46457   0.00000  Uiso   1.00
C518   C     0.93475   0.78584   0.04335   0.00000  Uiso   1.00
C519   C     0.73575   0.84772   0.41600   0.00000  Uiso   1.00
C520   C     0.92516   0.80127   0.08836   0.00000  Uiso   1.00
C521   C     0.81274   0.81759   0.41101   0.00000  Uiso   1.00
C522   C     0.85101   0.83384   0.08927   0.00000  Uiso   1.00
C523   C     0.79847   0.81956   0.45951   0.00000  Uiso   1.00
C524   C     0.85674   0.81530   0.04675   0.00000  Uiso   1.00
C525   C     0.75200   0.83727   0.48656   0.00000  Uiso   1.00
C526   C     0.90040   0.79260   0.02232   0.00000  Uiso   1.00
C527   C     0.83118   0.80766   0.48106   0.00000  Uiso   1.00
C528   C     0.82014   0.81949   0.02794   0.00000  Uiso   1.00
H529   H     0.70308   0.85396   0.05695   0.00000  Uiso   1.00
H530   H     0.94067   0.75896   0.45820   0.00000  Uiso   1.00
H531   H     0.82087   0.85479   0.10677   0.00000  Uiso   1.00
H532   H     0.84881   0.80692   0.38893   0.00000  Uiso   1.00
H533   H     0.75964   0.83881   0.09226   0.00000  Uiso   1.00
H534   H     0.88317   0.77116   0.42323   0.00000  Uiso   1.00
H535   H     0.91146   0.96131   0.21145   0.00000  Uiso   1.00
H536   H     0.75523   0.70537   0.28844   0.00000  Uiso   1.00
H537   H     0.97978   0.78859   0.19560   0.00000  Uiso   1.00
H538   H     0.68691   0.87811   0.30436   0.00000  Uiso   1.00
H539   H     0.73066   0.78856   0.19563   0.00000  Uiso   1.00
H540   H     0.93605   0.87818   0.30429   0.00000  Uiso   1.00
N541   N     0.71426   0.83334   0.25001   0.00000  Uiso   1.00
N542   N     0.95241   0.83332   0.24999   0.00000  Uiso   1.00
O543   O     0.79512   0.89442   0.25001   0.00000  Uiso   1.00
O544   O     0.87154   0.77225   0.25000   0.00000  Uiso   1.00
O545   O     0.87157   0.89441   0.25000   0.00000  Uiso   1.00
O546   O     0.79510   0.77226   0.25000   0.00000  Uiso   1.00
O547   O     0.77328   0.83334   0.31613   0.00000  Uiso   1.00
O548   O     0.89339   0.83333   0.18388   0.00000  Uiso   1.00
O549   O     0.84972   0.83333   0.31612   0.00000  Uiso   1.00
O550   O     0.81695   0.83334   0.18388   0.00000  Uiso   1.00
Zn551  Zn    0.78229   0.83334   0.25000   0.00000  Uiso   1.00
Zn552  Zn    0.88438   0.83333   0.25000   0.00000  Uiso   1.00
F553   F     0.95612   0.79181   0.11000   0.00000  Uiso   1.00
F554   F     0.70611   0.86225   0.39492   0.00000  Uiso   1.00
Cl555  Cl    0.99638   0.87410   0.49596   0.00000  Uiso   1.00
Cl556  Cl    0.98888   0.75658   0.01560   0.00000  Uiso   1.00
F557   F     0.92102   0.70768   0.20532   0.00000  Uiso   1.00
F558   F     0.74566   0.95900   0.29453   0.00000  Uiso   1.00
C559   C     0.16644   0.24667   0.75043   0.00000  Uiso   1.00
C560   C     0.16691   0.08667   0.74954   0.00000  Uiso   1.00
C561   C     0.10578   0.16756   0.55492   0.00000  Uiso   1.00
C562   C     0.20808   0.11813   0.95729   0.00000  Uiso   1.00
C563   C     0.07216   0.17564   0.53467   0.00000  Uiso   1.00
C564   C     0.24159   0.11026   0.97787   0.00000  Uiso   1.00
C565   C     0.21074   0.31152   0.72858   0.00000  Uiso   1.00
C566   C     0.12262   0.02182   0.77131   0.00000  Uiso   1.00
C567   C     0.21124   0.02095   0.72786   0.00000  Uiso   1.00
C568   C     0.12211   0.31240   0.77202   0.00000  Uiso   1.00
C569   C     0.16707   0.04255   0.74939   0.00000  Uiso   1.00
C570   C     0.16629   0.29079   0.75052   0.00000  Uiso   1.00
C571   C     0.32153   0.14180   0.71977   0.00000  Uiso   1.00
C572   C     0.01181   0.19155   0.78020   0.00000  Uiso   1.00
C573   C     0.03613   0.14180   0.71979   0.00000  Uiso   1.00
C574   C     0.29722   0.19157   0.78017   0.00000  Uiso   1.00
C575   C     0.13592   0.16661   0.83815   0.00000  Uiso   1.00
C576   C     0.19734   0.16585   0.66186   0.00000  Uiso   1.00
C577   C     0.11590   0.16566   0.88921   0.00000  Uiso   1.00
C578   C     0.21592   0.15801   0.61157   0.00000  Uiso   1.00
C579   C     0.05375   0.18390   0.96457   0.00000  Uiso   1.00
C580   C     0.26808   0.11918   0.54335   0.00000  Uiso   1.00
C581   C     0.06909   0.18106   0.91600   0.00000  Uiso   1.00
C582   C     0.25849   0.13460   0.58836   0.00000  Uiso   1.00
C583   C     0.14608   0.15093   0.91101   0.00000  Uiso   1.00
C584   C     0.18434   0.16717   0.58927   0.00000  Uiso   1.00
C585   C     0.13180   0.15289   0.95951   0.00000  Uiso   1.00
C586   C     0.19008   0.14863   0.54675   0.00000  Uiso   1.00
C587   C     0.08534   0.17060   0.98656   0.00000  Uiso   1.00
C588   C     0.23374   0.12593   0.52232   0.00000  Uiso   1.00
C589   C     0.16452   0.14099   0.98106   0.00000  Uiso   1.00
C590   C     0.15347   0.15282   0.52794   0.00000  Uiso   1.00
H591   H     0.03641   0.18729   0.55695   0.00000  Uiso   1.00
H592   H     0.27400   0.09230   0.95820   0.00000  Uiso   1.00
H593   H     0.15420   0.18812   0.60677   0.00000  Uiso   1.00
H594   H     0.18214   0.14026   0.88893   0.00000  Uiso   1.00
H595   H     0.09297   0.17214   0.59226   0.00000  Uiso   1.00
H596   H     0.21650   0.10449   0.92323   0.00000  Uiso   1.00
H597   H     0.24479   0.29464   0.71145   0.00000  Uiso   1.00
H598   H     0.08856   0.03870   0.78844   0.00000  Uiso   1.00
H599   H     0.31312   0.12193   0.69560   0.00000  Uiso   1.00
H600   H     0.02024   0.21144   0.80436   0.00000  Uiso   1.00
H601   H     0.06399   0.12189   0.69563   0.00000  Uiso   1.00
H602   H     0.26938   0.21152   0.80429   0.00000  Uiso   1.00
N603   N     0.04759   0.16668   0.75001   0.00000  Uiso   1.00
N604   N     0.28574   0.16666   0.74999   0.00000  Uiso   1.00
O605   O     0.12846   0.22775   0.75001   0.00000  Uiso   1.00
O606   O     0.20488   0.10558   0.75000   0.00000  Uiso   1.00
O607   O     0.20490   0.22774   0.75000   0.00000  Uiso   1.00
O608   O     0.12843   0.10559   0.75000   0.00000  Uiso   1.00
O609   O     0.10661   0.16667   0.81613   0.00000  Uiso   1.00
O610   O     0.22672   0.16666   0.68388   0.00000  Uiso   1.00
O611   O     0.18305   0.16666   0.81612   0.00000  Uiso   1.00
O612   O     0.15028   0.16667   0.68388   0.00000  Uiso   1.00
Zn613  Zn    0.11562   0.16667   0.75000   0.00000  Uiso   1.00
Zn614  Zn    0.21771   0.16666   0.75000   0.00000  Uiso   1.00
F615   F     0.28945   0.12514   0.61000   0.00000  Uiso   1.00
F616   F     0.03944   0.19559   0.89492   0.00000  Uiso   1.00
Cl617  Cl    0.32971   0.20743   0.99596   0.00000  Uiso   1.00
Cl618  Cl    0.32222   0.08991   0.51560   0.00000  Uiso   1.00
F619   F     0.25435   0.04102   0.70532   0.00000  Uiso   1.00
F620   F     0.07899   0.29234   0.79453   0.00000  Uiso   1.00
C621   C     0.49977   0.24667   0.75043   0.00000  Uiso   1.00
C622   C     0.50024   0.08667   0.74954   0.00000  Uiso   1.00
C623   C     0.43912   0.16756   0.55492   0.00000  Uiso   1.00
C624   C     0.54141   0.11813   0.95729   0.00000  Uiso   1.00
C625   C     0.40550   0.17564   0.53467   0.00000  Uiso   1.00
C626   C     0.57492   0.11026   0.97787   0.00000  Uiso   1.00
C627   C     0.54407   0.31152   0.72858   0.00000  Uiso   1.00
C628   C     0.45595   0.02182   0.77131   0.00000  Uiso   1.00
C629   C     0.54458   0.02095   0.72786   0.00000  Uiso   1.00
C630   C     0.45544   0.31240   0.77202   0.00000  Uiso   1.00
C631   C     0.50040   0.04255   0.74939   0.00000  Uiso   1.00
C632   C     0.49962   0.29079   0.75052   0.00000  Uiso   1.00
C633   C     0.65486   0.14180   0.71977   0.00000  Uiso   1.00
C634   C     0.34515   0.19155   0.78020   0.00000  Uiso   1.00
C635   C     0.36946   0.14180   0.71979   0.00000  Uiso   1.00
C636   C     0.63056   0.19157   0.78017   0.00000  Uiso   1.00
C637   C     0.46925   0.16661   0.83815   0.00000  Uiso   1.00
C638   C     0.53067   0.16585   0.66186   0.00000  Uiso   1.00
C639   C     0.44923   0.16566   0.88921   0.00000  Uiso   1.00
C640   C     0.54925   0.15801   0.61157   0.00000  Uiso   1.00
C641   C     0.38708   0.18390   0.96457   0.00000  Uiso   1.00
C642   C     0.60141   0.11918   0.54335   0.00000  Uiso   1.00
C643   C     0.40242   0.18106   0.91600   0.00000  Uiso   1.00
C644   C     0.59183   0.13460   0.58836   0.00000  Uiso   1.00
C645   C     0.47941   0.15093   0.91101   0.00000  Uiso   1.00
C646   C     0.51767   0.16717   0.58927   0.00000  Uiso   1.00
C647   C     0.46514   0.15289   0.95951   0.00000  Uiso   1.00
C648   C     0.52341   0.14863   0.54675   0.00000  Uiso   1.00
C649   C     0.41867   0.17060   0.98656   0.00000  Uiso   1.00
C650   C     0.56707   0.12593   0.52232   0.00000  Uiso   1.00
C651   C     0.49785   0.14099   0.98106   0.00000  Uiso   1.00
C652   C     0.48681   0.15282   0.52794   0.00000  Uiso   1.00
H653   H     0.36974   0.18729   0.55695   0.00000  Uiso   1.00
H654   H     0.60734   0.09230   0.95820   0.00000  Uiso   1.00
H655   H     0.48753   0.18812   0.60677   0.00000  Uiso   1.00
H656   H     0.51547   0.14026   0.88893   0.00000  Uiso   1.00
H657   H     0.42630   0.17214   0.59226   0.00000  Uiso   1.00
H658   H     0.54984   0.10449   0.92323   0.00000  Uiso   1.00
H659   H     0.57813   0.29464   0.71145   0.00000  Uiso   1.00
H660   H     0.42189   0.03870   0.78844   0.00000  Uiso   1.00
H661   H     0.64645   0.12193   0.69560   0.00000  Uiso   1.00
H662   H     0.35357   0.21144   0.80436   0.00000  Uiso   1.00
H663   H     0.39732   0.12189   0.69563   0.00000  Uiso   1.00
H664   H     0.60271   0.21152   0.80429   0.00000  Uiso   1.00
N665   N     0.38093   0.16668   0.75001   0.00000  Uiso   1.00
N666   N     0.61907   0.16666   0.74999   0.00000  Uiso   1.00
O667   O     0.46179   0.22775   0.75001   0.00000  Uiso   1.00
O668   O     0.53821   0.10558   0.75000   0.00000  Uiso   1.00
O669   O     0.53823   0.22774   0.75000   0.00000  Uiso   1.00
O670   O     0.46177   0.10559   0.75000   0.00000  Uiso   1.00
O671   O     0.43994   0.16667   0.81613   0.00000  Uiso   1.00
O672   O     0.56006   0.16666   0.68388   0.00000  Uiso   1.00
O673   O     0.51639   0.16666   0.81612   0.00000  Uiso   1.00
O674   O     0.48361   0.16667   0.68388   0.00000  Uiso   1.00
Zn675  Zn    0.44896   0.16667   0.75000   0.00000  Uiso   1.00
Zn676  Zn    0.55104   0.16666   0.75000   0.00000  Uiso   1.00
F677   F     0.62279   0.12514   0.61000   0.00000  Uiso   1.00
F678   F     0.37278   0.19559   0.89492   0.00000  Uiso   1.00
Cl679  Cl    0.66305   0.20743   0.99596   0.00000  Uiso   1.00
Cl680  Cl    0.65555   0.08991   0.51560   0.00000  Uiso   1.00
F681   F     0.58768   0.04102   0.70532   0.00000  Uiso   1.00
F682   F     0.41232   0.29234   0.79453   0.00000  Uiso   1.00
C683   C     0.83311   0.24667   0.75043   0.00000  Uiso   1.00
C684   C     0.83357   0.08667   0.74954   0.00000  Uiso   1.00
C685   C     0.77245   0.16756   0.55492   0.00000  Uiso   1.00
C686   C     0.87475   0.11813   0.95729   0.00000  Uiso   1.00
C687   C     0.73883   0.17564   0.53467   0.00000  Uiso   1.00
C688   C     0.90825   0.11026   0.97787   0.00000  Uiso   1.00
C689   C     0.87740   0.31152   0.72858   0.00000  Uiso   1.00
C690   C     0.78928   0.02182   0.77131   0.00000  Uiso   1.00
C691   C     0.87791   0.02095   0.72786   0.00000  Uiso   1.00
C692   C     0.78878   0.31240   0.77202   0.00000  Uiso   1.00
C693   C     0.83373   0.04255   0.74939   0.00000  Uiso   1.00
C694   C     0.83296   0.29079   0.75052   0.00000  Uiso   1.00
C695   C     0.98820   0.14180   0.71977   0.00000  Uiso   1.00
C696   C     0.67848   0.19155   0.78020   0.00000  Uiso   1.00
C697   C     0.70280   0.14180   0.71979   0.00000  Uiso   1.00
C698   C     0.96389   0.19157   0.78017   0.00000  Uiso   1.00
C699   C     0.80258   0.16661   0.83815   0.00000  Uiso   1.00
C700   C     0.86401   0.16585   0.66186   0.00000  Uiso   1.00
C701   C     0.78257   0.16566   0.88921   0.00000  Uiso   1.00
C702   C     0.88258   0.15801   0.61157   0.00000  Uiso   1.00
C703   C     0.72042   0.18390   0.96457   0.00000  Uiso   1.00
C704   C     0.93475   0.11918   0.54335   0.00000  Uiso   1.00
C705   C     0.73575   0.18106   0.91600   0.00000  Uiso   1.00
C706   C     0.92516   0.13460   0.58836   0.00000  Uiso   1.00
C707   C     0.81274   0.15093   0.91101   0.00000  Uiso   1.00
C708   C     0.85101   0.16717   0.58927   0.00000  Uiso   1.00
C709   C     0.79847   0.15289   0.95951   0.00000  Uiso   1.00
C710   C     0.85674   0.14863   0.54675   0.00000  Uiso   1.00
C711   C     0.75200   0.17060   0.98656   0.00000  Uiso   1.00
C712   C     0.90040   0.12593   0.52232   0.00000  Uiso   1.00
C713   C     0.83118   0.14099   0.98106   0.00000  Uiso   1.00
C714   C     0.82014   0.15282   0.52794   0.00000  Uiso   1.00
H715   H     0.70308   0.18729   0.55695   0.00000  Uiso   1.00
H716   H     0.94067   0.09230   0.95820   0.00000  Uiso   1.00
H717   H     0.82087   0.18812   0.60677   0.00000  Uiso   1.00
H718   H     0.84881   0.14026   0.88893   0.00000  Uiso   1.00
H719   H     0.75964   0.17214   0.59226   0.00000  Uiso   1.00
H720   H     0.88317   0.10449   0.92323   0.00000  Uiso   1.00
H721   H     0.91146   0.29464   0.71145   0.00000  Uiso   1.00
H722   H     0.75523   0.03870   0.78844   0.00000  Uiso   1.00
H723   H     0.97978   0.12193   0.69560   0.00000  Uiso   1.00
H724   H     0.68691   0.21144   0.80436   0.00000  Uiso   1.00
H725   H     0.73066   0.12189   0.69563   0.00000  Uiso   1.00
H726   H     0.93605   0.21152   0.80429   0.00000  Uiso   1.00
N727   N     0.71426   0.16668   0.75001   0.00000  Uiso   1.00
N728   N     0.95241   0.16666   0.74999   0.00000  Uiso   1.00
O729   O     0.79512   0.22775   0.75001   0.00000  Uiso   1.00
O730   O     0.87154   0.10558   0.75000   0.00000  Uiso   1.00
O731   O     0.87157   0.22774   0.75000   0.00000  Uiso   1.00
O732   O     0.79510   0.10559   0.75000   0.00000  Uiso   1.00
O733   O     0.77328   0.16667   0.81613   0.00000  Uiso   1.00
O734   O     0.89339   0.16666   0.68388   0.00000  Uiso   1.00
O735   O     0.84972   0.16666   0.81612   0.00000  Uiso   1.00
O736   O     0.81695   0.16667   0.68388   0.00000  Uiso   1.00
Zn737  Zn    0.78229   0.16667   0.75000   0.00000  Uiso   1.00
Zn738  Zn    0.88438   0.16666   0.75000   0.00000  Uiso   1.00
F739   F     0.95612   0.12514   0.61000   0.00000  Uiso   1.00
F740   F     0.70611   0.19559   0.89492   0.00000  Uiso   1.00
Cl741  Cl    0.99638   0.20743   0.99596   0.00000  Uiso   1.00
Cl742  Cl    0.98888   0.08991   0.51560   0.00000  Uiso   1.00
F743   F     0.92102   0.04102   0.70532   0.00000  Uiso   1.00
F744   F     0.74566   0.29234   0.79453   0.00000  Uiso   1.00
C745   C     0.16644   0.58000   0.75043   0.00000  Uiso   1.00
C746   C     0.16691   0.42000   0.74954   0.00000  Uiso   1.00
C747   C     0.10578   0.50089   0.55492   0.00000  Uiso   1.00
C748   C     0.20808   0.45146   0.95729   0.00000  Uiso   1.00
C749   C     0.07216   0.50897   0.53467   0.00000  Uiso   1.00
C750   C     0.24159   0.44360   0.97787   0.00000  Uiso   1.00
C751   C     0.21074   0.64485   0.72858   0.00000  Uiso   1.00
C752   C     0.12262   0.35515   0.77131   0.00000  Uiso   1.00
C753   C     0.21124   0.35428   0.72786   0.00000  Uiso   1.00
C754   C     0.12211   0.64573   0.77202   0.00000  Uiso   1.00
C755   C     0.16707   0.37588   0.74939   0.00000  Uiso   1.00
C756   C     0.16629   0.62413   0.75052   0.00000  Uiso   1.00
C757   C     0.32153   0.47514   0.71977   0.00000  Uiso   1.00
C758   C     0.01181   0.52489   0.78020   0.00000  Uiso   1.00
C759   C     0.03613   0.47513   0.71979   0.00000  Uiso   1.00
C760   C     0.29722   0.52490   0.78017   0.00000  Uiso   1.00
C761   C     0.13592   0.49994   0.83815   0.00000  Uiso   1.00
C762   C     0.19734   0.49918   0.66186   0.00000  Uiso   1.00
C763   C     0.11590   0.49899   0.88921   0.00000  Uiso   1.00
C764   C     0.21592   0.49134   0.61157   0.00000  Uiso   1.00
C765   C     0.05375   0.51723   0.96457   0.00000  Uiso   1.00
C766   C     0.26808   0.45251   0.54335   0.00000  Uiso   1.00
C767   C     0.06909   0.51439   0.91600   0.00000  Uiso   1.00
C768   C     0.25849   0.46793   0.58836   0.00000  Uiso   1.00
C769   C     0.14608   0.48426   0.91101   0.00000  Uiso   1.00
C770   C     0.18434   0.50050   0.58927   0.00000  Uiso   1.00
C771   C     0.13180   0.48623   0.95951   0.00000  Uiso   1.00
C772   C     0.19008   0.48197   0.54675   0.00000  Uiso   1.00
C773   C     0.08534   0.50394   0.98656   0.00000  Uiso   1.00
C774   C     0.23374   0.45927   0.52232   0.00000  Uiso   1.00
C775   C     0.16452   0.47432   0.98106   0.00000  Uiso   1.00
C776   C     0.15347   0.48616   0.52794   0.00000  Uiso   1.00
H777   H     0.03641   0.52062   0.55695   0.00000  Uiso   1.00
H778   H     0.27400   0.42563   0.95820   0.00000  Uiso   1.00
H779   H     0.15420   0.52145   0.60677   0.00000  Uiso   1.00
H780   H     0.18214   0.47359   0.88893   0.00000  Uiso   1.00
H781   H     0.09297   0.50547   0.59226   0.00000  Uiso   1.00
H782   H     0.21650   0.43783   0.92323   0.00000  Uiso   1.00
H783   H     0.24479   0.62797   0.71145   0.00000  Uiso   1.00
H784   H     0.08856   0.37203   0.78844   0.00000  Uiso   1.00
H785   H     0.31312   0.45526   0.69560   0.00000  Uiso   1.00
H786   H     0.02024   0.54477   0.80436   0.00000  Uiso   1.00
H787   H     0.06399   0.45522   0.69563   0.00000  Uiso   1.00
H788   H     0.26938   0.54485   0.80429   0.00000  Uiso   1.00
N789   N     0.04759   0.50001   0.75001   0.00000  Uiso   1.00
N790   N     0.28574   0.49999   0.74999   0.00000  Uiso   1.00
O791   O     0.12846   0.56108   0.75001   0.00000  Uiso   1.00
O792   O     0.20488   0.43892   0.75000   0.00000  Uiso   1.00
O793   O     0.20490   0.56107   0.75000   0.00000  Uiso   1.00
O794   O     0.12843   0.43893   0.75000   0.00000  Uiso   1.00
O795   O     0.10661   0.50001   0.81613   0.00000  Uiso   1.00
O796   O     0.22672   0.49999   0.68388   0.00000  Uiso   1.00
O797   O     0.18305   0.50000   0.81612   0.00000  Uiso   1.00
O798   O     0.15028   0.50000   0.68388   0.00000  Uiso   1.00
Zn799  Zn    0.11562   0.50001   0.75000   0.00000  Uiso   1.00
Zn800  Zn    0.21771   0.49999   0.75000   0.00000  Uiso   1.00
F801   F     0.28945   0.45848   0.61000   0.00000  Uiso   1.00
F802   F     0.03944   0.52892   0.89492   0.00000  Uiso   1.00
Cl803  Cl    0.32971   0.54077   0.99596   0.00000  Uiso   1.00
Cl804  Cl    0.32222   0.42325   0.51560   0.00000  Uiso   1.00
F805   F     0.25435   0.37435   0.70532   0.00000  Uiso   1.00
F806   F     0.07899   0.62567   0.79453   0.00000  Uiso   1.00
C807   C     0.49977   0.58000   0.75043   0.00000  Uiso   1.00
C808   C     0.50024   0.42000   0.74954   0.00000  Uiso   1.00
C809   C     0.43912   0.50089   0.55492   0.00000  Uiso   1.00
C810   C     0.54141   0.45146   0.95729   0.00000  Uiso   1.00
C811   C     0.40550   0.50897   0.53467   0.00000  Uiso   1.00
C812   C     0.57492   0.44360   0.97787   0.00000  Uiso   1.00
C813   C     0.54407   0.64485   0.72858   0.00000  Uiso   1.00
C814   C     0.45595   0.35515   0.77131   0.00000  Uiso   1.00
C815   C     0.54458   0.35428   0.72786   0.00000  Uiso   1.00
C816   C     0.45544   0.64573   0.77202   0.00000  Uiso   1.00
C817   C     0.50040   0.37588   0.74939   0.00000  Uiso   1.00
C818   C     0.49962   0.62413   0.75052   0.00000  Uiso   1.00
C819   C     0.65486   0.47514   0.71977   0.00000  Uiso   1.00
C820   C     0.34515   0.52489   0.78020   0.00000  Uiso   1.00
C821   C     0.36946   0.47513   0.71979   0.00000  Uiso   1.00
C822   C     0.63056   0.52490   0.78017   0.00000  Uiso   1.00
C823   C     0.46925   0.49994   0.83815   0.00000  Uiso   1.00
C824   C     0.53067   0.49918   0.66186   0.00000  Uiso   1.00
C825   C     0.44923   0.49899   0.88921   0.00000  Uiso   1.00
C826   C     0.54925   0.49134   0.61157   0.00000  Uiso   1.00
C827   C     0.38708   0.51723   0.96457   0.00000  Uiso   1.00
C828   C     0.60141   0.45251   0.54335   0.00000  Uiso   1.00
C829   C     0.40242   0.51439   0.91600   0.00000  Uiso   1.00
C830   C     0.59183   0.46793   0.58836   0.00000  Uiso   1.00
C831   C     0.47941   0.48426   0.91101   0.00000  Uiso   1.00
C832   C     0.51767   0.50050   0.58927   0.00000  Uiso   1.00
C833   C     0.46514   0.48623   0.95951   0.00000  Uiso   1.00
C834   C     0.52341   0.48197   0.54675   0.00000  Uiso   1.00
C835   C     0.41867   0.50394   0.98656   0.00000  Uiso   1.00
C836   C     0.56707   0.45927   0.52232   0.00000  Uiso   1.00
C837   C     0.49785   0.47432   0.98106   0.00000  Uiso   1.00
C838   C     0.48681   0.48616   0.52794   0.00000  Uiso   1.00
H839   H     0.36974   0.52062   0.55695   0.00000  Uiso   1.00
H840   H     0.60734   0.42563   0.95820   0.00000  Uiso   1.00
H841   H     0.48753   0.52145   0.60677   0.00000  Uiso   1.00
H842   H     0.51547   0.47359   0.88893   0.00000  Uiso   1.00
H843   H     0.42630   0.50547   0.59226   0.00000  Uiso   1.00
H844   H     0.54984   0.43783   0.92323   0.00000  Uiso   1.00
H845   H     0.57813   0.62797   0.71145   0.00000  Uiso   1.00
H846   H     0.42189   0.37203   0.78844   0.00000  Uiso   1.00
H847   H     0.64645   0.45526   0.69560   0.00000  Uiso   1.00
H848   H     0.35357   0.54477   0.80436   0.00000  Uiso   1.00
H849   H     0.39732   0.45522   0.69563   0.00000  Uiso   1.00
H850   H     0.60271   0.54485   0.80429   0.00000  Uiso   1.00
N851   N     0.38093   0.50001   0.75001   0.00000  Uiso   1.00
N852   N     0.61907   0.49999   0.74999   0.00000  Uiso   1.00
O853   O     0.46179   0.56108   0.75001   0.00000  Uiso   1.00
O854   O     0.53821   0.43892   0.75000   0.00000  Uiso   1.00
O855   O     0.53823   0.56107   0.75000   0.00000  Uiso   1.00
O856   O     0.46177   0.43893   0.75000   0.00000  Uiso   1.00
O857   O     0.43994   0.50001   0.81613   0.00000  Uiso   1.00
O858   O     0.56006   0.49999   0.68388   0.00000  Uiso   1.00
O859   O     0.51639   0.50000   0.81612   0.00000  Uiso   1.00
O860   O     0.48361   0.50000   0.68388   0.00000  Uiso   1.00
Zn861  Zn    0.44896   0.50001   0.75000   0.00000  Uiso   1.00
Zn862  Zn    0.55104   0.49999   0.75000   0.00000  Uiso   1.00
F863   F     0.62279   0.45848   0.61000   0.00000  Uiso   1.00
F864   F     0.37278   0.52892   0.89492   0.00000  Uiso   1.00
Cl865  Cl    0.66305   0.54077   0.99596   0.00000  Uiso   1.00
Cl866  Cl    0.65555   0.42325   0.51560   0.00000  Uiso   1.00
F867   F     0.58768   0.37435   0.70532   0.00000  Uiso   1.00
F868   F     0.41232   0.62567   0.79453   0.00000  Uiso   1.00
C869   C     0.83311   0.58000   0.75043   0.00000  Uiso   1.00
C870   C     0.83357   0.42000   0.74954   0.00000  Uiso   1.00
C871   C     0.77245   0.50089   0.55492   0.00000  Uiso   1.00
C872   C     0.87475   0.45146   0.95729   0.00000  Uiso   1.00
C873   C     0.73883   0.50897   0.53467   0.00000  Uiso   1.00
C874   C     0.90825   0.44360   0.97787   0.00000  Uiso   1.00
C875   C     0.87740   0.64485   0.72858   0.00000  Uiso   1.00
C876   C     0.78928   0.35515   0.77131   0.00000  Uiso   1.00
C877   C     0.87791   0.35428   0.72786   0.00000  Uiso   1.00
C878   C     0.78878   0.64573   0.77202   0.00000  Uiso   1.00
C879   C     0.83373   0.37588   0.74939   0.00000  Uiso   1.00
C880   C     0.83296   0.62413   0.75052   0.00000  Uiso   1.00
C881   C     0.98820   0.47514   0.71977   0.00000  Uiso   1.00
C882   C     0.67848   0.52489   0.78020   0.00000  Uiso   1.00
C883   C     0.70280   0.47513   0.71979   0.00000  Uiso   1.00
C884   C     0.96389   0.52490   0.78017   0.00000  Uiso   1.00
C885   C     0.80258   0.49994   0.83815   0.00000  Uiso   1.00
C886   C     0.86401   0.49918   0.66186   0.00000  Uiso   1.00
C887   C     0.78257   0.49899   0.88921   0.00000  Uiso   1.00
C888   C     0.88258   0.49134   0.61157   0.00000  Uiso   1.00
C889   C     0.72042   0.51723   0.96457   0.00000  Uiso   1.00
C890   C     0.93475   0.45251   0.54335   0.00000  Uiso   1.00
C891   C     0.73575   0.51439   0.91600   0.00000  Uiso   1.00
C892   C     0.92516   0.46793   0.58836   0.00000  Uiso   1.00
C893   C     0.81274   0.48426   0.91101   0.00000  Uiso   1.00
C894   C     0.85101   0.50050   0.58927   0.00000  Uiso   1.00
C895   C     0.79847   0.48623   0.95951   0.00000  Uiso   1.00
C896   C     0.85674   0.48197   0.54675   0.00000  Uiso   1.00
C897   C     0.75200   0.50394   0.98656   0.00000  Uiso   1.00
C898   C     0.90040   0.45927   0.52232   0.00000  Uiso   1.00
C899   C     0.83118   0.47432   0.98106   0.00000  Uiso   1.00
C900   C     0.82014   0.48616   0.52794   0.00000  Uiso   1.00
H901   H     0.70308   0.52062   0.55695   0.00000  Uiso   1.00
H902   H     0.94067   0.42563   0.95820   0.00000  Uiso   1.00
H903   H     0.82087   0.52145   0.60677   0.00000  Uiso   1.00
H904   H     0.84881   0.47359   0.88893   0.00000  Uiso   1.00
H905   H     0.75964   0.50547   0.59226   0.00000  Uiso   1.00
H906   H     0.88317   0.43783   0.92323   0.00000  Uiso   1.00
H907   H     0.91146   0.62797   0.71145   0.00000  Uiso   1.00
H908   H     0.75523   0.37203   0.78844   0.00000  Uiso   1.00
H909   H     0.97978   0.45526   0.69560   0.00000  Uiso   1.00
H910   H     0.68691   0.54477   0.80436   0.00000  Uiso   1.00
H911   H     0.73066   0.45522   0.69563   0.00000  Uiso   1.00
H912   H     0.93605   0.54485   0.80429   0.00000  Uiso   1.00
N913   N     0.71426   0.50001   0.75001   0.00000  Uiso   1.00
N914   N     0.95241   0.49999   0.74999   0.00000  Uiso   1.00
O915   O     0.79512   0.56108   0.75001   0.00000  Uiso   1.00
O916   O     0.87154   0.43892   0.75000   0.00000  Uiso   1.00
O917   O     0.87157   0.56107   0.75000   0.00000  Uiso   1.00
O918   O     0.79510   0.43893   0.75000   0.00000  Uiso   1.00
O919   O     0.77328   0.50001   0.81613   0.00000  Uiso   1.00
O920   O     0.89339   0.49999   0.68388   0.00000  Uiso   1.00
O921   O     0.84972   0.50000   0.81612   0.00000  Uiso   1.00
O922   O     0.81695   0.50000   0.68388   0.00000  Uiso   1.00
Zn923  Zn    0.78229   0.50001   0.75000   0.00000  Uiso   1.00
Zn924  Zn    0.88438   0.49999   0.75000   0.00000  Uiso   1.00
F925   F     0.95612   0.45848   0.61000   0.00000  Uiso   1.00
F926   F     0.70611   0.52892   0.89492   0.00000  Uiso   1.00
Cl927  Cl    0.99638   0.54077   0.99596   0.00000  Uiso   1.00
Cl928  Cl    0.98888   0.42325   0.51560   0.00000  Uiso   1.00
F929   F     0.92102   0.37435   0.70532   0.00000  Uiso   1.00
F930   F     0.74566   0.62567   0.79453   0.00000  Uiso   1.00
C931   C     0.16644   0.91333   0.75043   0.00000  Uiso   1.00
C932   C     0.16691   0.75334   0.74954   0.00000  Uiso   1.00
C933   C     0.10578   0.83422   0.55492   0.00000  Uiso   1.00
C934   C     0.20808   0.78479   0.95729   0.00000  Uiso   1.00
C935   C     0.07216   0.84231   0.53467   0.00000  Uiso   1.00
C936   C     0.24159   0.77693   0.97787   0.00000  Uiso   1.00
C937   C     0.21074   0.97819   0.72858   0.00000  Uiso   1.00
C938   C     0.12262   0.68849   0.77131   0.00000  Uiso   1.00
C939   C     0.21124   0.68761   0.72786   0.00000  Uiso   1.00
C940   C     0.12211   0.97907   0.77202   0.00000  Uiso   1.00
C941   C     0.16707   0.70921   0.74939   0.00000  Uiso   1.00
C942   C     0.16629   0.95746   0.75052   0.00000  Uiso   1.00
C943   C     0.32153   0.80847   0.71977   0.00000  Uiso   1.00
C944   C     0.01181   0.85822   0.78020   0.00000  Uiso   1.00
C945   C     0.03613   0.80846   0.71979   0.00000  Uiso   1.00
C946   C     0.29722   0.85824   0.78017   0.00000  Uiso   1.00
C947   C     0.13592   0.83327   0.83815   0.00000  Uiso   1.00
C948   C     0.19734   0.83251   0.66186   0.00000  Uiso   1.00
C949   C     0.11590   0.83233   0.88921   0.00000  Uiso   1.00
C950   C     0.21592   0.82467   0.61157   0.00000  Uiso   1.00
C951   C     0.05375   0.85057   0.96457   0.00000  Uiso   1.00
C952   C     0.26808   0.78584   0.54335   0.00000  Uiso   1.00
C953   C     0.06909   0.84772   0.91600   0.00000  Uiso   1.00
C954   C     0.25849   0.80127   0.58836   0.00000  Uiso   1.00
C955   C     0.14608   0.81759   0.91101   0.00000  Uiso   1.00
C956   C     0.18434   0.83384   0.58927   0.00000  Uiso   1.00
C957   C     0.13180   0.81956   0.95951   0.00000  Uiso   1.00
C958   C     0.19008   0.81530   0.54675   0.00000  Uiso   1.00
C959   C     0.08534   0.83727   0.98656   0.00000  Uiso   1.00
C960   C     0.23374   0.79260   0.52232   0.00000  Uiso   1.00
C961   C     0.16452   0.80766   0.98106   0.00000  Uiso   1.00
C962   C     0.15347   0.81949   0.52794   0.00000  Uiso   1.00
H963   H     0.03641   0.85396   0.55695   0.00000  Uiso   1.00
H964   H     0.27400   0.75896   0.95820   0.00000  Uiso   1.00
H965   H     0.15420   0.85479   0.60677   0.00000  Uiso   1.00
H966   H     0.18214   0.80692   0.88893   0.00000  Uiso   1.00
H967   H     0.09297   0.83881   0.59226   0.00000  Uiso   1.00
H968   H     0.21650   0.77116   0.92323   0.00000  Uiso   1.00
H969   H     0.24479   0.96131   0.71145   0.00000  Uiso   1.00
H970   H     0.08856   0.70537   0.78844   0.00000  Uiso   1.00
H971   H     0.31312   0.78859   0.69560   0.00000  Uiso   1.00
H972   H     0.02024   0.87811   0.80436   0.00000  Uiso   1.00
H973   H     0.06399   0.78856   0.69563   0.00000  Uiso   1.00
H974   H     0.26938   0.87818   0.80429   0.00000  Uiso   1.00
N975   N     0.04759   0.83334   0.75001   0.00000  Uiso   1.00
N976   N     0.28574   0.83332   0.74999   0.00000  Uiso   1.00
O977   O     0.12846   0.89442   0.75001   0.00000  Uiso   1.00
O978   O     0.20488   0.77225   0.75000   0.00000  Uiso   1.00
O979   O     0.20490   0.89441   0.75000   0.00000  Uiso   1.00
O980   O     0.12843   0.77226   0.75000   0.00000  Uiso   1.00
O981   O     0.10661   0.83334   0.81613   0.00000  Uiso   1.00
O982   O     0.22672   0.83333   0.68388   0.00000  Uiso   1.00
O983   O     0.18305   0.83333   0.81612   0.00000  Uiso   1.00
O984   O     0.15028   0.83334   0.68388   0.00000  Uiso   1.00
Zn985  Zn    0.11562   0.83334   0.75000   0.00000  Uiso   1.00
Zn986  Zn    0.21771   0.83333   0.75000   0.00000  Uiso   1.00
F987   F     0.28945   0.79181   0.61000   0.00000  Uiso   1.00
F988   F     0.03944   0.86225   0.89492   0.00000  Uiso   1.00
Cl989  Cl    0.32971   0.87410   0.99596   0.00000  Uiso   1.00
Cl990  Cl    0.32222   0.75658   0.51560   0.00000  Uiso   1.00
F991   F     0.25435   0.70768   0.70532   0.00000  Uiso   1.00
F992   F     0.07899   0.95900   0.79453   0.00000  Uiso   1.00
C993   C     0.49977   0.91333   0.75043   0.00000  Uiso   1.00
C994   C     0.50024   0.75334   0.74954   0.00000  Uiso   1.00
C995   C     0.43912   0.83422   0.55492   0.00000  Uiso   1.00
C996   C     0.54141   0.78479   0.95729   0.00000  Uiso   1.00
C997   C     0.40550   0.84231   0.53467   0.00000  Uiso   1.00
C998   C     0.57492   0.77693   0.97787   0.00000  Uiso   1.00
C999   C     0.54407   0.97819   0.72858   0.00000  Uiso   1.00
C1000  C     0.45595   0.68849   0.77131   0.00000  Uiso   1.00
C1001  C     0.54458   0.68761   0.72786   0.00000  Uiso   1.00
C1002  C     0.45544   0.97907   0.77202   0.00000  Uiso   1.00
C1003  C     0.50040   0.70921   0.74939   0.00000  Uiso   1.00
C1004  C     0.49962   0.95746   0.75052   0.00000  Uiso   1.00
C1005  C     0.65486   0.80847   0.71977   0.00000  Uiso   1.00
C1006  C     0.34515   0.85822   0.78020   0.00000  Uiso   1.00
C1007  C     0.36946   0.80846   0.71979   0.00000  Uiso   1.00
C1008  C     0.63056   0.85824   0.78017   0.00000  Uiso   1.00
C1009  C     0.46925   0.83327   0.83815   0.00000  Uiso   1.00
C1010  C     0.53067   0.83251   0.66186   0.00000  Uiso   1.00
C1011  C     0.44923   0.83233   0.88921   0.00000  Uiso   1.00
C1012  C     0.54925   0.82467   0.61157   0.00000  Uiso   1.00
C1013  C     0.38708   0.85057   0.96457   0.00000  Uiso   1.00
C1014  C     0.60141   0.78584   0.54335   0.00000  Uiso   1.00
C1015  C     0.40242   0.84772   0.91600   0.00000  Uiso   1.00
C1016  C     0.59183   0.80127   0.58836   0.00000  Uiso   1.00
C1017  C     0.47941   0.81759   0.91101   0.00000  Uiso   1.00
C1018  C     0.51767   0.83384   0.58927   0.00000  Uiso   1.00
C1019  C     0.46514   0.81956   0.95951   0.00000  Uiso   1.00
C1020  C     0.52341   0.81530   0.54675   0.00000  Uiso   1.00
C1021  C     0.41867   0.83727   0.98656   0.00000  Uiso   1.00
C1022  C     0.56707   0.79260   0.52232   0.00000  Uiso   1.00
C1023  C     0.49785   0.80766   0.98106   0.00000  Uiso   1.00
C1024  C     0.48681   0.81949   0.52794   0.00000  Uiso   1.00
H1025  H     0.36974   0.85396   0.55695   0.00000  Uiso   1.00
H1026  H     0.60734   0.75896   0.95820   0.00000  Uiso   1.00
H1027  H     0.48753   0.85479   0.60677   0.00000  Uiso   1.00
H1028  H     0.51547   0.80692   0.88893   0.00000  Uiso   1.00
H1029  H     0.42630   0.83881   0.59226   0.00000  Uiso   1.00
H1030  H     0.54984   0.77116   0.92323   0.00000  Uiso   1.00
H1031  H     0.57813   0.96131   0.71145   0.00000  Uiso   1.00
H1032  H     0.42189   0.70537   0.78844   0.00000  Uiso   1.00
H1033  H     0.64645   0.78859   0.69560   0.00000  Uiso   1.00
H1034  H     0.35357   0.87811   0.80436   0.00000  Uiso   1.00
H1035  H     0.39732   0.78856   0.69563   0.00000  Uiso   1.00
H1036  H     0.60271   0.87818   0.80429   0.00000  Uiso   1.00
N1037  N     0.38093   0.83334   0.75001   0.00000  Uiso   1.00
N1038  N     0.61907   0.83332   0.74999   0.00000  Uiso   1.00
O1039  O     0.46179   0.89442   0.75001   0.00000  Uiso   1.00
O1040  O     0.53821   0.77225   0.75000   0.00000  Uiso   1.00
O1041  O     0.53823   0.89441   0.75000   0.00000  Uiso   1.00
O1042  O     0.46177   0.77226   0.75000   0.00000  Uiso   1.00
O1043  O     0.43994   0.83334   0.81613   0.00000  Uiso   1.00
O1044  O     0.56006   0.83333   0.68388   0.00000  Uiso   1.00
O1045  O     0.51639   0.83333   0.81612   0.00000  Uiso   1.00
O1046  O     0.48361   0.83334   0.68388   0.00000  Uiso   1.00
Zn1047 Zn    0.44896   0.83334   0.75000   0.00000  Uiso   1.00
Zn1048 Zn    0.55104   0.83333   0.75000   0.00000  Uiso   1.00
F1049  F     0.62279   0.79181   0.61000   0.00000  Uiso   1.00
F1050  F     0.37278   0.86225   0.89492   0.00000  Uiso   1.00
Cl1051 Cl    0.66305   0.87410   0.99596   0.00000  Uiso   1.00
Cl1052 Cl    0.65555   0.75658   0.51560   0.00000  Uiso   1.00
F1053  F     0.58768   0.70768   0.70532   0.00000  Uiso   1.00
F1054  F     0.41232   0.95900   0.79453   0.00000  Uiso   1.00
C1055  C     0.83311   0.91333   0.75043   0.00000  Uiso   1.00
C1056  C     0.83357   0.75334   0.74954   0.00000  Uiso   1.00
C1057  C     0.77245   0.83422   0.55492   0.00000  Uiso   1.00
C1058  C     0.87475   0.78479   0.95729   0.00000  Uiso   1.00
C1059  C     0.73883   0.84231   0.53467   0.00000  Uiso   1.00
C1060  C     0.90825   0.77693   0.97787   0.00000  Uiso   1.00
C1061  C     0.87740   0.97819   0.72858   0.00000  Uiso   1.00
C1062  C     0.78928   0.68849   0.77131   0.00000  Uiso   1.00
C1063  C     0.87791   0.68761   0.72786   0.00000  Uiso   1.00
C1064  C     0.78878   0.97907   0.77202   0.00000  Uiso   1.00
C1065  C     0.83373   0.70921   0.74939   0.00000  Uiso   1.00
C1066  C     0.83296   0.95746   0.75052   0.00000  Uiso   1.00
C1067  C     0.98820   0.80847   0.71977   0.00000  Uiso   1.00
C1068  C     0.67848   0.85822   0.78020   0.00000  Uiso   1.00
C1069  C     0.70280   0.80846   0.71979   0.00000  Uiso   1.00
C1070  C     0.96389   0.85824   0.78017   0.00000  Uiso   1.00
C1071  C     0.80258   0.83327   0.83815   0.00000  Uiso   1.00
C1072  C     0.86401   0.83251   0.66186   0.00000  Uiso   1.00
C1073  C     0.78257   0.83233   0.88921   0.00000  Uiso   1.00
C1074  C     0.88258   0.82467   0.61157   0.00000  Uiso   1.00
C1075  C     0.72042   0.85057   0.96457   0.00000  Uiso   1.00
C1076  C     0.93475   0.78584   0.54335   0.00000  Uiso   1.00
C1077  C     0.73575   0.84772   0.91600   0.00000  Uiso   1.00
C1078  C     0.92516   0.80127   0.58836   0.00000  Uiso   1.00
C1079  C     0.81274   0.81759   0.91101   0.00000  Uiso   1.00
C1080  C     0.85101   0.83384   0.58927   0.00000  Uiso   1.00
C1081  C     0.79847   0.81956   0.95951   0.00000  Uiso   1.00
C1082  C     0.85674   0.81530   0.54675   0.00000  Uiso   1.00
C1083  C     0.75200   0.83727   0.98656   0.00000  Uiso   1.00
C1084  C     0.90040   0.79260   0.52232   0.00000  Uiso   1.00
C1085  C     0.83118   0.80766   0.98106   0.00000  Uiso   1.00
C1086  C     0.82014   0.81949   0.52794   0.00000  Uiso   1.00
H1087  H     0.70308   0.85396   0.55695   0.00000  Uiso   1.00
H1088  H     0.94067   0.75896   0.95820   0.00000  Uiso   1.00
H1089  H     0.82087   0.85479   0.60677   0.00000  Uiso   1.00
H1090  H     0.84881   0.80692   0.88893   0.00000  Uiso   1.00
H1091  H     0.75964   0.83881   0.59226   0.00000  Uiso   1.00
H1092  H     0.88317   0.77116   0.92323   0.00000  Uiso   1.00
H1093  H     0.91146   0.96131   0.71145   0.00000  Uiso   1.00
H1094  H     0.75523   0.70537   0.78844   0.00000  Uiso   1.00
H1095  H     0.97978   0.78859   0.69560   0.00000  Uiso   1.00
H1096  H     0.68691   0.87811   0.80436   0.00000  Uiso   1.00
H1097  H     0.73066   0.78856   0.69563   0.00000  Uiso   1.00
H1098  H     0.93605   0.87818   0.80429   0.00000  Uiso   1.00
N1099  N     0.71426   0.83334   0.75001   0.00000  Uiso   1.00
N1100  N     0.95241   0.83332   0.74999   0.00000  Uiso   1.00
O1101  O     0.79512   0.89442   0.75001   0.00000  Uiso   1.00
O1102  O     0.87154   0.77225   0.75000   0.00000  Uiso   1.00
O1103  O     0.87157   0.89441   0.75000   0.00000  Uiso   1.00
O1104  O     0.79510   0.77226   0.75000   0.00000  Uiso   1.00
O1105  O     0.77328   0.83334   0.81613   0.00000  Uiso   1.00
O1106  O     0.89339   0.83333   0.68388   0.00000  Uiso   1.00
O1107  O     0.84972   0.83333   0.81612   0.00000  Uiso   1.00
O1108  O     0.81695   0.83334   0.68388   0.00000  Uiso   1.00
Zn1109 Zn    0.78229   0.83334   0.75000   0.00000  Uiso   1.00
Zn1110 Zn    0.88438   0.83333   0.75000   0.00000  Uiso   1.00
F1111  F     0.95612   0.79181   0.61000   0.00000  Uiso   1.00
F1112  F     0.70611   0.86225   0.89492   0.00000  Uiso   1.00
Cl1113 Cl    0.99638   0.87410   0.99596   0.00000  Uiso   1.00
Cl1114 Cl    0.98888   0.75658   0.51560   0.00000  Uiso   1.00
F1115  F     0.92102   0.70768   0.70532   0.00000  Uiso   1.00
F1116  F     0.74566   0.95900   0.79453   0.00000  Uiso   1.00
loop_
_geom_bond_atom_site_label_1
_geom_bond_atom_site_label_2
_geom_bond_distance
_geom_bond_site_symmetry_2
_ccdc_geom_bond_type
C1     C12     1.415   .     S
C1     O49     1.283   .     A
C1     O47     1.281   .     A
C2     C11     1.415   .     S
C2     O50     1.283   .     A
C2     O48     1.281   .     A
C3     C32     1.415   .     A
C3     H37     1.079   .     S
C3     C5      1.387   .     A
C4     H38     1.078   .     S
C4     C31     1.416   .     A
C4     C6      1.390   .     A
C5     H33     1.082   .     S
C5     C587    1.396   1_554 S
C6     H34     1.082   .     S
C6     C588    1.397   .     S
C7     H39     1.084   .     S
C7     C12     1.396   .     A
C7     C195    1.371   .     S
C8     H40     1.084   .     S
C8     C11     1.396   .     A
C8     C382    1.371   1_545 S
C9     C11     1.399   .     A
C9     F61     1.359   .     S
C9     C379    1.371   1_545 S
C10    F62     1.359   .     S
C10    C12     1.399   .     A
C10    C194    1.371   .     S
C13    H41     1.082   .     S
C13    N46     1.366   .     A
C13    C77     1.417   .     S
C14    H42     1.082   .     S
C14    N45     1.366   .     A
C14    C140    1.417   1_455 S
C15    N45     1.367   .     A
C15    H43     1.082   .     S
C15    C137    1.417   1_455 S
C16    H44     1.082   .     S
C16    N46     1.367   .     A
C16    C76     1.417   .     S
C17    O53     1.295   .     A
C17    O51     1.291   .     A
C17    C19     1.460   .     S
C18    O52     1.293   .     A
C18    O54     1.293   .     A
C18    C20     1.460   .     S
C19    C23     1.401   .     A
C19    C25     1.390   .     A
C20    C24     1.402   .     A
C20    C26     1.388   .     A
C21    C23     1.397   .     A
C21    C29     1.415   .     A
C21    Cl183   1.766   1_455 S
C22    Cl60    1.766   .     S
C22    C24     1.401   .     A
C22    C30     1.416   .     A
C23    F58     1.359   .     S
C24    F57     1.358   .     S
C25    C27     1.396   .     A
C25    H36     1.077   .     S
C26    C28     1.393   .     A
C26    H35     1.080   .     S
C27    C29     1.423   .     A
C27    C31     1.420   .     A
C28    C30     1.419   .     A
C28    C32     1.417   .     A
C29    C563    1.396   .     S
C30    C564    1.397   1_554 S
C31    C590    1.411   .     S
C32    C589    1.411   1_554 S
N45    Zn55    2.010   .     S
N46    Zn56    2.010   .     S
O47    Zn55    1.996   .     S
O48    Zn56    1.996   .     S
O49    Zn56    1.994   .     S
O50    Zn55    1.994   .     S
O51    Zn55    1.960   .     S
O52    Zn56    1.960   .     S
O53    Zn56    1.905   .     S
O54    Zn55    1.905   .     S
Cl59   C83     1.766   .     S
C63    C74     1.415   .     S
C63    O111    1.283   .     A
C63    O109    1.281   .     A
C64    C73     1.415   .     S
C64    O112    1.283   .     A
C64    O110    1.281   .     A
C65    C94     1.415   .     A
C65    H99     1.079   .     S
C65    C67     1.387   .     A
C66    H100    1.078   .     S
C66    C93     1.416   .     A
C66    C68     1.390   .     A
C67    H95     1.082   .     S
C67    C649    1.396   1_554 S
C68    H96     1.082   .     S
C68    C650    1.397   .     S
C69    H101    1.084   .     S
C69    C74     1.396   .     A
C69    C257    1.371   .     S
C70    H102    1.084   .     S
C70    C73     1.396   .     A
C70    C444    1.371   1_545 S
C71    C73     1.399   .     A
C71    F123    1.359   .     S
C71    C441    1.371   1_545 S
C72    F124    1.359   .     S
C72    C74     1.399   .     A
C72    C256    1.371   .     S
C75    H103    1.082   .     S
C75    N108    1.366   .     A
C75    C139    1.417   .     S
C76    H104    1.082   .     S
C76    N107    1.366   .     A
C77    N107    1.367   .     A
C77    H105    1.082   .     S
C78    H106    1.082   .     S
C78    N108    1.367   .     A
C78    C138    1.417   .     S
C79    O115    1.295   .     A
C79    O113    1.291   .     A
C79    C81     1.460   .     S
C80    O114    1.293   .     A
C80    O116    1.293   .     A
C80    C82     1.460   .     S
C81    C85     1.401   .     A
C81    C87     1.390   .     A
C82    C86     1.402   .     A
C82    C88     1.388   .     A
C83    C85     1.397   .     A
C83    C91     1.415   .     A
C84    Cl122   1.766   .     S
C84    C86     1.401   .     A
C84    C92     1.416   .     A
C85    F120    1.359   .     S
C86    F119    1.358   .     S
C87    C89     1.396   .     A
C87    H98     1.077   .     S
C88    C90     1.393   .     A
C88    H97     1.080   .     S
C89    C91     1.423   .     A
C89    C93     1.420   .     A
C90    C92     1.419   .     A
C90    C94     1.417   .     A
C91    C625    1.396   .     S
C92    C626    1.397   1_554 S
C93    C652    1.411   .     S
C94    C651    1.411   1_554 S
N107   Zn117   2.010   .     S
N108   Zn118   2.010   .     S
O109   Zn117   1.996   .     S
O110   Zn118   1.996   .     S
O111   Zn118   1.994   .     S
O112   Zn117   1.994   .     S
O113   Zn117   1.960   .     S
O114   Zn118   1.960   .     S
O115   Zn118   1.905   .     S
O116   Zn117   1.905   .     S
Cl121  C145    1.766   .     S
C125   C136    1.415   .     S
C125   O173    1.283   .     A
C125   O171    1.281   .     A
C126   C135    1.415   .     S
C126   O174    1.283   .     A
C126   O172    1.281   .     A
C127   C156    1.415   .     A
C127   H161    1.079   .     S
C127   C129    1.387   .     A
C128   H162    1.078   .     S
C128   C155    1.416   .     A
C128   C130    1.390   .     A
C129   H157    1.082   .     S
C129   C711    1.396   1_554 S
C130   H158    1.082   .     S
C130   C712    1.397   .     S
C131   H163    1.084   .     S
C131   C136    1.396   .     A
C131   C319    1.371   .     S
C132   H164    1.084   .     S
C132   C135    1.396   .     A
C132   C506    1.371   1_545 S
C133   C135    1.399   .     A
C133   F185    1.359   .     S
C133   C503    1.371   1_545 S
C134   F186    1.359   .     S
C134   C136    1.399   .     A
C134   C318    1.371   .     S
C137   H165    1.082   .     S
C137   N170    1.366   .     A
C137   C15     1.417   1_655 S
C138   H166    1.082   .     S
C138   N169    1.366   .     A
C139   N169    1.367   .     A
C139   H167    1.082   .     S
C140   H168    1.082   .     S
C140   N170    1.367   .     A
C140   C14     1.417   1_655 S
C141   O177    1.295   .     A
C141   O175    1.291   .     A
C141   C143    1.460   .     S
C142   O176    1.293   .     A
C142   O178    1.293   .     A
C142   C144    1.460   .     S
C143   C147    1.401   .     A
C143   C149    1.390   .     A
C144   C148    1.402   .     A
C144   C150    1.388   .     A
C145   C147    1.397   .     A
C145   C153    1.415   .     A
C146   Cl184   1.766   .     S
C146   C148    1.401   .     A
C146   C154    1.416   .     A
C147   F182    1.359   .     S
C148   F181    1.358   .     S
C149   C151    1.396   .     A
C149   H160    1.077   .     S
C150   C152    1.393   .     A
C150   H159    1.080   .     S
C151   C153    1.423   .     A
C151   C155    1.420   .     A
C152   C154    1.419   .     A
C152   C156    1.417   .     A
C153   C687    1.396   .     S
C154   C688    1.397   1_554 S
C155   C714    1.411   .     S
C156   C713    1.411   1_554 S
N169   Zn179   2.010   .     S
N170   Zn180   2.010   .     S
O171   Zn179   1.996   .     S
O172   Zn180   1.996   .     S
O173   Zn180   1.994   .     S
O174   Zn179   1.994   .     S
O175   Zn179   1.960   .     S
O176   Zn180   1.960   .     S
O177   Zn180   1.905   .     S
O178   Zn179   1.905   .     S
Cl183  C21     1.766   1_655 S
C187   C198    1.415   .     S
C187   O235    1.283   .     A
C187   O233    1.281   .     A
C188   C197    1.415   .     S
C188   O236    1.283   .     A
C188   O234    1.281   .     A
C189   C218    1.415   .     A
C189   H223    1.079   .     S
C189   C191    1.387   .     A
C190   H224    1.078   .     S
C190   C217    1.416   .     A
C190   C192    1.390   .     A
C191   H219    1.082   .     S
C191   C773    1.396   1_554 S
C192   H220    1.082   .     S
C192   C774    1.397   .     S
C193   H225    1.084   .     S
C193   C198    1.396   .     A
C193   C381    1.371   .     S
C194   H226    1.084   .     S
C194   C197    1.396   .     A
C195   C197    1.399   .     A
C195   F247    1.359   .     S
C196   F248    1.359   .     S
C196   C198    1.399   .     A
C196   C380    1.371   .     S
C199   H227    1.082   .     S
C199   N232    1.366   .     A
C199   C263    1.417   .     S
C200   H228    1.082   .     S
C200   N231    1.366   .     A
C200   C326    1.417   1_455 S
C201   N231    1.367   .     A
C201   H229    1.082   .     S
C201   C323    1.417   1_455 S
C202   H230    1.082   .     S
C202   N232    1.367   .     A
C202   C262    1.417   .     S
C203   O239    1.295   .     A
C203   O237    1.291   .     A
C203   C205    1.460   .     S
C204   O238    1.293   .     A
C204   O240    1.293   .     A
C204   C206    1.460   .     S
C205   C209    1.401   .     A
C205   C211    1.390   .     A
C206   C210    1.402   .     A
C206   C212    1.388   .     A
C207   C209    1.397   .     A
C207   C215    1.415   .     A
C207   Cl369   1.766   1_455 S
C208   Cl246   1.766   .     S
C208   C210    1.401   .     A
C208   C216    1.416   .     A
C209   F244    1.359   .     S
C210   F243    1.358   .     S
C211   C213    1.396   .     A
C211   H222    1.077   .     S
C212   C214    1.393   .     A
C212   H221    1.080   .     S
C213   C215    1.423   .     A
C213   C217    1.420   .     A
C214   C216    1.419   .     A
C214   C218    1.417   .     A
C215   C749    1.396   .     S
C216   C750    1.397   1_554 S
C217   C776    1.411   .     S
C218   C775    1.411   1_554 S
N231   Zn241   2.010   .     S
N232   Zn242   2.010   .     S
O233   Zn241   1.996   .     S
O234   Zn242   1.996   .     S
O235   Zn242   1.994   .     S
O236   Zn241   1.994   .     S
O237   Zn241   1.960   .     S
O238   Zn242   1.960   .     S
O239   Zn242   1.905   .     S
O240   Zn241   1.905   .     S
Cl245  C269    1.766   .     S
C249   C260    1.415   .     S
C249   O297    1.283   .     A
C249   O295    1.281   .     A
C250   C259    1.415   .     S
C250   O298    1.283   .     A
C250   O296    1.281   .     A
C251   C280    1.415   .     A
C251   H285    1.079   .     S
C251   C253    1.387   .     A
C252   H286    1.078   .     S
C252   C279    1.416   .     A
C252   C254    1.390   .     A
C253   H281    1.082   .     S
C253   C835    1.396   1_554 S
C254   H282    1.082   .     S
C254   C836    1.397   .     S
C255   H287    1.084   .     S
C255   C260    1.396   .     A
C255   C443    1.371   .     S
C256   H288    1.084   .     S
C256   C259    1.396   .     A
C257   C259    1.399   .     A
C257   F309    1.359   .     S
C258   F310    1.359   .     S
C258   C260    1.399   .     A
C258   C442    1.371   .     S
C261   H289    1.082   .     S
C261   N294    1.366   .     A
C261   C325    1.417   .     S
C262   H290    1.082   .     S
C262   N293    1.366   .     A
C263   N293    1.367   .     A
C263   H291    1.082   .     S
C264   H292    1.082   .     S
C264   N294    1.367   .     A
C264   C324    1.417   .     S
C265   O301    1.295   .     A
C265   O299    1.291   .     A
C265   C267    1.460   .     S
C266   O300    1.293   .     A
C266   O302    1.293   .     A
C266   C268    1.460   .     S
C267   C271    1.401   .     A
C267   C273    1.390   .     A
C268   C272    1.402   .     A
C268   C274    1.388   .     A
C269   C271    1.397   .     A
C269   C277    1.415   .     A
C270   Cl308   1.766   .     S
C270   C272    1.401   .     A
C270   C278    1.416   .     A
C271   F306    1.359   .     S
C272   F305    1.358   .     S
C273   C275    1.396   .     A
C273   H284    1.077   .     S
C274   C276    1.393   .     A
C274   H283    1.080   .     S
C275   C277    1.423   .     A
C275   C279    1.420   .     A
C276   C278    1.419   .     A
C276   C280    1.417   .     A
C277   C811    1.396   .     S
C278   C812    1.397   1_554 S
C279   C838    1.411   .     S
C280   C837    1.411   1_554 S
N293   Zn303   2.010   .     S
N294   Zn304   2.010   .     S
O295   Zn303   1.996   .     S
O296   Zn304   1.996   .     S
O297   Zn304   1.994   .     S
O298   Zn303   1.994   .     S
O299   Zn303   1.960   .     S
O300   Zn304   1.960   .     S
O301   Zn304   1.905   .     S
O302   Zn303   1.905   .     S
Cl307  C331    1.766   .     S
C311   C322    1.415   .     S
C311   O359    1.283   .     A
C311   O357    1.281   .     A
C312   C321    1.415   .     S
C312   O360    1.283   .     A
C312   O358    1.281   .     A
C313   C342    1.415   .     A
C313   H347    1.079   .     S
C313   C315    1.387   .     A
C314   H348    1.078   .     S
C314   C341    1.416   .     A
C314   C316    1.390   .     A
C315   H343    1.082   .     S
C315   C897    1.396   1_554 S
C316   H344    1.082   .     S
C316   C898    1.397   .     S
C317   H349    1.084   .     S
C317   C322    1.396   .     A
C317   C505    1.371   .     S
C318   H350    1.084   .     S
C318   C321    1.396   .     A
C319   C321    1.399   .     A
C319   F371    1.359   .     S
C320   F372    1.359   .     S
C320   C322    1.399   .     A
C320   C504    1.371   .     S
C323   H351    1.082   .     S
C323   N356    1.366   .     A
C323   C201    1.417   1_655 S
C324   H352    1.082   .     S
C324   N355    1.366   .     A
C325   N355    1.367   .     A
C325   H353    1.082   .     S
C326   H354    1.082   .     S
C326   N356    1.367   .     A
C326   C200    1.417   1_655 S
C327   O363    1.295   .     A
C327   O361    1.291   .     A
C327   C329    1.460   .     S
C328   O362    1.293   .     A
C328   O364    1.293   .     A
C328   C330    1.460   .     S
C329   C333    1.401   .     A
C329   C335    1.390   .     A
C330   C334    1.402   .     A
C330   C336    1.388   .     A
C331   C333    1.397   .     A
C331   C339    1.415   .     A
C332   Cl370   1.766   .     S
C332   C334    1.401   .     A
C332   C340    1.416   .     A
C333   F368    1.359   .     S
C334   F367    1.358   .     S
C335   C337    1.396   .     A
C335   H346    1.077   .     S
C336   C338    1.393   .     A
C336   H345    1.080   .     S
C337   C339    1.423   .     A
C337   C341    1.420   .     A
C338   C340    1.419   .     A
C338   C342    1.417   .     A
C339   C873    1.396   .     S
C340   C874    1.397   1_554 S
C341   C900    1.411   .     S
C342   C899    1.411   1_554 S
N355   Zn365   2.010   .     S
N356   Zn366   2.010   .     S
O357   Zn365   1.996   .     S
O358   Zn366   1.996   .     S
O359   Zn366   1.994   .     S
O360   Zn365   1.994   .     S
O361   Zn365   1.960   .     S
O362   Zn366   1.960   .     S
O363   Zn366   1.905   .     S
O364   Zn365   1.905   .     S
Cl369  C207    1.766   1_655 S
C373   C384    1.415   .     S
C373   O421    1.283   .     A
C373   O419    1.281   .     A
C374   C383    1.415   .     S
C374   O422    1.283   .     A
C374   O420    1.281   .     A
C375   C404    1.415   .     A
C375   H409    1.079   .     S
C375   C377    1.387   .     A
C376   H410    1.078   .     S
C376   C403    1.416   .     A
C376   C378    1.390   .     A
C377   H405    1.082   .     S
C377   C959    1.396   1_554 S
C378   H406    1.082   .     S
C378   C960    1.397   .     S
C379   H411    1.084   .     S
C379   C384    1.396   .     A
C379   C9      1.371   1_565 S
C380   H412    1.084   .     S
C380   C383    1.396   .     A
C381   C383    1.399   .     A
C381   F433    1.359   .     S
C382   F434    1.359   .     S
C382   C384    1.399   .     A
C382   C8      1.371   1_565 S
C385   H413    1.082   .     S
C385   N418    1.366   .     A
C385   C449    1.417   .     S
C386   H414    1.082   .     S
C386   N417    1.366   .     A
C386   C512    1.417   1_455 S
C387   N417    1.367   .     A
C387   H415    1.082   .     S
C387   C509    1.417   1_455 S
C388   H416    1.082   .     S
C388   N418    1.367   .     A
C388   C448    1.417   .     S
C389   O425    1.295   .     A
C389   O423    1.291   .     A
C389   C391    1.460   .     S
C390   O424    1.293   .     A
C390   O426    1.293   .     A
C390   C392    1.460   .     S
C391   C395    1.401   .     A
C391   C397    1.390   .     A
C392   C396    1.402   .     A
C392   C398    1.388   .     A
C393   C395    1.397   .     A
C393   C401    1.415   .     A
C393   Cl555   1.766   1_455 S
C394   Cl432   1.766   .     S
C394   C396    1.401   .     A
C394   C402    1.416   .     A
C395   F430    1.359   .     S
C396   F429    1.358   .     S
C397   C399    1.396   .     A
C397   H408    1.077   .     S
C398   C400    1.393   .     A
C398   H407    1.080   .     S
C399   C401    1.423   .     A
C399   C403    1.420   .     A
C400   C402    1.419   .     A
C400   C404    1.417   .     A
C401   C935    1.396   .     S
C402   C936    1.397   1_554 S
C403   C962    1.411   .     S
C404   C961    1.411   1_554 S
N417   Zn427   2.010   .     S
N418   Zn428   2.010   .     S
O419   Zn427   1.996   .     S
O420   Zn428   1.996   .     S
O421   Zn428   1.994   .     S
O422   Zn427   1.994   .     S
O423   Zn427   1.960   .     S
O424   Zn428   1.960   .     S
O425   Zn428   1.905   .     S
O426   Zn427   1.905   .     S
Cl431  C455    1.766   .     S
C435   C446    1.415   .     S
C435   O483    1.283   .     A
C435   O481    1.281   .     A
C436   C445    1.415   .     S
C436   O484    1.283   .     A
C436   O482    1.281   .     A
C437   C466    1.415   .     A
C437   H471    1.079   .     S
C437   C439    1.387   .     A
C438   H472    1.078   .     S
C438   C465    1.416   .     A
C438   C440    1.390   .     A
C439   H467    1.082   .     S
C439   C1021   1.396   1_554 S
C440   H468    1.082   .     S
C440   C1022   1.397   .     S
C441   H473    1.084   .     S
C441   C446    1.396   .     A
C441   C71     1.371   1_565 S
C442   H474    1.084   .     S
C442   C445    1.396   .     A
C443   C445    1.399   .     A
C443   F495    1.359   .     S
C444   F496    1.359   .     S
C444   C446    1.399   .     A
C444   C70     1.371   1_565 S
C447   H475    1.082   .     S
C447   N480    1.366   .     A
C447   C511    1.417   .     S
C448   H476    1.082   .     S
C448   N479    1.366   .     A
C449   N479    1.367   .     A
C449   H477    1.082   .     S
C450   H478    1.082   .     S
C450   N480    1.367   .     A
C450   C510    1.417   .     S
C451   O487    1.295   .     A
C451   O485    1.291   .     A
C451   C453    1.460   .     S
C452   O486    1.293   .     A
C452   O488    1.293   .     A
C452   C454    1.460   .     S
C453   C457    1.401   .     A
C453   C459    1.390   .     A
C454   C458    1.402   .     A
C454   C460    1.388   .     A
C455   C457    1.397   .     A
C455   C463    1.415   .     A
C456   Cl494   1.766   .     S
C456   C458    1.401   .     A
C456   C464    1.416   .     A
C457   F492    1.359   .     S
C458   F491    1.358   .     S
C459   C461    1.396   .     A
C459   H470    1.077   .     S
C460   C462    1.393   .     A
C460   H469    1.080   .     S
C461   C463    1.423   .     A
C461   C465    1.420   .     A
C462   C464    1.419   .     A
C462   C466    1.417   .     A
C463   C997    1.396   .     S
C464   C998    1.397   1_554 S
C465   C1024   1.411   .     S
C466   C1023   1.411   1_554 S
N479   Zn489   2.010   .     S
N480   Zn490   2.010   .     S
O481   Zn489   1.996   .     S
O482   Zn490   1.996   .     S
O483   Zn490   1.994   .     S
O484   Zn489   1.994   .     S
O485   Zn489   1.960   .     S
O486   Zn490   1.960   .     S
O487   Zn490   1.905   .     S
O488   Zn489   1.905   .     S
Cl493  C517    1.766   .     S
C497   C508    1.415   .     S
C497   O545    1.283   .     A
C497   O543    1.281   .     A
C498   C507    1.415   .     S
C498   O546    1.283   .     A
C498   O544    1.281   .     A
C499   C528    1.415   .     A
C499   H533    1.079   .     S
C499   C501    1.387   .     A
C500   H534    1.078   .     S
C500   C527    1.416   .     A
C500   C502    1.390   .     A
C501   H529    1.082   .     S
C501   C1083   1.396   1_554 S
C502   H530    1.082   .     S
C502   C1084   1.397   .     S
C503   H535    1.084   .     S
C503   C508    1.396   .     A
C503   C133    1.371   1_565 S
C504   H536    1.084   .     S
C504   C507    1.396   .     A
C505   C507    1.399   .     A
C505   F557    1.359   .     S
C506   F558    1.359   .     S
C506   C508    1.399   .     A
C506   C132    1.371   1_565 S
C509   H537    1.082   .     S
C509   N542    1.366   .     A
C509   C387    1.417   1_655 S
C510   H538    1.082   .     S
C510   N541    1.366   .     A
C511   N541    1.367   .     A
C511   H539    1.082   .     S
C512   H540    1.082   .     S
C512   N542    1.367   .     A
C512   C386    1.417   1_655 S
C513   O549    1.295   .     A
C513   O547    1.291   .     A
C513   C515    1.460   .     S
C514   O548    1.293   .     A
C514   O550    1.293   .     A
C514   C516    1.460   .     S
C515   C519    1.401   .     A
C515   C521    1.390   .     A
C516   C520    1.402   .     A
C516   C522    1.388   .     A
C517   C519    1.397   .     A
C517   C525    1.415   .     A
C518   Cl556   1.766   .     S
C518   C520    1.401   .     A
C518   C526    1.416   .     A
C519   F554    1.359   .     S
C520   F553    1.358   .     S
C521   C523    1.396   .     A
C521   H532    1.077   .     S
C522   C524    1.393   .     A
C522   H531    1.080   .     S
C523   C525    1.423   .     A
C523   C527    1.420   .     A
C524   C526    1.419   .     A
C524   C528    1.417   .     A
C525   C1059   1.396   .     S
C526   C1060   1.397   1_554 S
C527   C1086   1.411   .     S
C528   C1085   1.411   1_554 S
N541   Zn551   2.010   .     S
N542   Zn552   2.010   .     S
O543   Zn551   1.996   .     S
O544   Zn552   1.996   .     S
O545   Zn552   1.994   .     S
O546   Zn551   1.994   .     S
O547   Zn551   1.960   .     S
O548   Zn552   1.960   .     S
O549   Zn552   1.905   .     S
O550   Zn551   1.905   .     S
Cl555  C393    1.766   1_655 S
C559   C570    1.415   .     S
C559   O607    1.283   .     A
C559   O605    1.281   .     A
C560   C569    1.415   .     S
C560   O608    1.283   .     A
C560   O606    1.281   .     A
C561   C590    1.415   .     A
C561   H595    1.079   .     S
C561   C563    1.387   .     A
C562   H596    1.078   .     S
C562   C589    1.416   .     A
C562   C564    1.390   .     A
C563   H591    1.082   .     S
C564   H592    1.082   .     S
C564   C30     1.397   1_556 S
C565   H597    1.084   .     S
C565   C570    1.396   .     A
C565   C753    1.371   .     S
C566   H598    1.084   .     S
C566   C569    1.396   .     A
C566   C940    1.371   1_545 S
C567   C569    1.399   .     A
C567   F619    1.359   .     S
C567   C937    1.371   1_545 S
C568   F620    1.359   .     S
C568   C570    1.399   .     A
C568   C752    1.371   .     S
C571   H599    1.082   .     S
C571   N604    1.366   .     A
C571   C635    1.417   .     S
C572   H600    1.082   .     S
C572   N603    1.366   .     A
C572   C698    1.417   1_455 S
C573   N603    1.367   .     A
C573   H601    1.082   .     S
C573   C695    1.417   1_455 S
C574   H602    1.082   .     S
C574   N604    1.367   .     A
C574   C634    1.417   .     S
C575   O611    1.295   .     A
C575   O609    1.291   .     A
C575   C577    1.460   .     S
C576   O610    1.293   .     A
C576   O612    1.293   .     A
C576   C578    1.460   .     S
C577   C581    1.401   .     A
C577   C583    1.390   .     A
C578   C582    1.402   .     A
C578   C584    1.388   .     A
C579   C581    1.397   .     A
C579   C587    1.415   .     A
C579   Cl741   1.766   1_455 S
C580   Cl618   1.766   .     S
C580   C582    1.401   .     A
C580   C588    1.416   .     A
C581   F616    1.359   .     S
C582   F615    1.358   .     S
C583   C585    1.396   .     A
C583   H594    1.077   .     S
C584   C586    1.393   .     A
C584   H593    1.080   .     S
C585   C587    1.423   .     A
C585   C589    1.420   .     A
C586   C588    1.419   .     A
C586   C590    1.417   .     A
C587   C5      1.396   1_556 S
C589   C32     1.411   1_556 S
N603   Zn613   2.010   .     S
N604   Zn614   2.010   .     S
O605   Zn613   1.996   .     S
O606   Zn614   1.996   .     S
O607   Zn614   1.994   .     S
O608   Zn613   1.994   .     S
O609   Zn613   1.960   .     S
O610   Zn614   1.960   .     S
O611   Zn614   1.905   .     S
O612   Zn613   1.905   .     S
Cl617  C641    1.766   .     S
C621   C632    1.415   .     S
C621   O669    1.283   .     A
C621   O667    1.281   .     A
C622   C631    1.415   .     S
C622   O670    1.283   .     A
C622   O668    1.281   .     A
C623   C652    1.415   .     A
C623   H657    1.079   .     S
C623   C625    1.387   .     A
C624   H658    1.078   .     S
C624   C651    1.416   .     A
C624   C626    1.390   .     A
C625   H653    1.082   .     S
C626   H654    1.082   .     S
C626   C92     1.397   1_556 S
C627   H659    1.084   .     S
C627   C632    1.396   .     A
C627   C815    1.371   .     S
C628   H660    1.084   .     S
C628   C631    1.396   .     A
C628   C1002   1.371   1_545 S
C629   C631    1.399   .     A
C629   F681    1.359   .     S
C629   C999    1.371   1_545 S
C630   F682    1.359   .     S
C630   C632    1.399   .     A
C630   C814    1.371   .     S
C633   H661    1.082   .     S
C633   N666    1.366   .     A
C633   C697    1.417   .     S
C634   H662    1.082   .     S
C634   N665    1.366   .     A
C635   N665    1.367   .     A
C635   H663    1.082   .     S
C636   H664    1.082   .     S
C636   N666    1.367   .     A
C636   C696    1.417   .     S
C637   O673    1.295   .     A
C637   O671    1.291   .     A
C637   C639    1.460   .     S
C638   O672    1.293   .     A
C638   O674    1.293   .     A
C638   C640    1.460   .     S
C639   C643    1.401   .     A
C639   C645    1.390   .     A
C640   C644    1.402   .     A
C640   C646    1.388   .     A
C641   C643    1.397   .     A
C641   C649    1.415   .     A
C642   Cl680   1.766   .     S
C642   C644    1.401   .     A
C642   C650    1.416   .     A
C643   F678    1.359   .     S
C644   F677    1.358   .     S
C645   C647    1.396   .     A
C645   H656    1.077   .     S
C646   C648    1.393   .     A
C646   H655    1.080   .     S
C647   C649    1.423   .     A
C647   C651    1.420   .     A
C648   C650    1.419   .     A
C648   C652    1.417   .     A
C649   C67     1.396   1_556 S
C651   C94     1.411   1_556 S
N665   Zn675   2.010   .     S
N666   Zn676   2.010   .     S
O667   Zn675   1.996   .     S
O668   Zn676   1.996   .     S
O669   Zn676   1.994   .     S
O670   Zn675   1.994   .     S
O671   Zn675   1.960   .     S
O672   Zn676   1.960   .     S
O673   Zn676   1.905   .     S
O674   Zn675   1.905   .     S
Cl679  C703    1.766   .     S
C683   C694    1.415   .     S
C683   O731    1.283   .     A
C683   O729    1.281   .     A
C684   C693    1.415   .     S
C684   O732    1.283   .     A
C684   O730    1.281   .     A
C685   C714    1.415   .     A
C685   H719    1.079   .     S
C685   C687    1.387   .     A
C686   H720    1.078   .     S
C686   C713    1.416   .     A
C686   C688    1.390   .     A
C687   H715    1.082   .     S
C688   H716    1.082   .     S
C688   C154    1.397   1_556 S
C689   H721    1.084   .     S
C689   C694    1.396   .     A
C689   C877    1.371   .     S
C690   H722    1.084   .     S
C690   C693    1.396   .     A
C690   C1064   1.371   1_545 S
C691   C693    1.399   .     A
C691   F743    1.359   .     S
C691   C1061   1.371   1_545 S
C692   F744    1.359   .     S
C692   C694    1.399   .     A
C692   C876    1.371   .     S
C695   H723    1.082   .     S
C695   N728    1.366   .     A
C695   C573    1.417   1_655 S
C696   H724    1.082   .     S
C696   N727    1.366   .     A
C697   N727    1.367   .     A
C697   H725    1.082   .     S
C698   H726    1.082   .     S
C698   N728    1.367   .     A
C698   C572    1.417   1_655 S
C699   O735    1.295   .     A
C699   O733    1.291   .     A
C699   C701    1.460   .     S
C700   O734    1.293   .     A
C700   O736    1.293   .     A
C700   C702    1.460   .     S
C701   C705    1.401   .     A
C701   C707    1.390   .     A
C702   C706    1.402   .     A
C702   C708    1.388   .     A
C703   C705    1.397   .     A
C703   C711    1.415   .     A
C704   Cl742   1.766   .     S
C704   C706    1.401   .     A
C704   C712    1.416   .     A
C705   F740    1.359   .     S
C706   F739    1.358   .     S
C707   C709    1.396   .     A
C707   H718    1.077   .     S
C708   C710    1.393   .     A
C708   H717    1.080   .     S
C709   C711    1.423   .     A
C709   C713    1.420   .     A
C710   C712    1.419   .     A
C710   C714    1.417   .     A
C711   C129    1.396   1_556 S
C713   C156    1.411   1_556 S
N727   Zn737   2.010   .     S
N728   Zn738   2.010   .     S
O729   Zn737   1.996   .     S
O730   Zn738   1.996   .     S
O731   Zn738   1.994   .     S
O732   Zn737   1.994   .     S
O733   Zn737   1.960   .     S
O734   Zn738   1.960   .     S
O735   Zn738   1.905   .     S
O736   Zn737   1.905   .     S
Cl741  C579    1.766   1_655 S
C745   C756    1.415   .     S
C745   O793    1.283   .     A
C745   O791    1.281   .     A
C746   C755    1.415   .     S
C746   O794    1.283   .     A
C746   O792    1.281   .     A
C747   C776    1.415   .     A
C747   H781    1.079   .     S
C747   C749    1.387   .     A
C748   H782    1.078   .     S
C748   C775    1.416   .     A
C748   C750    1.390   .     A
C749   H777    1.082   .     S
C750   H778    1.082   .     S
C750   C216    1.397   1_556 S
C751   H783    1.084   .     S
C751   C756    1.396   .     A
C751   C939    1.371   .     S
C752   H784    1.084   .     S
C752   C755    1.396   .     A
C753   C755    1.399   .     A
C753   F805    1.359   .     S
C754   F806    1.359   .     S
C754   C756    1.399   .     A
C754   C938    1.371   .     S
C757   H785    1.082   .     S
C757   N790    1.366   .     A
C757   C821    1.417   .     S
C758   H786    1.082   .     S
C758   N789    1.366   .     A
C758   C884    1.417   1_455 S
C759   N789    1.367   .     A
C759   H787    1.082   .     S
C759   C881    1.417   1_455 S
C760   H788    1.082   .     S
C760   N790    1.367   .     A
C760   C820    1.417   .     S
C761   O797    1.295   .     A
C761   O795    1.291   .     A
C761   C763    1.460   .     S
C762   O796    1.293   .     A
C762   O798    1.293   .     A
C762   C764    1.460   .     S
C763   C767    1.401   .     A
C763   C769    1.390   .     A
C764   C768    1.402   .     A
C764   C770    1.388   .     A
C765   C767    1.397   .     A
C765   C773    1.415   .     A
C765   Cl927   1.766   1_455 S
C766   Cl804   1.766   .     S
C766   C768    1.401   .     A
C766   C774    1.416   .     A
C767   F802    1.359   .     S
C768   F801    1.358   .     S
C769   C771    1.396   .     A
C769   H780    1.077   .     S
C770   C772    1.393   .     A
C770   H779    1.080   .     S
C771   C773    1.423   .     A
C771   C775    1.420   .     A
C772   C774    1.419   .     A
C772   C776    1.417   .     A
C773   C191    1.396   1_556 S
C775   C218    1.411   1_556 S
N789   Zn799   2.010   .     S
N790   Zn800   2.010   .     S
O791   Zn799   1.996   .     S
O792   Zn800   1.996   .     S
O793   Zn800   1.994   .     S
O794   Zn799   1.994   .     S
O795   Zn799   1.960   .     S
O796   Zn800   1.960   .     S
O797   Zn800   1.905   .     S
O798   Zn799   1.905   .     S
Cl803  C827    1.766   .     S
C807   C818    1.415   .     S
C807   O855    1.283   .     A
C807   O853    1.281   .     A
C808   C817    1.415   .     S
C808   O856    1.283   .     A
C808   O854    1.281   .     A
C809   C838    1.415   .     A
C809   H843    1.079   .     S
C809   C811    1.387   .     A
C810   H844    1.078   .     S
C810   C837    1.416   .     A
C810   C812    1.390   .     A
C811   H839    1.082   .     S
C812   H840    1.082   .     S
C812   C278    1.397   1_556 S
C813   H845    1.084   .     S
C813   C818    1.396   .     A
C813   C1001   1.371   .     S
C814   H846    1.084   .     S
C814   C817    1.396   .     A
C815   C817    1.399   .     A
C815   F867    1.359   .     S
C816   F868    1.359   .     S
C816   C818    1.399   .     A
C816   C1000   1.371   .     S
C819   H847    1.082   .     S
C819   N852    1.366   .     A
C819   C883    1.417   .     S
C820   H848    1.082   .     S
C820   N851    1.366   .     A
C821   N851    1.367   .     A
C821   H849    1.082   .     S
C822   H850    1.082   .     S
C822   N852    1.367   .     A
C822   C882    1.417   .     S
C823   O859    1.295   .     A
C823   O857    1.291   .     A
C823   C825    1.460   .     S
C824   O858    1.293   .     A
C824   O860    1.293   .     A
C824   C826    1.460   .     S
C825   C829    1.401   .     A
C825   C831    1.390   .     A
C826   C830    1.402   .     A
C826   C832    1.388   .     A
C827   C829    1.397   .     A
C827   C835    1.415   .     A
C828   Cl866   1.766   .     S
C828   C830    1.401   .     A
C828   C836    1.416   .     A
C829   F864    1.359   .     S
C830   F863    1.358   .     S
C831   C833    1.396   .     A
C831   H842    1.077   .     S
C832   C834    1.393   .     A
C832   H841    1.080   .     S
C833   C835    1.423   .     A
C833   C837    1.420   .     A
C834   C836    1.419   .     A
C834   C838    1.417   .     A
C835   C253    1.396   1_556 S
C837   C280    1.411   1_556 S
N851   Zn861   2.010   .     S
N852   Zn862   2.010   .     S
O853   Zn861   1.996   .     S
O854   Zn862   1.996   .     S
O855   Zn862   1.994   .     S
O856   Zn861   1.994   .     S
O857   Zn861   1.960   .     S
O858   Zn862   1.960   .     S
O859   Zn862   1.905   .     S
O860   Zn861   1.905   .     S
Cl865  C889    1.766   .     S
C869   C880    1.415   .     S
C869   O917    1.283   .     A
C869   O915    1.281   .     A
C870   C879    1.415   .     S
C870   O918    1.283   .     A
C870   O916    1.281   .     A
C871   C900    1.415   .     A
C871   H905    1.079   .     S
C871   C873    1.387   .     A
C872   H906    1.078   .     S
C872   C899    1.416   .     A
C872   C874    1.390   .     A
C873   H901    1.082   .     S
C874   H902    1.082   .     S
C874   C340    1.397   1_556 S
C875   H907    1.084   .     S
C875   C880    1.396   .     A
C875   C1063   1.371   .     S
C876   H908    1.084   .     S
C876   C879    1.396   .     A
C877   C879    1.399   .     A
C877   F929    1.359   .     S
C878   F930    1.359   .     S
C878   C880    1.399   .     A
C878   C1062   1.371   .     S
C881   H909    1.082   .     S
C881   N914    1.366   .     A
C881   C759    1.417   1_655 S
C882   H910    1.082   .     S
C882   N913    1.366   .     A
C883   N913    1.367   .     A
C883   H911    1.082   .     S
C884   H912    1.082   .     S
C884   N914    1.367   .     A
C884   C758    1.417   1_655 S
C885   O921    1.295   .     A
C885   O919    1.291   .     A
C885   C887    1.460   .     S
C886   O920    1.293   .     A
C886   O922    1.293   .     A
C886   C888    1.460   .     S
C887   C891    1.401   .     A
C887   C893    1.390   .     A
C888   C892    1.402   .     A
C888   C894    1.388   .     A
C889   C891    1.397   .     A
C889   C897    1.415   .     A
C890   Cl928   1.766   .     S
C890   C892    1.401   .     A
C890   C898    1.416   .     A
C891   F926    1.359   .     S
C892   F925    1.358   .     S
C893   C895    1.396   .     A
C893   H904    1.077   .     S
C894   C896    1.393   .     A
C894   H903    1.080   .     S
C895   C897    1.423   .     A
C895   C899    1.420   .     A
C896   C898    1.419   .     A
C896   C900    1.417   .     A
C897   C315    1.396   1_556 S
C899   C342    1.411   1_556 S
N913   Zn923   2.010   .     S
N914   Zn924   2.010   .     S
O915   Zn923   1.996   .     S
O916   Zn924   1.996   .     S
O917   Zn924   1.994   .     S
O918   Zn923   1.994   .     S
O919   Zn923   1.960   .     S
O920   Zn924   1.960   .     S
O921   Zn924   1.905   .     S
O922   Zn923   1.905   .     S
Cl927  C765    1.766   1_655 S
C931   C942    1.415   .     S
C931   O979    1.283   .     A
C931   O977    1.281   .     A
C932   C941    1.415   .     S
C932   O980    1.283   .     A
C932   O978    1.281   .     A
C933   C962    1.415   .     A
C933   H967    1.079   .     S
C933   C935    1.387   .     A
C934   H968    1.078   .     S
C934   C961    1.416   .     A
C934   C936    1.390   .     A
C935   H963    1.082   .     S
C936   H964    1.082   .     S
C936   C402    1.397   1_556 S
C937   H969    1.084   .     S
C937   C942    1.396   .     A
C937   C567    1.371   1_565 S
C938   H970    1.084   .     S
C938   C941    1.396   .     A
C939   C941    1.399   .     A
C939   F991    1.359   .     S
C940   F992    1.359   .     S
C940   C942    1.399   .     A
C940   C566    1.371   1_565 S
C943   H971    1.082   .     S
C943   N976    1.366   .     A
C943   C1007   1.417   .     S
C944   H972    1.082   .     S
C944   N975    1.366   .     A
C944   C1070   1.417   1_455 S
C945   N975    1.367   .     A
C945   H973    1.082   .     S
C945   C1067   1.417   1_455 S
C946   H974    1.082   .     S
C946   N976    1.367   .     A
C946   C1006   1.417   .     S
C947   O983    1.295   .     A
C947   O981    1.291   .     A
C947   C949    1.460   .     S
C948   O982    1.293   .     A
C948   O984    1.293   .     A
C948   C950    1.460   .     S
C949   C953    1.401   .     A
C949   C955    1.390   .     A
C950   C954    1.402   .     A
C950   C956    1.388   .     A
C951   C953    1.397   .     A
C951   C959    1.415   .     A
C951   Cl1113  1.766   1_455 S
C952   Cl990   1.766   .     S
C952   C954    1.401   .     A
C952   C960    1.416   .     A
C953   F988    1.359   .     S
C954   F987    1.358   .     S
C955   C957    1.396   .     A
C955   H966    1.077   .     S
C956   C958    1.393   .     A
C956   H965    1.080   .     S
C957   C959    1.423   .     A
C957   C961    1.420   .     A
C958   C960    1.419   .     A
C958   C962    1.417   .     A
C959   C377    1.396   1_556 S
C961   C404    1.411   1_556 S
N975   Zn985   2.010   .     S
N976   Zn986   2.010   .     S
O977   Zn985   1.996   .     S
O978   Zn986   1.996   .     S
O979   Zn986   1.994   .     S
O980   Zn985   1.994   .     S
O981   Zn985   1.960   .     S
O982   Zn986   1.960   .     S
O983   Zn986   1.905   .     S
O984   Zn985   1.905   .     S
Cl989  C1013   1.766   .     S
C993   C1004   1.415   .     S
C993   O1041   1.283   .     A
C993   O1039   1.281   .     A
C994   C1003   1.415   .     S
C994   O1042   1.283   .     A
C994   O1040   1.281   .     A
C995   C1024   1.415   .     A
C995   H1029   1.079   .     S
C995   C997    1.387   .     A
C996   H1030   1.078   .     S
C996   C1023   1.416   .     A
C996   C998    1.390   .     A
C997   H1025   1.082   .     S
C998   H1026   1.082   .     S
C998   C464    1.397   1_556 S
C999   H1031   1.084   .     S
C999   C1004   1.396   .     A
C999   C629    1.371   1_565 S
C1000  H1032   1.084   .     S
C1000  C1003   1.396   .     A
C1001  C1003   1.399   .     A
C1001  F1053   1.359   .     S
C1002  F1054   1.359   .     S
C1002  C1004   1.399   .     A
C1002  C628    1.371   1_565 S
C1005  H1033   1.082   .     S
C1005  N1038   1.366   .     A
C1005  C1069   1.417   .     S
C1006  H1034   1.082   .     S
C1006  N1037   1.366   .     A
C1007  N1037   1.367   .     A
C1007  H1035   1.082   .     S
C1008  H1036   1.082   .     S
C1008  N1038   1.367   .     A
C1008  C1068   1.417   .     S
C1009  O1045   1.295   .     A
C1009  O1043   1.291   .     A
C1009  C1011   1.460   .     S
C1010  O1044   1.293   .     A
C1010  O1046   1.293   .     A
C1010  C1012   1.460   .     S
C1011  C1015   1.401   .     A
C1011  C1017   1.390   .     A
C1012  C1016   1.402   .     A
C1012  C1018   1.388   .     A
C1013  C1015   1.397   .     A
C1013  C1021   1.415   .     A
C1014  Cl1052  1.766   .     S
C1014  C1016   1.401   .     A
C1014  C1022   1.416   .     A
C1015  F1050   1.359   .     S
C1016  F1049   1.358   .     S
C1017  C1019   1.396   .     A
C1017  H1028   1.077   .     S
C1018  C1020   1.393   .     A
C1018  H1027   1.080   .     S
C1019  C1021   1.423   .     A
C1019  C1023   1.420   .     A
C1020  C1022   1.419   .     A
C1020  C1024   1.417   .     A
C1021  C439    1.396   1_556 S
C1023  C466    1.411   1_556 S
N1037  Zn1047  2.010   .     S
N1038  Zn1048  2.010   .     S
O1039  Zn1047  1.996   .     S
O1040  Zn1048  1.996   .     S
O1041  Zn1048  1.994   .     S
O1042  Zn1047  1.994   .     S
O1043  Zn1047  1.960   .     S
O1044  Zn1048  1.960   .     S
O1045  Zn1048  1.905   .     S
O1046  Zn1047  1.905   .     S
Cl1051 C1075   1.766   .     S
C1055  C1066   1.415   .     S
C1055  O1103   1.283   .     A
C1055  O1101   1.281   .     A
C1056  C1065   1.415   .     S
C1056  O1104   1.283   .     A
C1056  O1102   1.281   .     A
C1057  C1086   1.415   .     A
C1057  H1091   1.079   .     S
C1057  C1059   1.387   .     A
C1058  H1092   1.078   .     S
C1058  C1085   1.416   .     A
C1058  C1060   1.390   .     A
C1059  H1087   1.082   .     S
C1060  H1088   1.082   .     S
C1060  C526    1.397   1_556 S
C1061  H1093   1.084   .     S
C1061  C1066   1.396   .     A
C1061  C691    1.371   1_565 S
C1062  H1094   1.084   .     S
C1062  C1065   1.396   .     A
C1063  C1065   1.399   .     A
C1063  F1115   1.359   .     S
C1064  F1116   1.359   .     S
C1064  C1066   1.399   .     A
C1064  C690    1.371   1_565 S
C1067  H1095   1.082   .     S
C1067  N1100   1.366   .     A
C1067  C945    1.417   1_655 S
C1068  H1096   1.082   .     S
C1068  N1099   1.366   .     A
C1069  N1099   1.367   .     A
C1069  H1097   1.082   .     S
C1070  H1098   1.082   .     S
C1070  N1100   1.367   .     A
C1070  C944    1.417   1_655 S
C1071  O1107   1.295   .     A
C1071  O1105   1.291   .     A
C1071  C1073   1.460   .     S
C1072  O1106   1.293   .     A
C1072  O1108   1.293   .     A
C1072  C1074   1.460   .     S
C1073  C1077   1.401   .     A
C1073  C1079   1.390   .     A
C1074  C1078   1.402   .     A
C1074  C1080   1.388   .     A
C1075  C1077   1.397   .     A
C1075  C1083   1.415   .     A
C1076  Cl1114  1.766   .     S
C1076  C1078   1.401   .     A
C1076  C1084   1.416   .     A
C1077  F1112   1.359   .     S
C1078  F1111   1.358   .     S
C1079  C1081   1.396   .     A
C1079  H1090   1.077   .     S
C1080  C1082   1.393   .     A
C1080  H1089   1.080   .     S
C1081  C1083   1.423   .     A
C1081  C1085   1.420   .     A
C1082  C1084   1.419   .     A
C1082  C1086   1.417   .     A
C1083  C501    1.396   1_556 S
C1085  C528    1.411   1_556 S
N1099  Zn1109  2.010   .     S
N1100  Zn1110  2.010   .     S
O1101  Zn1109  1.996   .     S
O1102  Zn1110  1.996   .     S
O1103  Zn1110  1.994   .     S
O1104  Zn1109  1.994   .     S
O1105  Zn1109  1.960   .     S
O1106  Zn1110  1.960   .     S
O1107  Zn1110  1.905   .     S
O1108  Zn1109  1.905   .     S
Cl1113 C951    1.766   1_655 S
