data_str_m3_o10_o17_pcu_sym.57
_audit_creation_date              2020-01-03
_audit_creation_method            'Materials Studio'
_symmetry_space_group_name_H-M    'P1'
_symmetry_Int_Tables_number       1
_symmetry_cell_setting            triclinic
loop_
_symmetry_equiv_pos_as_xyz
  x,y,z
_cell_length_a                    23.3096
_cell_length_b                    26.5192
_cell_length_c                    29.9926
_cell_angle_alpha                 90.2002
_cell_angle_beta                  84.1149
_cell_angle_gamma                 93.5532
loop_
_atom_site_label
_atom_site_type_symbol
_atom_site_fract_x
_atom_site_fract_y
_atom_site_fract_z
_atom_site_U_iso_or_equiv
_atom_site_adp_type
_atom_site_occupancy
C1     C     0.18180   0.26475   0.24750   0.00000  Uiso   1.00
C2     C     0.18431   0.20659   0.40484   0.00000  Uiso   1.00
C3     C     0.16548   0.16976   0.11585   0.00000  Uiso   1.00
C4     C     0.16608   0.16273   0.38421   0.00000  Uiso   1.00
C5     C     0.16768   0.21568   0.09217   0.00000  Uiso   1.00
C6     C     0.14630   0.11891   0.40880   0.00000  Uiso   1.00
C7     C     0.17531   0.21329   0.04510   0.00000  Uiso   1.00
C8     C     0.14820   0.11953   0.45568   0.00000  Uiso   1.00
C9     C     0.16405   0.16659   0.02369   0.00000  Uiso   1.00
C10    C     0.16563   0.16492   0.47680   0.00000  Uiso   1.00
C11    C     0.14825   0.12226   0.04941   0.00000  Uiso   1.00
C12    C     0.15125   0.06852   0.25117   0.00000  Uiso   1.00
C13    C     0.18303   0.20906   0.45119   0.00000  Uiso   1.00
C14    C     0.19258   0.25631   0.01904   0.00000  Uiso   1.00
C15    C     0.12991   0.07674   0.48214   0.00000  Uiso   1.00
C16    C     0.14833   0.26366   0.11602   0.00000  Uiso   1.00
C17    C     0.19507   0.30644   0.11687   0.00000  Uiso   1.00
C18    C     0.12046   0.07330   0.38560   0.00000  Uiso   1.00
C19    C     0.05497   0.06806   0.39716   0.00000  Uiso   1.00
C20    C     0.21454   0.30366   0.44730   0.00000  Uiso   1.00
C21    C     0.27605   0.30451   0.42453   0.00000  Uiso   1.00
C22    C     0.09309   0.03417   0.05375   0.00000  Uiso   1.00
C23    C     0.19742   0.25486   0.47259   0.00000  Uiso   1.00
C24    C     0.02844   0.03485   0.04911   0.00000  Uiso   1.00
C25    C     0.24871   0.00690   0.21905   0.00000  Uiso   1.00
C26    C     0.29278   0.30484   0.19666   0.00000  Uiso   1.00
C27    C     0.08239   0.32589   0.27614   0.00000  Uiso   1.00
C28    C     0.03338   0.02681   0.28972   0.00000  Uiso   1.00
C29    C     0.12656   0.07820   0.02866   0.00000  Uiso   1.00
C30    C     0.18915   0.31858   0.24129   0.00000  Uiso   1.00
C31    C     0.14263   0.01448   0.25480   0.00000  Uiso   1.00
C32    C     0.16638   0.16508   0.33645   0.00000  Uiso   1.00
C33    C     0.16676   0.16850   0.16354   0.00000  Uiso   1.00
C34    C     0.15514   0.12380   0.09495   0.00000  Uiso   1.00
H35    H     0.15162   0.08998   0.11524   0.00000  Uiso   1.00
H36    H     0.03942   0.03062   0.38541   0.00000  Uiso   1.00
H37    H     0.12986   0.07519   0.34871   0.00000  Uiso   1.00
H38    H     0.14041   0.03873   0.39494   0.00000  Uiso   1.00
H39    H     0.20469   0.29143   0.03403   0.00000  Uiso   1.00
H40    H     0.11571   0.04160   0.46731   0.00000  Uiso   1.00
H41    H     0.30744   0.31072   0.44978   0.00000  Uiso   1.00
H42    H     0.28517   0.26893   0.40635   0.00000  Uiso   1.00
H43    H     0.28149   0.00265   0.39997   0.00000  Uiso   1.00
H44    H     0.18372   0.30916   0.42235   0.00000  Uiso   1.00
H45    H     0.21177   0.00350   0.46998   0.00000  Uiso   1.00
H46    H     0.19763   0.23913   0.38378   0.00000  Uiso   1.00
H47    H     0.00494   0.00289   0.06838   0.00000  Uiso   1.00
H48    H     0.01159   0.07076   0.06254   0.00000  Uiso   1.00
H49    H     0.01989   0.03082   0.01349   0.00000  Uiso   1.00
H50    H     0.10895   0.33162   0.03961   0.00000  Uiso   1.00
H51    H     0.09768   0.03372   0.08995   0.00000  Uiso   1.00
H52    H     0.31390   0.28486   0.22220   0.00000  Uiso   1.00
H53    H     0.27249   0.27656   0.17505   0.00000  Uiso   1.00
H54    H     0.32725   0.32732   0.17573   0.00000  Uiso   1.00
H55    H     0.24249   0.03450   0.19251   0.00000  Uiso   1.00
H56    H     0.26991   0.02687   0.24557   0.00000  Uiso   1.00
H57    H     0.23901   0.29246   0.11076   0.00000  Uiso   1.00
H58    H     0.04586   0.05603   0.31338   0.00000  Uiso   1.00
H59    H     0.02128   0.04566   0.25959   0.00000  Uiso   1.00
H60    H     0.32850   0.00401   0.30563   0.00000  Uiso   1.00
H61    H     0.06329   0.30150   0.25086   0.00000  Uiso   1.00
H62    H     0.08854   0.30395   0.30667   0.00000  Uiso   1.00
H63    H     0.00535   0.12814   0.21663   0.00000  Uiso   1.00
H64    H     0.32800   0.20531   0.28327   0.00000  Uiso   1.00
H65    H     0.19046   0.00297   0.09208   0.00000  Uiso   1.00
H66    H     0.18870   0.32546   0.14940   0.00000  Uiso   1.00
H67    H     0.11125   0.27698   0.09998   0.00000  Uiso   1.00
H68    H     0.13038   0.25573   0.15112   0.00000  Uiso   1.00
H69    H     0.04149   0.07028   0.43356   0.00000  Uiso   1.00
H70    H     0.03422   0.09844   0.38050   0.00000  Uiso   1.00
N71    N     0.31678   0.15265   0.23783   0.00000  Uiso   1.00
N72    N     0.01656   0.18068   0.26217   0.00000  Uiso   1.00
O73    O     0.12975   0.24619   0.25299   0.00000  Uiso   1.00
O74    O     0.20358   0.08714   0.24702   0.00000  Uiso   1.00
O75    O     0.22613   0.23721   0.24518   0.00000  Uiso   1.00
O76    O     0.10720   0.09613   0.25482   0.00000  Uiso   1.00
O77    O     0.11847   0.17117   0.31998   0.00000  Uiso   1.00
O78    O     0.21486   0.16216   0.18002   0.00000  Uiso   1.00
O79    O     0.21485   0.16219   0.31218   0.00000  Uiso   1.00
O80    O     0.11848   0.17115   0.18782   0.00000  Uiso   1.00
Zn81   Zn    0.10231   0.17266   0.25521   0.00000  Uiso   1.00
Zn82   Zn    0.23102   0.16067   0.24479   0.00000  Uiso   1.00
C83    C     0.51514   0.26475   0.24750   0.00000  Uiso   1.00
C84    C     0.51765   0.20659   0.40484   0.00000  Uiso   1.00
C85    C     0.49881   0.16976   0.11585   0.00000  Uiso   1.00
C86    C     0.49941   0.16273   0.38421   0.00000  Uiso   1.00
C87    C     0.50102   0.21568   0.09217   0.00000  Uiso   1.00
C88    C     0.47964   0.11891   0.40880   0.00000  Uiso   1.00
C89    C     0.50864   0.21329   0.04510   0.00000  Uiso   1.00
C90    C     0.48154   0.11953   0.45568   0.00000  Uiso   1.00
C91    C     0.49738   0.16659   0.02369   0.00000  Uiso   1.00
C92    C     0.49896   0.16492   0.47680   0.00000  Uiso   1.00
C93    C     0.48158   0.12226   0.04941   0.00000  Uiso   1.00
C94    C     0.48459   0.06852   0.25117   0.00000  Uiso   1.00
C95    C     0.51637   0.20906   0.45119   0.00000  Uiso   1.00
C96    C     0.52591   0.25631   0.01904   0.00000  Uiso   1.00
C97    C     0.46324   0.07674   0.48214   0.00000  Uiso   1.00
C98    C     0.48166   0.26366   0.11602   0.00000  Uiso   1.00
C99    C     0.52840   0.30644   0.11687   0.00000  Uiso   1.00
C100   C     0.45379   0.07330   0.38560   0.00000  Uiso   1.00
C101   C     0.38831   0.06806   0.39716   0.00000  Uiso   1.00
C102   C     0.54788   0.30366   0.44730   0.00000  Uiso   1.00
C103   C     0.60939   0.30451   0.42453   0.00000  Uiso   1.00
C104   C     0.42642   0.03417   0.05375   0.00000  Uiso   1.00
C105   C     0.53075   0.25486   0.47259   0.00000  Uiso   1.00
C106   C     0.36177   0.03485   0.04911   0.00000  Uiso   1.00
C107   C     0.58204   0.00690   0.21905   0.00000  Uiso   1.00
C108   C     0.62611   0.30484   0.19666   0.00000  Uiso   1.00
C109   C     0.41572   0.32589   0.27614   0.00000  Uiso   1.00
C110   C     0.36672   0.02681   0.28972   0.00000  Uiso   1.00
C111   C     0.45990   0.07820   0.02866   0.00000  Uiso   1.00
C112   C     0.52248   0.31858   0.24129   0.00000  Uiso   1.00
C113   C     0.47596   0.01448   0.25480   0.00000  Uiso   1.00
C114   C     0.49972   0.16508   0.33645   0.00000  Uiso   1.00
C115   C     0.50009   0.16850   0.16354   0.00000  Uiso   1.00
C116   C     0.48847   0.12380   0.09495   0.00000  Uiso   1.00
H117   H     0.48495   0.08998   0.11524   0.00000  Uiso   1.00
H118   H     0.37275   0.03062   0.38541   0.00000  Uiso   1.00
H119   H     0.46319   0.07519   0.34871   0.00000  Uiso   1.00
H120   H     0.47375   0.03873   0.39494   0.00000  Uiso   1.00
H121   H     0.53802   0.29143   0.03403   0.00000  Uiso   1.00
H122   H     0.44904   0.04160   0.46731   0.00000  Uiso   1.00
H123   H     0.64078   0.31072   0.44978   0.00000  Uiso   1.00
H124   H     0.61850   0.26893   0.40635   0.00000  Uiso   1.00
H125   H     0.61482   0.00265   0.39997   0.00000  Uiso   1.00
H126   H     0.51705   0.30916   0.42235   0.00000  Uiso   1.00
H127   H     0.54510   0.00350   0.46998   0.00000  Uiso   1.00
H128   H     0.53096   0.23913   0.38378   0.00000  Uiso   1.00
H129   H     0.33827   0.00289   0.06838   0.00000  Uiso   1.00
H130   H     0.34493   0.07076   0.06254   0.00000  Uiso   1.00
H131   H     0.35322   0.03082   0.01349   0.00000  Uiso   1.00
H132   H     0.44228   0.33162   0.03961   0.00000  Uiso   1.00
H133   H     0.43101   0.03372   0.08995   0.00000  Uiso   1.00
H134   H     0.64723   0.28486   0.22220   0.00000  Uiso   1.00
H135   H     0.60583   0.27656   0.17505   0.00000  Uiso   1.00
H136   H     0.66058   0.32732   0.17573   0.00000  Uiso   1.00
H137   H     0.57583   0.03450   0.19251   0.00000  Uiso   1.00
H138   H     0.60325   0.02687   0.24557   0.00000  Uiso   1.00
H139   H     0.57234   0.29246   0.11076   0.00000  Uiso   1.00
H140   H     0.37919   0.05603   0.31338   0.00000  Uiso   1.00
H141   H     0.35461   0.04566   0.25959   0.00000  Uiso   1.00
H142   H     0.66184   0.00401   0.30563   0.00000  Uiso   1.00
H143   H     0.39663   0.30150   0.25086   0.00000  Uiso   1.00
H144   H     0.42188   0.30395   0.30667   0.00000  Uiso   1.00
H145   H     0.33869   0.12814   0.21663   0.00000  Uiso   1.00
H146   H     0.66133   0.20531   0.28327   0.00000  Uiso   1.00
H147   H     0.52379   0.00297   0.09208   0.00000  Uiso   1.00
H148   H     0.52204   0.32546   0.14940   0.00000  Uiso   1.00
H149   H     0.44458   0.27698   0.09998   0.00000  Uiso   1.00
H150   H     0.46371   0.25573   0.15112   0.00000  Uiso   1.00
H151   H     0.37482   0.07028   0.43356   0.00000  Uiso   1.00
H152   H     0.36755   0.09844   0.38050   0.00000  Uiso   1.00
N153   N     0.65011   0.15265   0.23783   0.00000  Uiso   1.00
N154   N     0.34989   0.18068   0.26217   0.00000  Uiso   1.00
O155   O     0.46308   0.24619   0.25299   0.00000  Uiso   1.00
O156   O     0.53692   0.08714   0.24702   0.00000  Uiso   1.00
O157   O     0.55946   0.23721   0.24518   0.00000  Uiso   1.00
O158   O     0.44054   0.09613   0.25482   0.00000  Uiso   1.00
O159   O     0.45181   0.17117   0.31998   0.00000  Uiso   1.00
O160   O     0.54819   0.16216   0.18002   0.00000  Uiso   1.00
O161   O     0.54819   0.16219   0.31218   0.00000  Uiso   1.00
O162   O     0.45181   0.17115   0.18782   0.00000  Uiso   1.00
Zn163  Zn    0.43565   0.17266   0.25521   0.00000  Uiso   1.00
Zn164  Zn    0.56435   0.16067   0.24479   0.00000  Uiso   1.00
C165   C     0.84847   0.26475   0.24750   0.00000  Uiso   1.00
C166   C     0.85098   0.20659   0.40484   0.00000  Uiso   1.00
C167   C     0.83215   0.16976   0.11585   0.00000  Uiso   1.00
C168   C     0.83275   0.16273   0.38421   0.00000  Uiso   1.00
C169   C     0.83435   0.21568   0.09217   0.00000  Uiso   1.00
C170   C     0.81297   0.11891   0.40880   0.00000  Uiso   1.00
C171   C     0.84197   0.21329   0.04510   0.00000  Uiso   1.00
C172   C     0.81487   0.11953   0.45568   0.00000  Uiso   1.00
C173   C     0.83071   0.16659   0.02369   0.00000  Uiso   1.00
C174   C     0.83230   0.16492   0.47680   0.00000  Uiso   1.00
C175   C     0.81491   0.12226   0.04941   0.00000  Uiso   1.00
C176   C     0.81792   0.06852   0.25117   0.00000  Uiso   1.00
C177   C     0.84970   0.20906   0.45119   0.00000  Uiso   1.00
C178   C     0.85925   0.25631   0.01904   0.00000  Uiso   1.00
C179   C     0.79658   0.07674   0.48214   0.00000  Uiso   1.00
C180   C     0.81499   0.26366   0.11602   0.00000  Uiso   1.00
C181   C     0.86174   0.30644   0.11687   0.00000  Uiso   1.00
C182   C     0.78712   0.07330   0.38560   0.00000  Uiso   1.00
C183   C     0.72164   0.06806   0.39716   0.00000  Uiso   1.00
C184   C     0.88121   0.30366   0.44730   0.00000  Uiso   1.00
C185   C     0.94272   0.30451   0.42453   0.00000  Uiso   1.00
C186   C     0.75975   0.03417   0.05375   0.00000  Uiso   1.00
C187   C     0.86409   0.25486   0.47259   0.00000  Uiso   1.00
C188   C     0.69511   0.03485   0.04911   0.00000  Uiso   1.00
C189   C     0.91538   0.00690   0.21905   0.00000  Uiso   1.00
C190   C     0.95944   0.30484   0.19666   0.00000  Uiso   1.00
C191   C     0.74906   0.32589   0.27614   0.00000  Uiso   1.00
C192   C     0.70005   0.02681   0.28972   0.00000  Uiso   1.00
C193   C     0.79323   0.07820   0.02866   0.00000  Uiso   1.00
C194   C     0.85581   0.31858   0.24129   0.00000  Uiso   1.00
C195   C     0.80929   0.01448   0.25480   0.00000  Uiso   1.00
C196   C     0.83305   0.16508   0.33645   0.00000  Uiso   1.00
C197   C     0.83342   0.16850   0.16354   0.00000  Uiso   1.00
C198   C     0.82180   0.12380   0.09495   0.00000  Uiso   1.00
H199   H     0.81828   0.08998   0.11524   0.00000  Uiso   1.00
H200   H     0.70609   0.03062   0.38541   0.00000  Uiso   1.00
H201   H     0.79653   0.07519   0.34871   0.00000  Uiso   1.00
H202   H     0.80708   0.03873   0.39494   0.00000  Uiso   1.00
H203   H     0.87135   0.29143   0.03403   0.00000  Uiso   1.00
H204   H     0.78237   0.04160   0.46731   0.00000  Uiso   1.00
H205   H     0.97411   0.31072   0.44978   0.00000  Uiso   1.00
H206   H     0.95183   0.26893   0.40635   0.00000  Uiso   1.00
H207   H     0.94816   0.00265   0.39997   0.00000  Uiso   1.00
H208   H     0.85038   0.30916   0.42235   0.00000  Uiso   1.00
H209   H     0.87844   0.00350   0.46998   0.00000  Uiso   1.00
H210   H     0.86430   0.23913   0.38378   0.00000  Uiso   1.00
H211   H     0.67160   0.00289   0.06838   0.00000  Uiso   1.00
H212   H     0.67826   0.07076   0.06254   0.00000  Uiso   1.00
H213   H     0.68656   0.03082   0.01349   0.00000  Uiso   1.00
H214   H     0.77562   0.33162   0.03961   0.00000  Uiso   1.00
H215   H     0.76435   0.03372   0.08995   0.00000  Uiso   1.00
H216   H     0.98057   0.28486   0.22220   0.00000  Uiso   1.00
H217   H     0.93916   0.27656   0.17505   0.00000  Uiso   1.00
H218   H     0.99392   0.32732   0.17573   0.00000  Uiso   1.00
H219   H     0.90916   0.03450   0.19251   0.00000  Uiso   1.00
H220   H     0.93658   0.02687   0.24557   0.00000  Uiso   1.00
H221   H     0.90568   0.29246   0.11076   0.00000  Uiso   1.00
H222   H     0.71252   0.05603   0.31338   0.00000  Uiso   1.00
H223   H     0.68794   0.04566   0.25959   0.00000  Uiso   1.00
H224   H     0.99517   0.00401   0.30563   0.00000  Uiso   1.00
H225   H     0.72996   0.30150   0.25086   0.00000  Uiso   1.00
H226   H     0.75521   0.30395   0.30667   0.00000  Uiso   1.00
H227   H     0.67202   0.12814   0.21663   0.00000  Uiso   1.00
H228   H     0.99466   0.20531   0.28327   0.00000  Uiso   1.00
H229   H     0.85713   0.00297   0.09208   0.00000  Uiso   1.00
H230   H     0.85537   0.32546   0.14940   0.00000  Uiso   1.00
H231   H     0.77792   0.27698   0.09998   0.00000  Uiso   1.00
H232   H     0.79704   0.25573   0.15112   0.00000  Uiso   1.00
H233   H     0.70816   0.07028   0.43356   0.00000  Uiso   1.00
H234   H     0.70088   0.09844   0.38050   0.00000  Uiso   1.00
N235   N     0.98344   0.15265   0.23783   0.00000  Uiso   1.00
N236   N     0.68322   0.18068   0.26217   0.00000  Uiso   1.00
O237   O     0.79642   0.24619   0.25299   0.00000  Uiso   1.00
O238   O     0.87025   0.08714   0.24702   0.00000  Uiso   1.00
O239   O     0.89280   0.23721   0.24518   0.00000  Uiso   1.00
O240   O     0.77387   0.09613   0.25482   0.00000  Uiso   1.00
O241   O     0.78514   0.17117   0.31998   0.00000  Uiso   1.00
O242   O     0.88153   0.16216   0.18002   0.00000  Uiso   1.00
O243   O     0.88152   0.16219   0.31218   0.00000  Uiso   1.00
O244   O     0.78515   0.17115   0.18782   0.00000  Uiso   1.00
Zn245  Zn    0.76898   0.17266   0.25521   0.00000  Uiso   1.00
Zn246  Zn    0.89769   0.16067   0.24479   0.00000  Uiso   1.00
C247   C     0.18180   0.59809   0.24750   0.00000  Uiso   1.00
C248   C     0.18431   0.53992   0.40484   0.00000  Uiso   1.00
C249   C     0.16548   0.50309   0.11585   0.00000  Uiso   1.00
C250   C     0.16608   0.49606   0.38421   0.00000  Uiso   1.00
C251   C     0.16768   0.54901   0.09217   0.00000  Uiso   1.00
C252   C     0.14630   0.45225   0.40880   0.00000  Uiso   1.00
C253   C     0.17531   0.54662   0.04510   0.00000  Uiso   1.00
C254   C     0.14820   0.45286   0.45568   0.00000  Uiso   1.00
C255   C     0.16405   0.49993   0.02369   0.00000  Uiso   1.00
C256   C     0.16563   0.49826   0.47680   0.00000  Uiso   1.00
C257   C     0.14825   0.45559   0.04941   0.00000  Uiso   1.00
C258   C     0.15125   0.40185   0.25117   0.00000  Uiso   1.00
C259   C     0.18303   0.54239   0.45119   0.00000  Uiso   1.00
C260   C     0.19258   0.58965   0.01904   0.00000  Uiso   1.00
C261   C     0.12991   0.41008   0.48214   0.00000  Uiso   1.00
C262   C     0.14833   0.59699   0.11602   0.00000  Uiso   1.00
C263   C     0.19507   0.63977   0.11687   0.00000  Uiso   1.00
C264   C     0.12046   0.40664   0.38560   0.00000  Uiso   1.00
C265   C     0.05497   0.40139   0.39716   0.00000  Uiso   1.00
C266   C     0.21454   0.63699   0.44730   0.00000  Uiso   1.00
C267   C     0.27605   0.63784   0.42453   0.00000  Uiso   1.00
C268   C     0.09309   0.36751   0.05375   0.00000  Uiso   1.00
C269   C     0.19742   0.58819   0.47259   0.00000  Uiso   1.00
C270   C     0.02844   0.36819   0.04911   0.00000  Uiso   1.00
C271   C     0.24871   0.34024   0.21905   0.00000  Uiso   1.00
C272   C     0.29278   0.63817   0.19666   0.00000  Uiso   1.00
C273   C     0.08239   0.65922   0.27614   0.00000  Uiso   1.00
C274   C     0.03338   0.36015   0.28972   0.00000  Uiso   1.00
C275   C     0.12656   0.41153   0.02866   0.00000  Uiso   1.00
C276   C     0.18915   0.65192   0.24129   0.00000  Uiso   1.00
C277   C     0.14263   0.34782   0.25480   0.00000  Uiso   1.00
C278   C     0.16638   0.49841   0.33645   0.00000  Uiso   1.00
C279   C     0.16676   0.50183   0.16354   0.00000  Uiso   1.00
C280   C     0.15514   0.45714   0.09495   0.00000  Uiso   1.00
H281   H     0.15162   0.42331   0.11524   0.00000  Uiso   1.00
H282   H     0.03942   0.36395   0.38541   0.00000  Uiso   1.00
H283   H     0.12986   0.40852   0.34871   0.00000  Uiso   1.00
H284   H     0.14041   0.37207   0.39494   0.00000  Uiso   1.00
H285   H     0.20469   0.62476   0.03403   0.00000  Uiso   1.00
H286   H     0.11571   0.37493   0.46731   0.00000  Uiso   1.00
H287   H     0.30744   0.64405   0.44978   0.00000  Uiso   1.00
H288   H     0.28517   0.60226   0.40635   0.00000  Uiso   1.00
H289   H     0.28149   0.33598   0.39997   0.00000  Uiso   1.00
H290   H     0.18372   0.64249   0.42235   0.00000  Uiso   1.00
H291   H     0.21177   0.33683   0.46998   0.00000  Uiso   1.00
H292   H     0.19763   0.57246   0.38378   0.00000  Uiso   1.00
H293   H     0.00494   0.33623   0.06838   0.00000  Uiso   1.00
H294   H     0.01159   0.40409   0.06254   0.00000  Uiso   1.00
H295   H     0.01989   0.36415   0.01349   0.00000  Uiso   1.00
H296   H     0.10895   0.66495   0.03961   0.00000  Uiso   1.00
H297   H     0.09768   0.36705   0.08995   0.00000  Uiso   1.00
H298   H     0.31390   0.61819   0.22220   0.00000  Uiso   1.00
H299   H     0.27249   0.60990   0.17505   0.00000  Uiso   1.00
H300   H     0.32725   0.66065   0.17573   0.00000  Uiso   1.00
H301   H     0.24249   0.36783   0.19251   0.00000  Uiso   1.00
H302   H     0.26991   0.36020   0.24557   0.00000  Uiso   1.00
H303   H     0.23901   0.62579   0.11076   0.00000  Uiso   1.00
H304   H     0.04586   0.38937   0.31338   0.00000  Uiso   1.00
H305   H     0.02128   0.37899   0.25959   0.00000  Uiso   1.00
H306   H     0.32850   0.33735   0.30563   0.00000  Uiso   1.00
H307   H     0.06329   0.63484   0.25086   0.00000  Uiso   1.00
H308   H     0.08854   0.63728   0.30667   0.00000  Uiso   1.00
H309   H     0.00535   0.46147   0.21663   0.00000  Uiso   1.00
H310   H     0.32800   0.53864   0.28327   0.00000  Uiso   1.00
H311   H     0.19046   0.33631   0.09208   0.00000  Uiso   1.00
H312   H     0.18870   0.65879   0.14940   0.00000  Uiso   1.00
H313   H     0.11125   0.61032   0.09998   0.00000  Uiso   1.00
H314   H     0.13038   0.58906   0.15112   0.00000  Uiso   1.00
H315   H     0.04149   0.40361   0.43356   0.00000  Uiso   1.00
H316   H     0.03422   0.43178   0.38050   0.00000  Uiso   1.00
N317   N     0.31678   0.48598   0.23783   0.00000  Uiso   1.00
N318   N     0.01656   0.51402   0.26217   0.00000  Uiso   1.00
O319   O     0.12975   0.57952   0.25299   0.00000  Uiso   1.00
O320   O     0.20358   0.42048   0.24702   0.00000  Uiso   1.00
O321   O     0.22613   0.57054   0.24518   0.00000  Uiso   1.00
O322   O     0.10720   0.42946   0.25482   0.00000  Uiso   1.00
O323   O     0.11847   0.50450   0.31998   0.00000  Uiso   1.00
O324   O     0.21486   0.49550   0.18002   0.00000  Uiso   1.00
O325   O     0.21485   0.49552   0.31218   0.00000  Uiso   1.00
O326   O     0.11848   0.50448   0.18782   0.00000  Uiso   1.00
Zn327  Zn    0.10231   0.50600   0.25521   0.00000  Uiso   1.00
Zn328  Zn    0.23102   0.49400   0.24479   0.00000  Uiso   1.00
C329   C     0.51514   0.59809   0.24750   0.00000  Uiso   1.00
C330   C     0.51765   0.53992   0.40484   0.00000  Uiso   1.00
C331   C     0.49881   0.50309   0.11585   0.00000  Uiso   1.00
C332   C     0.49941   0.49606   0.38421   0.00000  Uiso   1.00
C333   C     0.50102   0.54901   0.09217   0.00000  Uiso   1.00
C334   C     0.47964   0.45225   0.40880   0.00000  Uiso   1.00
C335   C     0.50864   0.54662   0.04510   0.00000  Uiso   1.00
C336   C     0.48154   0.45286   0.45568   0.00000  Uiso   1.00
C337   C     0.49738   0.49993   0.02369   0.00000  Uiso   1.00
C338   C     0.49896   0.49826   0.47680   0.00000  Uiso   1.00
C339   C     0.48158   0.45559   0.04941   0.00000  Uiso   1.00
C340   C     0.48459   0.40185   0.25117   0.00000  Uiso   1.00
C341   C     0.51637   0.54239   0.45119   0.00000  Uiso   1.00
C342   C     0.52591   0.58965   0.01904   0.00000  Uiso   1.00
C343   C     0.46324   0.41008   0.48214   0.00000  Uiso   1.00
C344   C     0.48166   0.59699   0.11602   0.00000  Uiso   1.00
C345   C     0.52840   0.63977   0.11687   0.00000  Uiso   1.00
C346   C     0.45379   0.40664   0.38560   0.00000  Uiso   1.00
C347   C     0.38831   0.40139   0.39716   0.00000  Uiso   1.00
C348   C     0.54788   0.63699   0.44730   0.00000  Uiso   1.00
C349   C     0.60939   0.63784   0.42453   0.00000  Uiso   1.00
C350   C     0.42642   0.36751   0.05375   0.00000  Uiso   1.00
C351   C     0.53075   0.58819   0.47259   0.00000  Uiso   1.00
C352   C     0.36177   0.36819   0.04911   0.00000  Uiso   1.00
C353   C     0.58204   0.34024   0.21905   0.00000  Uiso   1.00
C354   C     0.62611   0.63817   0.19666   0.00000  Uiso   1.00
C355   C     0.41572   0.65922   0.27614   0.00000  Uiso   1.00
C356   C     0.36672   0.36015   0.28972   0.00000  Uiso   1.00
C357   C     0.45990   0.41153   0.02866   0.00000  Uiso   1.00
C358   C     0.52248   0.65192   0.24129   0.00000  Uiso   1.00
C359   C     0.47596   0.34782   0.25480   0.00000  Uiso   1.00
C360   C     0.49972   0.49841   0.33645   0.00000  Uiso   1.00
C361   C     0.50009   0.50183   0.16354   0.00000  Uiso   1.00
C362   C     0.48847   0.45714   0.09495   0.00000  Uiso   1.00
H363   H     0.48495   0.42331   0.11524   0.00000  Uiso   1.00
H364   H     0.37275   0.36395   0.38541   0.00000  Uiso   1.00
H365   H     0.46319   0.40852   0.34871   0.00000  Uiso   1.00
H366   H     0.47375   0.37207   0.39494   0.00000  Uiso   1.00
H367   H     0.53802   0.62476   0.03403   0.00000  Uiso   1.00
H368   H     0.44904   0.37493   0.46731   0.00000  Uiso   1.00
H369   H     0.64078   0.64405   0.44978   0.00000  Uiso   1.00
H370   H     0.61850   0.60226   0.40635   0.00000  Uiso   1.00
H371   H     0.61482   0.33598   0.39997   0.00000  Uiso   1.00
H372   H     0.51705   0.64249   0.42235   0.00000  Uiso   1.00
H373   H     0.54510   0.33683   0.46998   0.00000  Uiso   1.00
H374   H     0.53096   0.57246   0.38378   0.00000  Uiso   1.00
H375   H     0.33827   0.33623   0.06838   0.00000  Uiso   1.00
H376   H     0.34493   0.40409   0.06254   0.00000  Uiso   1.00
H377   H     0.35322   0.36415   0.01349   0.00000  Uiso   1.00
H378   H     0.44228   0.66495   0.03961   0.00000  Uiso   1.00
H379   H     0.43101   0.36705   0.08995   0.00000  Uiso   1.00
H380   H     0.64723   0.61819   0.22220   0.00000  Uiso   1.00
H381   H     0.60583   0.60990   0.17505   0.00000  Uiso   1.00
H382   H     0.66058   0.66065   0.17573   0.00000  Uiso   1.00
H383   H     0.57583   0.36783   0.19251   0.00000  Uiso   1.00
H384   H     0.60325   0.36020   0.24557   0.00000  Uiso   1.00
H385   H     0.57234   0.62579   0.11076   0.00000  Uiso   1.00
H386   H     0.37919   0.38937   0.31338   0.00000  Uiso   1.00
H387   H     0.35461   0.37899   0.25959   0.00000  Uiso   1.00
H388   H     0.66184   0.33735   0.30563   0.00000  Uiso   1.00
H389   H     0.39663   0.63484   0.25086   0.00000  Uiso   1.00
H390   H     0.42188   0.63728   0.30667   0.00000  Uiso   1.00
H391   H     0.33869   0.46147   0.21663   0.00000  Uiso   1.00
H392   H     0.66133   0.53864   0.28327   0.00000  Uiso   1.00
H393   H     0.52379   0.33631   0.09208   0.00000  Uiso   1.00
H394   H     0.52204   0.65879   0.14940   0.00000  Uiso   1.00
H395   H     0.44458   0.61032   0.09998   0.00000  Uiso   1.00
H396   H     0.46371   0.58906   0.15112   0.00000  Uiso   1.00
H397   H     0.37482   0.40361   0.43356   0.00000  Uiso   1.00
H398   H     0.36755   0.43178   0.38050   0.00000  Uiso   1.00
N399   N     0.65011   0.48598   0.23783   0.00000  Uiso   1.00
N400   N     0.34989   0.51402   0.26217   0.00000  Uiso   1.00
O401   O     0.46308   0.57952   0.25299   0.00000  Uiso   1.00
O402   O     0.53692   0.42048   0.24702   0.00000  Uiso   1.00
O403   O     0.55946   0.57054   0.24518   0.00000  Uiso   1.00
O404   O     0.44054   0.42946   0.25482   0.00000  Uiso   1.00
O405   O     0.45181   0.50450   0.31998   0.00000  Uiso   1.00
O406   O     0.54819   0.49550   0.18002   0.00000  Uiso   1.00
O407   O     0.54819   0.49552   0.31218   0.00000  Uiso   1.00
O408   O     0.45181   0.50448   0.18782   0.00000  Uiso   1.00
Zn409  Zn    0.43565   0.50600   0.25521   0.00000  Uiso   1.00
Zn410  Zn    0.56435   0.49400   0.24479   0.00000  Uiso   1.00
C411   C     0.84847   0.59809   0.24750   0.00000  Uiso   1.00
C412   C     0.85098   0.53992   0.40484   0.00000  Uiso   1.00
C413   C     0.83215   0.50309   0.11585   0.00000  Uiso   1.00
C414   C     0.83275   0.49606   0.38421   0.00000  Uiso   1.00
C415   C     0.83435   0.54901   0.09217   0.00000  Uiso   1.00
C416   C     0.81297   0.45225   0.40880   0.00000  Uiso   1.00
C417   C     0.84197   0.54662   0.04510   0.00000  Uiso   1.00
C418   C     0.81487   0.45286   0.45568   0.00000  Uiso   1.00
C419   C     0.83071   0.49993   0.02369   0.00000  Uiso   1.00
C420   C     0.83230   0.49826   0.47680   0.00000  Uiso   1.00
C421   C     0.81491   0.45559   0.04941   0.00000  Uiso   1.00
C422   C     0.81792   0.40185   0.25117   0.00000  Uiso   1.00
C423   C     0.84970   0.54239   0.45119   0.00000  Uiso   1.00
C424   C     0.85925   0.58965   0.01904   0.00000  Uiso   1.00
C425   C     0.79658   0.41008   0.48214   0.00000  Uiso   1.00
C426   C     0.81499   0.59699   0.11602   0.00000  Uiso   1.00
C427   C     0.86174   0.63977   0.11687   0.00000  Uiso   1.00
C428   C     0.78712   0.40664   0.38560   0.00000  Uiso   1.00
C429   C     0.72164   0.40139   0.39716   0.00000  Uiso   1.00
C430   C     0.88121   0.63699   0.44730   0.00000  Uiso   1.00
C431   C     0.94272   0.63784   0.42453   0.00000  Uiso   1.00
C432   C     0.75975   0.36751   0.05375   0.00000  Uiso   1.00
C433   C     0.86409   0.58819   0.47259   0.00000  Uiso   1.00
C434   C     0.69511   0.36819   0.04911   0.00000  Uiso   1.00
C435   C     0.91538   0.34024   0.21905   0.00000  Uiso   1.00
C436   C     0.95944   0.63817   0.19666   0.00000  Uiso   1.00
C437   C     0.74906   0.65922   0.27614   0.00000  Uiso   1.00
C438   C     0.70005   0.36015   0.28972   0.00000  Uiso   1.00
C439   C     0.79323   0.41153   0.02866   0.00000  Uiso   1.00
C440   C     0.85581   0.65192   0.24129   0.00000  Uiso   1.00
C441   C     0.80929   0.34782   0.25480   0.00000  Uiso   1.00
C442   C     0.83305   0.49841   0.33645   0.00000  Uiso   1.00
C443   C     0.83342   0.50183   0.16354   0.00000  Uiso   1.00
C444   C     0.82180   0.45714   0.09495   0.00000  Uiso   1.00
H445   H     0.81828   0.42331   0.11524   0.00000  Uiso   1.00
H446   H     0.70609   0.36395   0.38541   0.00000  Uiso   1.00
H447   H     0.79653   0.40852   0.34871   0.00000  Uiso   1.00
H448   H     0.80708   0.37207   0.39494   0.00000  Uiso   1.00
H449   H     0.87135   0.62476   0.03403   0.00000  Uiso   1.00
H450   H     0.78237   0.37493   0.46731   0.00000  Uiso   1.00
H451   H     0.97411   0.64405   0.44978   0.00000  Uiso   1.00
H452   H     0.95183   0.60226   0.40635   0.00000  Uiso   1.00
H453   H     0.94816   0.33598   0.39997   0.00000  Uiso   1.00
H454   H     0.85038   0.64249   0.42235   0.00000  Uiso   1.00
H455   H     0.87844   0.33683   0.46998   0.00000  Uiso   1.00
H456   H     0.86430   0.57246   0.38378   0.00000  Uiso   1.00
H457   H     0.67160   0.33623   0.06838   0.00000  Uiso   1.00
H458   H     0.67826   0.40409   0.06254   0.00000  Uiso   1.00
H459   H     0.68656   0.36415   0.01349   0.00000  Uiso   1.00
H460   H     0.77562   0.66495   0.03961   0.00000  Uiso   1.00
H461   H     0.76435   0.36705   0.08995   0.00000  Uiso   1.00
H462   H     0.98057   0.61819   0.22220   0.00000  Uiso   1.00
H463   H     0.93916   0.60990   0.17505   0.00000  Uiso   1.00
H464   H     0.99392   0.66065   0.17573   0.00000  Uiso   1.00
H465   H     0.90916   0.36783   0.19251   0.00000  Uiso   1.00
H466   H     0.93658   0.36020   0.24557   0.00000  Uiso   1.00
H467   H     0.90568   0.62579   0.11076   0.00000  Uiso   1.00
H468   H     0.71252   0.38937   0.31338   0.00000  Uiso   1.00
H469   H     0.68794   0.37899   0.25959   0.00000  Uiso   1.00
H470   H     0.99517   0.33735   0.30563   0.00000  Uiso   1.00
H471   H     0.72996   0.63484   0.25086   0.00000  Uiso   1.00
H472   H     0.75521   0.63728   0.30667   0.00000  Uiso   1.00
H473   H     0.67202   0.46147   0.21663   0.00000  Uiso   1.00
H474   H     0.99466   0.53864   0.28327   0.00000  Uiso   1.00
H475   H     0.85713   0.33631   0.09208   0.00000  Uiso   1.00
H476   H     0.85537   0.65879   0.14940   0.00000  Uiso   1.00
H477   H     0.77792   0.61032   0.09998   0.00000  Uiso   1.00
H478   H     0.79704   0.58906   0.15112   0.00000  Uiso   1.00
H479   H     0.70816   0.40361   0.43356   0.00000  Uiso   1.00
H480   H     0.70088   0.43178   0.38050   0.00000  Uiso   1.00
N481   N     0.98344   0.48598   0.23783   0.00000  Uiso   1.00
N482   N     0.68322   0.51402   0.26217   0.00000  Uiso   1.00
O483   O     0.79642   0.57952   0.25299   0.00000  Uiso   1.00
O484   O     0.87025   0.42048   0.24702   0.00000  Uiso   1.00
O485   O     0.89280   0.57054   0.24518   0.00000  Uiso   1.00
O486   O     0.77387   0.42946   0.25482   0.00000  Uiso   1.00
O487   O     0.78514   0.50450   0.31998   0.00000  Uiso   1.00
O488   O     0.88153   0.49550   0.18002   0.00000  Uiso   1.00
O489   O     0.88152   0.49552   0.31218   0.00000  Uiso   1.00
O490   O     0.78515   0.50448   0.18782   0.00000  Uiso   1.00
Zn491  Zn    0.76898   0.50600   0.25521   0.00000  Uiso   1.00
Zn492  Zn    0.89769   0.49400   0.24479   0.00000  Uiso   1.00
C493   C     0.18180   0.93142   0.24750   0.00000  Uiso   1.00
C494   C     0.18431   0.87326   0.40484   0.00000  Uiso   1.00
C495   C     0.16548   0.83643   0.11585   0.00000  Uiso   1.00
C496   C     0.16608   0.82939   0.38421   0.00000  Uiso   1.00
C497   C     0.16768   0.88234   0.09217   0.00000  Uiso   1.00
C498   C     0.14630   0.78558   0.40880   0.00000  Uiso   1.00
C499   C     0.17531   0.87996   0.04510   0.00000  Uiso   1.00
C500   C     0.14820   0.78620   0.45568   0.00000  Uiso   1.00
C501   C     0.16405   0.83326   0.02369   0.00000  Uiso   1.00
C502   C     0.16563   0.83159   0.47680   0.00000  Uiso   1.00
C503   C     0.14825   0.78892   0.04941   0.00000  Uiso   1.00
C504   C     0.15125   0.73519   0.25117   0.00000  Uiso   1.00
C505   C     0.18303   0.87572   0.45119   0.00000  Uiso   1.00
C506   C     0.19258   0.92298   0.01904   0.00000  Uiso   1.00
C507   C     0.12991   0.74341   0.48214   0.00000  Uiso   1.00
C508   C     0.14833   0.93032   0.11602   0.00000  Uiso   1.00
C509   C     0.19507   0.97310   0.11687   0.00000  Uiso   1.00
C510   C     0.12046   0.73997   0.38560   0.00000  Uiso   1.00
C511   C     0.05497   0.73473   0.39716   0.00000  Uiso   1.00
C512   C     0.21454   0.97033   0.44730   0.00000  Uiso   1.00
C513   C     0.27605   0.97117   0.42453   0.00000  Uiso   1.00
C514   C     0.09309   0.70084   0.05375   0.00000  Uiso   1.00
C515   C     0.19742   0.92152   0.47259   0.00000  Uiso   1.00
C516   C     0.02844   0.70152   0.04911   0.00000  Uiso   1.00
C517   C     0.24871   0.67357   0.21905   0.00000  Uiso   1.00
C518   C     0.29278   0.97151   0.19666   0.00000  Uiso   1.00
C519   C     0.08239   0.99255   0.27614   0.00000  Uiso   1.00
C520   C     0.03338   0.69348   0.28972   0.00000  Uiso   1.00
C521   C     0.12656   0.74486   0.02866   0.00000  Uiso   1.00
C522   C     0.18915   0.98525   0.24129   0.00000  Uiso   1.00
C523   C     0.14263   0.68115   0.25480   0.00000  Uiso   1.00
C524   C     0.16638   0.83174   0.33645   0.00000  Uiso   1.00
C525   C     0.16676   0.83517   0.16354   0.00000  Uiso   1.00
C526   C     0.15514   0.79047   0.09495   0.00000  Uiso   1.00
H527   H     0.15162   0.75665   0.11524   0.00000  Uiso   1.00
H528   H     0.03942   0.69729   0.38541   0.00000  Uiso   1.00
H529   H     0.12986   0.74186   0.34871   0.00000  Uiso   1.00
H530   H     0.14041   0.70540   0.39494   0.00000  Uiso   1.00
H531   H     0.20469   0.95810   0.03403   0.00000  Uiso   1.00
H532   H     0.11571   0.70827   0.46731   0.00000  Uiso   1.00
H533   H     0.30744   0.97739   0.44978   0.00000  Uiso   1.00
H534   H     0.28517   0.93559   0.40635   0.00000  Uiso   1.00
H535   H     0.28149   0.66931   0.39997   0.00000  Uiso   1.00
H536   H     0.18372   0.97582   0.42235   0.00000  Uiso   1.00
H537   H     0.21177   0.67016   0.46998   0.00000  Uiso   1.00
H538   H     0.19763   0.90580   0.38378   0.00000  Uiso   1.00
H539   H     0.00494   0.66956   0.06838   0.00000  Uiso   1.00
H540   H     0.01159   0.73742   0.06254   0.00000  Uiso   1.00
H541   H     0.01989   0.69749   0.01349   0.00000  Uiso   1.00
H542   H     0.10895   0.99828   0.03961   0.00000  Uiso   1.00
H543   H     0.09768   0.70039   0.08995   0.00000  Uiso   1.00
H544   H     0.31390   0.95153   0.22220   0.00000  Uiso   1.00
H545   H     0.27249   0.94323   0.17505   0.00000  Uiso   1.00
H546   H     0.32725   0.99398   0.17573   0.00000  Uiso   1.00
H547   H     0.24249   0.70117   0.19251   0.00000  Uiso   1.00
H548   H     0.26991   0.69353   0.24557   0.00000  Uiso   1.00
H549   H     0.23901   0.95912   0.11076   0.00000  Uiso   1.00
H550   H     0.04586   0.72270   0.31338   0.00000  Uiso   1.00
H551   H     0.02128   0.71232   0.25959   0.00000  Uiso   1.00
H552   H     0.32850   0.67068   0.30563   0.00000  Uiso   1.00
H553   H     0.06329   0.96817   0.25086   0.00000  Uiso   1.00
H554   H     0.08854   0.97061   0.30667   0.00000  Uiso   1.00
H555   H     0.00535   0.79481   0.21663   0.00000  Uiso   1.00
H556   H     0.32800   0.87197   0.28327   0.00000  Uiso   1.00
H557   H     0.19046   0.66964   0.09208   0.00000  Uiso   1.00
H558   H     0.18870   0.99212   0.14940   0.00000  Uiso   1.00
H559   H     0.11125   0.94365   0.09998   0.00000  Uiso   1.00
H560   H     0.13038   0.92239   0.15112   0.00000  Uiso   1.00
H561   H     0.04149   0.73694   0.43356   0.00000  Uiso   1.00
H562   H     0.03422   0.76511   0.38050   0.00000  Uiso   1.00
N563   N     0.31678   0.81932   0.23783   0.00000  Uiso   1.00
N564   N     0.01656   0.84735   0.26217   0.00000  Uiso   1.00
O565   O     0.12975   0.91286   0.25299   0.00000  Uiso   1.00
O566   O     0.20358   0.75381   0.24702   0.00000  Uiso   1.00
O567   O     0.22613   0.90387   0.24518   0.00000  Uiso   1.00
O568   O     0.10720   0.76279   0.25482   0.00000  Uiso   1.00
O569   O     0.11847   0.83784   0.31998   0.00000  Uiso   1.00
O570   O     0.21486   0.82883   0.18002   0.00000  Uiso   1.00
O571   O     0.21485   0.82885   0.31218   0.00000  Uiso   1.00
O572   O     0.11848   0.83781   0.18782   0.00000  Uiso   1.00
Zn573  Zn    0.10231   0.83933   0.25521   0.00000  Uiso   1.00
Zn574  Zn    0.23102   0.82734   0.24479   0.00000  Uiso   1.00
C575   C     0.51514   0.93142   0.24750   0.00000  Uiso   1.00
C576   C     0.51765   0.87326   0.40484   0.00000  Uiso   1.00
C577   C     0.49881   0.83643   0.11585   0.00000  Uiso   1.00
C578   C     0.49941   0.82939   0.38421   0.00000  Uiso   1.00
C579   C     0.50102   0.88234   0.09217   0.00000  Uiso   1.00
C580   C     0.47964   0.78558   0.40880   0.00000  Uiso   1.00
C581   C     0.50864   0.87996   0.04510   0.00000  Uiso   1.00
C582   C     0.48154   0.78620   0.45568   0.00000  Uiso   1.00
C583   C     0.49738   0.83326   0.02369   0.00000  Uiso   1.00
C584   C     0.49896   0.83159   0.47680   0.00000  Uiso   1.00
C585   C     0.48158   0.78892   0.04941   0.00000  Uiso   1.00
C586   C     0.48459   0.73519   0.25117   0.00000  Uiso   1.00
C587   C     0.51637   0.87572   0.45119   0.00000  Uiso   1.00
C588   C     0.52591   0.92298   0.01904   0.00000  Uiso   1.00
C589   C     0.46324   0.74341   0.48214   0.00000  Uiso   1.00
C590   C     0.48166   0.93032   0.11602   0.00000  Uiso   1.00
C591   C     0.52840   0.97310   0.11687   0.00000  Uiso   1.00
C592   C     0.45379   0.73997   0.38560   0.00000  Uiso   1.00
C593   C     0.38831   0.73473   0.39716   0.00000  Uiso   1.00
C594   C     0.54788   0.97033   0.44730   0.00000  Uiso   1.00
C595   C     0.60939   0.97117   0.42453   0.00000  Uiso   1.00
C596   C     0.42642   0.70084   0.05375   0.00000  Uiso   1.00
C597   C     0.53075   0.92152   0.47259   0.00000  Uiso   1.00
C598   C     0.36177   0.70152   0.04911   0.00000  Uiso   1.00
C599   C     0.58204   0.67357   0.21905   0.00000  Uiso   1.00
C600   C     0.62611   0.97151   0.19666   0.00000  Uiso   1.00
C601   C     0.41572   0.99255   0.27614   0.00000  Uiso   1.00
C602   C     0.36672   0.69348   0.28972   0.00000  Uiso   1.00
C603   C     0.45990   0.74486   0.02866   0.00000  Uiso   1.00
C604   C     0.52248   0.98525   0.24129   0.00000  Uiso   1.00
C605   C     0.47596   0.68115   0.25480   0.00000  Uiso   1.00
C606   C     0.49972   0.83174   0.33645   0.00000  Uiso   1.00
C607   C     0.50009   0.83517   0.16354   0.00000  Uiso   1.00
C608   C     0.48847   0.79047   0.09495   0.00000  Uiso   1.00
H609   H     0.48495   0.75665   0.11524   0.00000  Uiso   1.00
H610   H     0.37275   0.69729   0.38541   0.00000  Uiso   1.00
H611   H     0.46319   0.74186   0.34871   0.00000  Uiso   1.00
H612   H     0.47375   0.70540   0.39494   0.00000  Uiso   1.00
H613   H     0.53802   0.95810   0.03403   0.00000  Uiso   1.00
H614   H     0.44904   0.70827   0.46731   0.00000  Uiso   1.00
H615   H     0.64078   0.97739   0.44978   0.00000  Uiso   1.00
H616   H     0.61850   0.93559   0.40635   0.00000  Uiso   1.00
H617   H     0.61482   0.66931   0.39997   0.00000  Uiso   1.00
H618   H     0.51705   0.97582   0.42235   0.00000  Uiso   1.00
H619   H     0.54510   0.67016   0.46998   0.00000  Uiso   1.00
H620   H     0.53096   0.90580   0.38378   0.00000  Uiso   1.00
H621   H     0.33827   0.66956   0.06838   0.00000  Uiso   1.00
H622   H     0.34493   0.73742   0.06254   0.00000  Uiso   1.00
H623   H     0.35322   0.69749   0.01349   0.00000  Uiso   1.00
H624   H     0.44228   0.99828   0.03961   0.00000  Uiso   1.00
H625   H     0.43101   0.70039   0.08995   0.00000  Uiso   1.00
H626   H     0.64723   0.95153   0.22220   0.00000  Uiso   1.00
H627   H     0.60583   0.94323   0.17505   0.00000  Uiso   1.00
H628   H     0.66058   0.99398   0.17573   0.00000  Uiso   1.00
H629   H     0.57583   0.70117   0.19251   0.00000  Uiso   1.00
H630   H     0.60325   0.69353   0.24557   0.00000  Uiso   1.00
H631   H     0.57234   0.95912   0.11076   0.00000  Uiso   1.00
H632   H     0.37919   0.72270   0.31338   0.00000  Uiso   1.00
H633   H     0.35461   0.71232   0.25959   0.00000  Uiso   1.00
H634   H     0.66184   0.67068   0.30563   0.00000  Uiso   1.00
H635   H     0.39663   0.96817   0.25086   0.00000  Uiso   1.00
H636   H     0.42188   0.97061   0.30667   0.00000  Uiso   1.00
H637   H     0.33869   0.79481   0.21663   0.00000  Uiso   1.00
H638   H     0.66133   0.87197   0.28327   0.00000  Uiso   1.00
H639   H     0.52379   0.66964   0.09208   0.00000  Uiso   1.00
H640   H     0.52204   0.99212   0.14940   0.00000  Uiso   1.00
H641   H     0.44458   0.94365   0.09998   0.00000  Uiso   1.00
H642   H     0.46371   0.92239   0.15112   0.00000  Uiso   1.00
H643   H     0.37482   0.73694   0.43356   0.00000  Uiso   1.00
H644   H     0.36755   0.76511   0.38050   0.00000  Uiso   1.00
N645   N     0.65011   0.81932   0.23783   0.00000  Uiso   1.00
N646   N     0.34989   0.84735   0.26217   0.00000  Uiso   1.00
O647   O     0.46308   0.91286   0.25299   0.00000  Uiso   1.00
O648   O     0.53692   0.75381   0.24702   0.00000  Uiso   1.00
O649   O     0.55946   0.90387   0.24518   0.00000  Uiso   1.00
O650   O     0.44054   0.76279   0.25482   0.00000  Uiso   1.00
O651   O     0.45181   0.83784   0.31998   0.00000  Uiso   1.00
O652   O     0.54819   0.82883   0.18002   0.00000  Uiso   1.00
O653   O     0.54819   0.82885   0.31218   0.00000  Uiso   1.00
O654   O     0.45181   0.83781   0.18782   0.00000  Uiso   1.00
Zn655  Zn    0.43565   0.83933   0.25521   0.00000  Uiso   1.00
Zn656  Zn    0.56435   0.82734   0.24479   0.00000  Uiso   1.00
C657   C     0.84847   0.93142   0.24750   0.00000  Uiso   1.00
C658   C     0.85098   0.87326   0.40484   0.00000  Uiso   1.00
C659   C     0.83215   0.83643   0.11585   0.00000  Uiso   1.00
C660   C     0.83275   0.82939   0.38421   0.00000  Uiso   1.00
C661   C     0.83435   0.88234   0.09217   0.00000  Uiso   1.00
C662   C     0.81297   0.78558   0.40880   0.00000  Uiso   1.00
C663   C     0.84197   0.87996   0.04510   0.00000  Uiso   1.00
C664   C     0.81487   0.78620   0.45568   0.00000  Uiso   1.00
C665   C     0.83071   0.83326   0.02369   0.00000  Uiso   1.00
C666   C     0.83230   0.83159   0.47680   0.00000  Uiso   1.00
C667   C     0.81491   0.78892   0.04941   0.00000  Uiso   1.00
C668   C     0.81792   0.73519   0.25117   0.00000  Uiso   1.00
C669   C     0.84970   0.87572   0.45119   0.00000  Uiso   1.00
C670   C     0.85925   0.92298   0.01904   0.00000  Uiso   1.00
C671   C     0.79658   0.74341   0.48214   0.00000  Uiso   1.00
C672   C     0.81499   0.93032   0.11602   0.00000  Uiso   1.00
C673   C     0.86174   0.97310   0.11687   0.00000  Uiso   1.00
C674   C     0.78712   0.73997   0.38560   0.00000  Uiso   1.00
C675   C     0.72164   0.73473   0.39716   0.00000  Uiso   1.00
C676   C     0.88121   0.97033   0.44730   0.00000  Uiso   1.00
C677   C     0.94272   0.97117   0.42453   0.00000  Uiso   1.00
C678   C     0.75975   0.70084   0.05375   0.00000  Uiso   1.00
C679   C     0.86409   0.92152   0.47259   0.00000  Uiso   1.00
C680   C     0.69511   0.70152   0.04911   0.00000  Uiso   1.00
C681   C     0.91538   0.67357   0.21905   0.00000  Uiso   1.00
C682   C     0.95944   0.97151   0.19666   0.00000  Uiso   1.00
C683   C     0.74906   0.99255   0.27614   0.00000  Uiso   1.00
C684   C     0.70005   0.69348   0.28972   0.00000  Uiso   1.00
C685   C     0.79323   0.74486   0.02866   0.00000  Uiso   1.00
C686   C     0.85581   0.98525   0.24129   0.00000  Uiso   1.00
C687   C     0.80929   0.68115   0.25480   0.00000  Uiso   1.00
C688   C     0.83305   0.83174   0.33645   0.00000  Uiso   1.00
C689   C     0.83342   0.83517   0.16354   0.00000  Uiso   1.00
C690   C     0.82180   0.79047   0.09495   0.00000  Uiso   1.00
H691   H     0.81828   0.75665   0.11524   0.00000  Uiso   1.00
H692   H     0.70609   0.69729   0.38541   0.00000  Uiso   1.00
H693   H     0.79653   0.74186   0.34871   0.00000  Uiso   1.00
H694   H     0.80708   0.70540   0.39494   0.00000  Uiso   1.00
H695   H     0.87135   0.95810   0.03403   0.00000  Uiso   1.00
H696   H     0.78237   0.70827   0.46731   0.00000  Uiso   1.00
H697   H     0.97411   0.97739   0.44978   0.00000  Uiso   1.00
H698   H     0.95183   0.93559   0.40635   0.00000  Uiso   1.00
H699   H     0.94816   0.66931   0.39997   0.00000  Uiso   1.00
H700   H     0.85038   0.97582   0.42235   0.00000  Uiso   1.00
H701   H     0.87844   0.67016   0.46998   0.00000  Uiso   1.00
H702   H     0.86430   0.90580   0.38378   0.00000  Uiso   1.00
H703   H     0.67160   0.66956   0.06838   0.00000  Uiso   1.00
H704   H     0.67826   0.73742   0.06254   0.00000  Uiso   1.00
H705   H     0.68656   0.69749   0.01349   0.00000  Uiso   1.00
H706   H     0.77562   0.99828   0.03961   0.00000  Uiso   1.00
H707   H     0.76435   0.70039   0.08995   0.00000  Uiso   1.00
H708   H     0.98057   0.95153   0.22220   0.00000  Uiso   1.00
H709   H     0.93916   0.94323   0.17505   0.00000  Uiso   1.00
H710   H     0.99392   0.99398   0.17573   0.00000  Uiso   1.00
H711   H     0.90916   0.70117   0.19251   0.00000  Uiso   1.00
H712   H     0.93658   0.69353   0.24557   0.00000  Uiso   1.00
H713   H     0.90568   0.95912   0.11076   0.00000  Uiso   1.00
H714   H     0.71252   0.72270   0.31338   0.00000  Uiso   1.00
H715   H     0.68794   0.71232   0.25959   0.00000  Uiso   1.00
H716   H     0.99517   0.67068   0.30563   0.00000  Uiso   1.00
H717   H     0.72996   0.96817   0.25086   0.00000  Uiso   1.00
H718   H     0.75521   0.97061   0.30667   0.00000  Uiso   1.00
H719   H     0.67202   0.79481   0.21663   0.00000  Uiso   1.00
H720   H     0.99466   0.87197   0.28327   0.00000  Uiso   1.00
H721   H     0.85713   0.66964   0.09208   0.00000  Uiso   1.00
H722   H     0.85537   0.99212   0.14940   0.00000  Uiso   1.00
H723   H     0.77792   0.94365   0.09998   0.00000  Uiso   1.00
H724   H     0.79704   0.92239   0.15112   0.00000  Uiso   1.00
H725   H     0.70816   0.73694   0.43356   0.00000  Uiso   1.00
H726   H     0.70088   0.76511   0.38050   0.00000  Uiso   1.00
N727   N     0.98344   0.81932   0.23783   0.00000  Uiso   1.00
N728   N     0.68322   0.84735   0.26217   0.00000  Uiso   1.00
O729   O     0.79642   0.91286   0.25299   0.00000  Uiso   1.00
O730   O     0.87025   0.75381   0.24702   0.00000  Uiso   1.00
O731   O     0.89280   0.90387   0.24518   0.00000  Uiso   1.00
O732   O     0.77387   0.76279   0.25482   0.00000  Uiso   1.00
O733   O     0.78514   0.83784   0.31998   0.00000  Uiso   1.00
O734   O     0.88153   0.82883   0.18002   0.00000  Uiso   1.00
O735   O     0.88152   0.82885   0.31218   0.00000  Uiso   1.00
O736   O     0.78515   0.83781   0.18782   0.00000  Uiso   1.00
Zn737  Zn    0.76898   0.83933   0.25521   0.00000  Uiso   1.00
Zn738  Zn    0.89769   0.82734   0.24479   0.00000  Uiso   1.00
C739   C     0.18180   0.26475   0.74750   0.00000  Uiso   1.00
C740   C     0.18431   0.20659   0.90484   0.00000  Uiso   1.00
C741   C     0.16548   0.16976   0.61585   0.00000  Uiso   1.00
C742   C     0.16608   0.16273   0.88421   0.00000  Uiso   1.00
C743   C     0.16768   0.21568   0.59217   0.00000  Uiso   1.00
C744   C     0.14630   0.11891   0.90880   0.00000  Uiso   1.00
C745   C     0.17531   0.21329   0.54510   0.00000  Uiso   1.00
C746   C     0.14820   0.11953   0.95568   0.00000  Uiso   1.00
C747   C     0.16405   0.16659   0.52369   0.00000  Uiso   1.00
C748   C     0.16563   0.16492   0.97680   0.00000  Uiso   1.00
C749   C     0.14825   0.12226   0.54941   0.00000  Uiso   1.00
C750   C     0.15125   0.06852   0.75117   0.00000  Uiso   1.00
C751   C     0.18303   0.20906   0.95119   0.00000  Uiso   1.00
C752   C     0.19258   0.25631   0.51904   0.00000  Uiso   1.00
C753   C     0.12991   0.07674   0.98214   0.00000  Uiso   1.00
C754   C     0.14833   0.26366   0.61602   0.00000  Uiso   1.00
C755   C     0.19507   0.30644   0.61687   0.00000  Uiso   1.00
C756   C     0.12046   0.07330   0.88560   0.00000  Uiso   1.00
C757   C     0.05497   0.06806   0.89716   0.00000  Uiso   1.00
C758   C     0.21454   0.30366   0.94730   0.00000  Uiso   1.00
C759   C     0.27605   0.30451   0.92453   0.00000  Uiso   1.00
C760   C     0.09309   0.03417   0.55375   0.00000  Uiso   1.00
C761   C     0.19742   0.25486   0.97259   0.00000  Uiso   1.00
C762   C     0.02844   0.03485   0.54911   0.00000  Uiso   1.00
C763   C     0.24871   0.00690   0.71905   0.00000  Uiso   1.00
C764   C     0.29278   0.30484   0.69666   0.00000  Uiso   1.00
C765   C     0.08239   0.32589   0.77614   0.00000  Uiso   1.00
C766   C     0.03338   0.02681   0.78972   0.00000  Uiso   1.00
C767   C     0.12656   0.07820   0.52866   0.00000  Uiso   1.00
C768   C     0.18915   0.31858   0.74129   0.00000  Uiso   1.00
C769   C     0.14263   0.01448   0.75480   0.00000  Uiso   1.00
C770   C     0.16638   0.16508   0.83645   0.00000  Uiso   1.00
C771   C     0.16676   0.16850   0.66354   0.00000  Uiso   1.00
C772   C     0.15514   0.12380   0.59495   0.00000  Uiso   1.00
H773   H     0.15162   0.08998   0.61524   0.00000  Uiso   1.00
H774   H     0.03942   0.03062   0.88541   0.00000  Uiso   1.00
H775   H     0.12986   0.07519   0.84871   0.00000  Uiso   1.00
H776   H     0.14041   0.03873   0.89494   0.00000  Uiso   1.00
H777   H     0.20469   0.29143   0.53403   0.00000  Uiso   1.00
H778   H     0.11571   0.04160   0.96731   0.00000  Uiso   1.00
H779   H     0.30744   0.31072   0.94978   0.00000  Uiso   1.00
H780   H     0.28517   0.26893   0.90635   0.00000  Uiso   1.00
H781   H     0.28149   0.00265   0.89997   0.00000  Uiso   1.00
H782   H     0.18372   0.30916   0.92235   0.00000  Uiso   1.00
H783   H     0.21177   0.00350   0.96998   0.00000  Uiso   1.00
H784   H     0.19763   0.23913   0.88378   0.00000  Uiso   1.00
H785   H     0.00494   0.00289   0.56838   0.00000  Uiso   1.00
H786   H     0.01159   0.07076   0.56254   0.00000  Uiso   1.00
H787   H     0.01989   0.03082   0.51349   0.00000  Uiso   1.00
H788   H     0.10895   0.33162   0.53961   0.00000  Uiso   1.00
H789   H     0.09768   0.03372   0.58995   0.00000  Uiso   1.00
H790   H     0.31390   0.28486   0.72220   0.00000  Uiso   1.00
H791   H     0.27249   0.27656   0.67505   0.00000  Uiso   1.00
H792   H     0.32725   0.32732   0.67573   0.00000  Uiso   1.00
H793   H     0.24249   0.03450   0.69251   0.00000  Uiso   1.00
H794   H     0.26991   0.02687   0.74557   0.00000  Uiso   1.00
H795   H     0.23901   0.29246   0.61076   0.00000  Uiso   1.00
H796   H     0.04586   0.05603   0.81338   0.00000  Uiso   1.00
H797   H     0.02128   0.04566   0.75959   0.00000  Uiso   1.00
H798   H     0.32850   0.00401   0.80563   0.00000  Uiso   1.00
H799   H     0.06329   0.30150   0.75086   0.00000  Uiso   1.00
H800   H     0.08854   0.30395   0.80667   0.00000  Uiso   1.00
H801   H     0.00535   0.12814   0.71663   0.00000  Uiso   1.00
H802   H     0.32800   0.20531   0.78327   0.00000  Uiso   1.00
H803   H     0.19046   0.00297   0.59208   0.00000  Uiso   1.00
H804   H     0.18870   0.32546   0.64940   0.00000  Uiso   1.00
H805   H     0.11125   0.27698   0.59998   0.00000  Uiso   1.00
H806   H     0.13038   0.25573   0.65112   0.00000  Uiso   1.00
H807   H     0.04149   0.07028   0.93356   0.00000  Uiso   1.00
H808   H     0.03422   0.09844   0.88050   0.00000  Uiso   1.00
N809   N     0.31678   0.15265   0.73783   0.00000  Uiso   1.00
N810   N     0.01656   0.18068   0.76217   0.00000  Uiso   1.00
O811   O     0.12975   0.24619   0.75299   0.00000  Uiso   1.00
O812   O     0.20358   0.08714   0.74702   0.00000  Uiso   1.00
O813   O     0.22613   0.23721   0.74518   0.00000  Uiso   1.00
O814   O     0.10720   0.09613   0.75482   0.00000  Uiso   1.00
O815   O     0.11847   0.17117   0.81998   0.00000  Uiso   1.00
O816   O     0.21486   0.16216   0.68002   0.00000  Uiso   1.00
O817   O     0.21485   0.16219   0.81218   0.00000  Uiso   1.00
O818   O     0.11848   0.17115   0.68782   0.00000  Uiso   1.00
Zn819  Zn    0.10231   0.17266   0.75521   0.00000  Uiso   1.00
Zn820  Zn    0.23102   0.16067   0.74479   0.00000  Uiso   1.00
C821   C     0.51514   0.26475   0.74750   0.00000  Uiso   1.00
C822   C     0.51765   0.20659   0.90484   0.00000  Uiso   1.00
C823   C     0.49881   0.16976   0.61585   0.00000  Uiso   1.00
C824   C     0.49941   0.16273   0.88421   0.00000  Uiso   1.00
C825   C     0.50102   0.21568   0.59217   0.00000  Uiso   1.00
C826   C     0.47964   0.11891   0.90880   0.00000  Uiso   1.00
C827   C     0.50864   0.21329   0.54510   0.00000  Uiso   1.00
C828   C     0.48154   0.11953   0.95568   0.00000  Uiso   1.00
C829   C     0.49738   0.16659   0.52369   0.00000  Uiso   1.00
C830   C     0.49896   0.16492   0.97680   0.00000  Uiso   1.00
C831   C     0.48158   0.12226   0.54941   0.00000  Uiso   1.00
C832   C     0.48459   0.06852   0.75117   0.00000  Uiso   1.00
C833   C     0.51637   0.20906   0.95119   0.00000  Uiso   1.00
C834   C     0.52591   0.25631   0.51904   0.00000  Uiso   1.00
C835   C     0.46324   0.07674   0.98214   0.00000  Uiso   1.00
C836   C     0.48166   0.26366   0.61602   0.00000  Uiso   1.00
C837   C     0.52840   0.30644   0.61687   0.00000  Uiso   1.00
C838   C     0.45379   0.07330   0.88560   0.00000  Uiso   1.00
C839   C     0.38831   0.06806   0.89716   0.00000  Uiso   1.00
C840   C     0.54788   0.30366   0.94730   0.00000  Uiso   1.00
C841   C     0.60939   0.30451   0.92453   0.00000  Uiso   1.00
C842   C     0.42642   0.03417   0.55375   0.00000  Uiso   1.00
C843   C     0.53075   0.25486   0.97259   0.00000  Uiso   1.00
C844   C     0.36177   0.03485   0.54911   0.00000  Uiso   1.00
C845   C     0.58204   0.00690   0.71905   0.00000  Uiso   1.00
C846   C     0.62611   0.30484   0.69666   0.00000  Uiso   1.00
C847   C     0.41572   0.32589   0.77614   0.00000  Uiso   1.00
C848   C     0.36672   0.02681   0.78972   0.00000  Uiso   1.00
C849   C     0.45990   0.07820   0.52866   0.00000  Uiso   1.00
C850   C     0.52248   0.31858   0.74129   0.00000  Uiso   1.00
C851   C     0.47596   0.01448   0.75480   0.00000  Uiso   1.00
C852   C     0.49972   0.16508   0.83645   0.00000  Uiso   1.00
C853   C     0.50009   0.16850   0.66354   0.00000  Uiso   1.00
C854   C     0.48847   0.12380   0.59495   0.00000  Uiso   1.00
H855   H     0.48495   0.08998   0.61524   0.00000  Uiso   1.00
H856   H     0.37275   0.03062   0.88541   0.00000  Uiso   1.00
H857   H     0.46319   0.07519   0.84871   0.00000  Uiso   1.00
H858   H     0.47375   0.03873   0.89494   0.00000  Uiso   1.00
H859   H     0.53802   0.29143   0.53403   0.00000  Uiso   1.00
H860   H     0.44904   0.04160   0.96731   0.00000  Uiso   1.00
H861   H     0.64078   0.31072   0.94978   0.00000  Uiso   1.00
H862   H     0.61850   0.26893   0.90635   0.00000  Uiso   1.00
H863   H     0.61482   0.00265   0.89997   0.00000  Uiso   1.00
H864   H     0.51705   0.30916   0.92235   0.00000  Uiso   1.00
H865   H     0.54510   0.00350   0.96998   0.00000  Uiso   1.00
H866   H     0.53096   0.23913   0.88378   0.00000  Uiso   1.00
H867   H     0.33827   0.00289   0.56838   0.00000  Uiso   1.00
H868   H     0.34493   0.07076   0.56254   0.00000  Uiso   1.00
H869   H     0.35322   0.03082   0.51349   0.00000  Uiso   1.00
H870   H     0.44228   0.33162   0.53961   0.00000  Uiso   1.00
H871   H     0.43101   0.03372   0.58995   0.00000  Uiso   1.00
H872   H     0.64723   0.28486   0.72220   0.00000  Uiso   1.00
H873   H     0.60583   0.27656   0.67505   0.00000  Uiso   1.00
H874   H     0.66058   0.32732   0.67573   0.00000  Uiso   1.00
H875   H     0.57583   0.03450   0.69251   0.00000  Uiso   1.00
H876   H     0.60325   0.02687   0.74557   0.00000  Uiso   1.00
H877   H     0.57234   0.29246   0.61076   0.00000  Uiso   1.00
H878   H     0.37919   0.05603   0.81338   0.00000  Uiso   1.00
H879   H     0.35461   0.04566   0.75959   0.00000  Uiso   1.00
H880   H     0.66184   0.00401   0.80563   0.00000  Uiso   1.00
H881   H     0.39663   0.30150   0.75086   0.00000  Uiso   1.00
H882   H     0.42188   0.30395   0.80667   0.00000  Uiso   1.00
H883   H     0.33869   0.12814   0.71663   0.00000  Uiso   1.00
H884   H     0.66133   0.20531   0.78327   0.00000  Uiso   1.00
H885   H     0.52379   0.00297   0.59208   0.00000  Uiso   1.00
H886   H     0.52204   0.32546   0.64940   0.00000  Uiso   1.00
H887   H     0.44458   0.27698   0.59998   0.00000  Uiso   1.00
H888   H     0.46371   0.25573   0.65112   0.00000  Uiso   1.00
H889   H     0.37482   0.07028   0.93356   0.00000  Uiso   1.00
H890   H     0.36755   0.09844   0.88050   0.00000  Uiso   1.00
N891   N     0.65011   0.15265   0.73783   0.00000  Uiso   1.00
N892   N     0.34989   0.18068   0.76217   0.00000  Uiso   1.00
O893   O     0.46308   0.24619   0.75299   0.00000  Uiso   1.00
O894   O     0.53692   0.08714   0.74702   0.00000  Uiso   1.00
O895   O     0.55946   0.23721   0.74518   0.00000  Uiso   1.00
O896   O     0.44054   0.09613   0.75482   0.00000  Uiso   1.00
O897   O     0.45181   0.17117   0.81998   0.00000  Uiso   1.00
O898   O     0.54819   0.16216   0.68002   0.00000  Uiso   1.00
O899   O     0.54819   0.16219   0.81218   0.00000  Uiso   1.00
O900   O     0.45181   0.17115   0.68782   0.00000  Uiso   1.00
Zn901  Zn    0.43565   0.17266   0.75521   0.00000  Uiso   1.00
Zn902  Zn    0.56435   0.16067   0.74479   0.00000  Uiso   1.00
C903   C     0.84847   0.26475   0.74750   0.00000  Uiso   1.00
C904   C     0.85098   0.20659   0.90484   0.00000  Uiso   1.00
C905   C     0.83215   0.16976   0.61585   0.00000  Uiso   1.00
C906   C     0.83275   0.16273   0.88421   0.00000  Uiso   1.00
C907   C     0.83435   0.21568   0.59217   0.00000  Uiso   1.00
C908   C     0.81297   0.11891   0.90880   0.00000  Uiso   1.00
C909   C     0.84197   0.21329   0.54510   0.00000  Uiso   1.00
C910   C     0.81487   0.11953   0.95568   0.00000  Uiso   1.00
C911   C     0.83071   0.16659   0.52369   0.00000  Uiso   1.00
C912   C     0.83230   0.16492   0.97680   0.00000  Uiso   1.00
C913   C     0.81491   0.12226   0.54941   0.00000  Uiso   1.00
C914   C     0.81792   0.06852   0.75117   0.00000  Uiso   1.00
C915   C     0.84970   0.20906   0.95119   0.00000  Uiso   1.00
C916   C     0.85925   0.25631   0.51904   0.00000  Uiso   1.00
C917   C     0.79658   0.07674   0.98214   0.00000  Uiso   1.00
C918   C     0.81499   0.26366   0.61602   0.00000  Uiso   1.00
C919   C     0.86174   0.30644   0.61687   0.00000  Uiso   1.00
C920   C     0.78712   0.07330   0.88560   0.00000  Uiso   1.00
C921   C     0.72164   0.06806   0.89716   0.00000  Uiso   1.00
C922   C     0.88121   0.30366   0.94730   0.00000  Uiso   1.00
C923   C     0.94272   0.30451   0.92453   0.00000  Uiso   1.00
C924   C     0.75975   0.03417   0.55375   0.00000  Uiso   1.00
C925   C     0.86409   0.25486   0.97259   0.00000  Uiso   1.00
C926   C     0.69511   0.03485   0.54911   0.00000  Uiso   1.00
C927   C     0.91538   0.00690   0.71905   0.00000  Uiso   1.00
C928   C     0.95944   0.30484   0.69666   0.00000  Uiso   1.00
C929   C     0.74906   0.32589   0.77614   0.00000  Uiso   1.00
C930   C     0.70005   0.02681   0.78972   0.00000  Uiso   1.00
C931   C     0.79323   0.07820   0.52866   0.00000  Uiso   1.00
C932   C     0.85581   0.31858   0.74129   0.00000  Uiso   1.00
C933   C     0.80929   0.01448   0.75480   0.00000  Uiso   1.00
C934   C     0.83305   0.16508   0.83645   0.00000  Uiso   1.00
C935   C     0.83342   0.16850   0.66354   0.00000  Uiso   1.00
C936   C     0.82180   0.12380   0.59495   0.00000  Uiso   1.00
H937   H     0.81828   0.08998   0.61524   0.00000  Uiso   1.00
H938   H     0.70609   0.03062   0.88541   0.00000  Uiso   1.00
H939   H     0.79653   0.07519   0.84871   0.00000  Uiso   1.00
H940   H     0.80708   0.03873   0.89494   0.00000  Uiso   1.00
H941   H     0.87135   0.29143   0.53403   0.00000  Uiso   1.00
H942   H     0.78237   0.04160   0.96731   0.00000  Uiso   1.00
H943   H     0.97411   0.31072   0.94978   0.00000  Uiso   1.00
H944   H     0.95183   0.26893   0.90635   0.00000  Uiso   1.00
H945   H     0.94816   0.00265   0.89997   0.00000  Uiso   1.00
H946   H     0.85038   0.30916   0.92235   0.00000  Uiso   1.00
H947   H     0.87844   0.00350   0.96998   0.00000  Uiso   1.00
H948   H     0.86430   0.23913   0.88378   0.00000  Uiso   1.00
H949   H     0.67160   0.00289   0.56838   0.00000  Uiso   1.00
H950   H     0.67826   0.07076   0.56254   0.00000  Uiso   1.00
H951   H     0.68656   0.03082   0.51349   0.00000  Uiso   1.00
H952   H     0.77562   0.33162   0.53961   0.00000  Uiso   1.00
H953   H     0.76435   0.03372   0.58995   0.00000  Uiso   1.00
H954   H     0.98057   0.28486   0.72220   0.00000  Uiso   1.00
H955   H     0.93916   0.27656   0.67505   0.00000  Uiso   1.00
H956   H     0.99392   0.32732   0.67573   0.00000  Uiso   1.00
H957   H     0.90916   0.03450   0.69251   0.00000  Uiso   1.00
H958   H     0.93658   0.02687   0.74557   0.00000  Uiso   1.00
H959   H     0.90568   0.29246   0.61076   0.00000  Uiso   1.00
H960   H     0.71252   0.05603   0.81338   0.00000  Uiso   1.00
H961   H     0.68794   0.04566   0.75959   0.00000  Uiso   1.00
H962   H     0.99517   0.00401   0.80563   0.00000  Uiso   1.00
H963   H     0.72996   0.30150   0.75086   0.00000  Uiso   1.00
H964   H     0.75521   0.30395   0.80667   0.00000  Uiso   1.00
H965   H     0.67202   0.12814   0.71663   0.00000  Uiso   1.00
H966   H     0.99466   0.20531   0.78327   0.00000  Uiso   1.00
H967   H     0.85713   0.00297   0.59208   0.00000  Uiso   1.00
H968   H     0.85537   0.32546   0.64940   0.00000  Uiso   1.00
H969   H     0.77792   0.27698   0.59998   0.00000  Uiso   1.00
H970   H     0.79704   0.25573   0.65112   0.00000  Uiso   1.00
H971   H     0.70816   0.07028   0.93356   0.00000  Uiso   1.00
H972   H     0.70088   0.09844   0.88050   0.00000  Uiso   1.00
N973   N     0.98344   0.15265   0.73783   0.00000  Uiso   1.00
N974   N     0.68322   0.18068   0.76217   0.00000  Uiso   1.00
O975   O     0.79642   0.24619   0.75299   0.00000  Uiso   1.00
O976   O     0.87025   0.08714   0.74702   0.00000  Uiso   1.00
O977   O     0.89280   0.23721   0.74518   0.00000  Uiso   1.00
O978   O     0.77387   0.09613   0.75482   0.00000  Uiso   1.00
O979   O     0.78514   0.17117   0.81998   0.00000  Uiso   1.00
O980   O     0.88153   0.16216   0.68002   0.00000  Uiso   1.00
O981   O     0.88152   0.16219   0.81218   0.00000  Uiso   1.00
O982   O     0.78515   0.17115   0.68782   0.00000  Uiso   1.00
Zn983  Zn    0.76898   0.17266   0.75521   0.00000  Uiso   1.00
Zn984  Zn    0.89769   0.16067   0.74479   0.00000  Uiso   1.00
C985   C     0.18180   0.59809   0.74750   0.00000  Uiso   1.00
C986   C     0.18431   0.53992   0.90484   0.00000  Uiso   1.00
C987   C     0.16548   0.50309   0.61585   0.00000  Uiso   1.00
C988   C     0.16608   0.49606   0.88421   0.00000  Uiso   1.00
C989   C     0.16768   0.54901   0.59217   0.00000  Uiso   1.00
C990   C     0.14630   0.45225   0.90880   0.00000  Uiso   1.00
C991   C     0.17531   0.54662   0.54510   0.00000  Uiso   1.00
C992   C     0.14820   0.45286   0.95568   0.00000  Uiso   1.00
C993   C     0.16405   0.49993   0.52369   0.00000  Uiso   1.00
C994   C     0.16563   0.49826   0.97680   0.00000  Uiso   1.00
C995   C     0.14825   0.45559   0.54941   0.00000  Uiso   1.00
C996   C     0.15125   0.40185   0.75117   0.00000  Uiso   1.00
C997   C     0.18303   0.54239   0.95119   0.00000  Uiso   1.00
C998   C     0.19258   0.58965   0.51904   0.00000  Uiso   1.00
C999   C     0.12991   0.41008   0.98214   0.00000  Uiso   1.00
C1000  C     0.14833   0.59699   0.61602   0.00000  Uiso   1.00
C1001  C     0.19507   0.63977   0.61687   0.00000  Uiso   1.00
C1002  C     0.12046   0.40664   0.88560   0.00000  Uiso   1.00
C1003  C     0.05497   0.40139   0.89716   0.00000  Uiso   1.00
C1004  C     0.21454   0.63699   0.94730   0.00000  Uiso   1.00
C1005  C     0.27605   0.63784   0.92453   0.00000  Uiso   1.00
C1006  C     0.09309   0.36751   0.55375   0.00000  Uiso   1.00
C1007  C     0.19742   0.58819   0.97259   0.00000  Uiso   1.00
C1008  C     0.02844   0.36819   0.54911   0.00000  Uiso   1.00
C1009  C     0.24871   0.34024   0.71905   0.00000  Uiso   1.00
C1010  C     0.29278   0.63817   0.69666   0.00000  Uiso   1.00
C1011  C     0.08239   0.65922   0.77614   0.00000  Uiso   1.00
C1012  C     0.03338   0.36015   0.78972   0.00000  Uiso   1.00
C1013  C     0.12656   0.41153   0.52866   0.00000  Uiso   1.00
C1014  C     0.18915   0.65192   0.74129   0.00000  Uiso   1.00
C1015  C     0.14263   0.34782   0.75480   0.00000  Uiso   1.00
C1016  C     0.16638   0.49841   0.83645   0.00000  Uiso   1.00
C1017  C     0.16676   0.50183   0.66354   0.00000  Uiso   1.00
C1018  C     0.15514   0.45714   0.59495   0.00000  Uiso   1.00
H1019  H     0.15162   0.42331   0.61524   0.00000  Uiso   1.00
H1020  H     0.03942   0.36395   0.88541   0.00000  Uiso   1.00
H1021  H     0.12986   0.40852   0.84871   0.00000  Uiso   1.00
H1022  H     0.14041   0.37207   0.89494   0.00000  Uiso   1.00
H1023  H     0.20469   0.62476   0.53403   0.00000  Uiso   1.00
H1024  H     0.11571   0.37493   0.96731   0.00000  Uiso   1.00
H1025  H     0.30744   0.64405   0.94978   0.00000  Uiso   1.00
H1026  H     0.28517   0.60226   0.90635   0.00000  Uiso   1.00
H1027  H     0.28149   0.33598   0.89997   0.00000  Uiso   1.00
H1028  H     0.18372   0.64249   0.92235   0.00000  Uiso   1.00
H1029  H     0.21177   0.33683   0.96998   0.00000  Uiso   1.00
H1030  H     0.19763   0.57246   0.88378   0.00000  Uiso   1.00
H1031  H     0.00494   0.33623   0.56838   0.00000  Uiso   1.00
H1032  H     0.01159   0.40409   0.56254   0.00000  Uiso   1.00
H1033  H     0.01989   0.36415   0.51349   0.00000  Uiso   1.00
H1034  H     0.10895   0.66495   0.53961   0.00000  Uiso   1.00
H1035  H     0.09768   0.36705   0.58995   0.00000  Uiso   1.00
H1036  H     0.31390   0.61819   0.72220   0.00000  Uiso   1.00
H1037  H     0.27249   0.60990   0.67505   0.00000  Uiso   1.00
H1038  H     0.32725   0.66065   0.67573   0.00000  Uiso   1.00
H1039  H     0.24249   0.36783   0.69251   0.00000  Uiso   1.00
H1040  H     0.26991   0.36020   0.74557   0.00000  Uiso   1.00
H1041  H     0.23901   0.62579   0.61076   0.00000  Uiso   1.00
H1042  H     0.04586   0.38937   0.81338   0.00000  Uiso   1.00
H1043  H     0.02128   0.37899   0.75959   0.00000  Uiso   1.00
H1044  H     0.32850   0.33735   0.80563   0.00000  Uiso   1.00
H1045  H     0.06329   0.63484   0.75086   0.00000  Uiso   1.00
H1046  H     0.08854   0.63728   0.80667   0.00000  Uiso   1.00
H1047  H     0.00535   0.46147   0.71663   0.00000  Uiso   1.00
H1048  H     0.32800   0.53864   0.78327   0.00000  Uiso   1.00
H1049  H     0.19046   0.33631   0.59208   0.00000  Uiso   1.00
H1050  H     0.18870   0.65879   0.64940   0.00000  Uiso   1.00
H1051  H     0.11125   0.61032   0.59998   0.00000  Uiso   1.00
H1052  H     0.13038   0.58906   0.65112   0.00000  Uiso   1.00
H1053  H     0.04149   0.40361   0.93356   0.00000  Uiso   1.00
H1054  H     0.03422   0.43178   0.88050   0.00000  Uiso   1.00
N1055  N     0.31678   0.48598   0.73783   0.00000  Uiso   1.00
N1056  N     0.01656   0.51402   0.76217   0.00000  Uiso   1.00
O1057  O     0.12975   0.57952   0.75299   0.00000  Uiso   1.00
O1058  O     0.20358   0.42048   0.74702   0.00000  Uiso   1.00
O1059  O     0.22613   0.57054   0.74518   0.00000  Uiso   1.00
O1060  O     0.10720   0.42946   0.75482   0.00000  Uiso   1.00
O1061  O     0.11847   0.50450   0.81998   0.00000  Uiso   1.00
O1062  O     0.21486   0.49550   0.68002   0.00000  Uiso   1.00
O1063  O     0.21485   0.49552   0.81218   0.00000  Uiso   1.00
O1064  O     0.11848   0.50448   0.68782   0.00000  Uiso   1.00
Zn1065 Zn    0.10231   0.50600   0.75521   0.00000  Uiso   1.00
Zn1066 Zn    0.23102   0.49400   0.74479   0.00000  Uiso   1.00
C1067  C     0.51514   0.59809   0.74750   0.00000  Uiso   1.00
C1068  C     0.51765   0.53992   0.90484   0.00000  Uiso   1.00
C1069  C     0.49881   0.50309   0.61585   0.00000  Uiso   1.00
C1070  C     0.49941   0.49606   0.88421   0.00000  Uiso   1.00
C1071  C     0.50102   0.54901   0.59217   0.00000  Uiso   1.00
C1072  C     0.47964   0.45225   0.90880   0.00000  Uiso   1.00
C1073  C     0.50864   0.54662   0.54510   0.00000  Uiso   1.00
C1074  C     0.48154   0.45286   0.95568   0.00000  Uiso   1.00
C1075  C     0.49738   0.49993   0.52369   0.00000  Uiso   1.00
C1076  C     0.49896   0.49826   0.97680   0.00000  Uiso   1.00
C1077  C     0.48158   0.45559   0.54941   0.00000  Uiso   1.00
C1078  C     0.48459   0.40185   0.75117   0.00000  Uiso   1.00
C1079  C     0.51637   0.54239   0.95119   0.00000  Uiso   1.00
C1080  C     0.52591   0.58965   0.51904   0.00000  Uiso   1.00
C1081  C     0.46324   0.41008   0.98214   0.00000  Uiso   1.00
C1082  C     0.48166   0.59699   0.61602   0.00000  Uiso   1.00
C1083  C     0.52840   0.63977   0.61687   0.00000  Uiso   1.00
C1084  C     0.45379   0.40664   0.88560   0.00000  Uiso   1.00
C1085  C     0.38831   0.40139   0.89716   0.00000  Uiso   1.00
C1086  C     0.54788   0.63699   0.94730   0.00000  Uiso   1.00
C1087  C     0.60939   0.63784   0.92453   0.00000  Uiso   1.00
C1088  C     0.42642   0.36751   0.55375   0.00000  Uiso   1.00
C1089  C     0.53075   0.58819   0.97259   0.00000  Uiso   1.00
C1090  C     0.36177   0.36819   0.54911   0.00000  Uiso   1.00
C1091  C     0.58204   0.34024   0.71905   0.00000  Uiso   1.00
C1092  C     0.62611   0.63817   0.69666   0.00000  Uiso   1.00
C1093  C     0.41572   0.65922   0.77614   0.00000  Uiso   1.00
C1094  C     0.36672   0.36015   0.78972   0.00000  Uiso   1.00
C1095  C     0.45990   0.41153   0.52866   0.00000  Uiso   1.00
C1096  C     0.52248   0.65192   0.74129   0.00000  Uiso   1.00
C1097  C     0.47596   0.34782   0.75480   0.00000  Uiso   1.00
C1098  C     0.49972   0.49841   0.83645   0.00000  Uiso   1.00
C1099  C     0.50009   0.50183   0.66354   0.00000  Uiso   1.00
C1100  C     0.48847   0.45714   0.59495   0.00000  Uiso   1.00
H1101  H     0.48495   0.42331   0.61524   0.00000  Uiso   1.00
H1102  H     0.37275   0.36395   0.88541   0.00000  Uiso   1.00
H1103  H     0.46319   0.40852   0.84871   0.00000  Uiso   1.00
H1104  H     0.47375   0.37207   0.89494   0.00000  Uiso   1.00
H1105  H     0.53802   0.62476   0.53403   0.00000  Uiso   1.00
H1106  H     0.44904   0.37493   0.96731   0.00000  Uiso   1.00
H1107  H     0.64078   0.64405   0.94978   0.00000  Uiso   1.00
H1108  H     0.61850   0.60226   0.90635   0.00000  Uiso   1.00
H1109  H     0.61482   0.33598   0.89997   0.00000  Uiso   1.00
H1110  H     0.51705   0.64249   0.92235   0.00000  Uiso   1.00
H1111  H     0.54510   0.33683   0.96998   0.00000  Uiso   1.00
H1112  H     0.53096   0.57246   0.88378   0.00000  Uiso   1.00
H1113  H     0.33827   0.33623   0.56838   0.00000  Uiso   1.00
H1114  H     0.34493   0.40409   0.56254   0.00000  Uiso   1.00
H1115  H     0.35322   0.36415   0.51349   0.00000  Uiso   1.00
H1116  H     0.44228   0.66495   0.53961   0.00000  Uiso   1.00
H1117  H     0.43101   0.36705   0.58995   0.00000  Uiso   1.00
H1118  H     0.64723   0.61819   0.72220   0.00000  Uiso   1.00
H1119  H     0.60583   0.60990   0.67505   0.00000  Uiso   1.00
H1120  H     0.66058   0.66065   0.67573   0.00000  Uiso   1.00
H1121  H     0.57583   0.36783   0.69251   0.00000  Uiso   1.00
H1122  H     0.60325   0.36020   0.74557   0.00000  Uiso   1.00
H1123  H     0.57234   0.62579   0.61076   0.00000  Uiso   1.00
H1124  H     0.37919   0.38937   0.81338   0.00000  Uiso   1.00
H1125  H     0.35461   0.37899   0.75959   0.00000  Uiso   1.00
H1126  H     0.66184   0.33735   0.80563   0.00000  Uiso   1.00
H1127  H     0.39663   0.63484   0.75086   0.00000  Uiso   1.00
H1128  H     0.42188   0.63728   0.80667   0.00000  Uiso   1.00
H1129  H     0.33869   0.46147   0.71663   0.00000  Uiso   1.00
H1130  H     0.66133   0.53864   0.78327   0.00000  Uiso   1.00
H1131  H     0.52379   0.33631   0.59208   0.00000  Uiso   1.00
H1132  H     0.52204   0.65879   0.64940   0.00000  Uiso   1.00
H1133  H     0.44458   0.61032   0.59998   0.00000  Uiso   1.00
H1134  H     0.46371   0.58906   0.65112   0.00000  Uiso   1.00
H1135  H     0.37482   0.40361   0.93356   0.00000  Uiso   1.00
H1136  H     0.36755   0.43178   0.88050   0.00000  Uiso   1.00
N1137  N     0.65011   0.48598   0.73783   0.00000  Uiso   1.00
N1138  N     0.34989   0.51402   0.76217   0.00000  Uiso   1.00
O1139  O     0.46308   0.57952   0.75299   0.00000  Uiso   1.00
O1140  O     0.53692   0.42048   0.74702   0.00000  Uiso   1.00
O1141  O     0.55946   0.57054   0.74518   0.00000  Uiso   1.00
O1142  O     0.44054   0.42946   0.75482   0.00000  Uiso   1.00
O1143  O     0.45181   0.50450   0.81998   0.00000  Uiso   1.00
O1144  O     0.54819   0.49550   0.68002   0.00000  Uiso   1.00
O1145  O     0.54819   0.49552   0.81218   0.00000  Uiso   1.00
O1146  O     0.45181   0.50448   0.68782   0.00000  Uiso   1.00
Zn1147 Zn    0.43565   0.50600   0.75521   0.00000  Uiso   1.00
Zn1148 Zn    0.56435   0.49400   0.74479   0.00000  Uiso   1.00
C1149  C     0.84847   0.59809   0.74750   0.00000  Uiso   1.00
C1150  C     0.85098   0.53992   0.90484   0.00000  Uiso   1.00
C1151  C     0.83215   0.50309   0.61585   0.00000  Uiso   1.00
C1152  C     0.83275   0.49606   0.88421   0.00000  Uiso   1.00
C1153  C     0.83435   0.54901   0.59217   0.00000  Uiso   1.00
C1154  C     0.81297   0.45225   0.90880   0.00000  Uiso   1.00
C1155  C     0.84197   0.54662   0.54510   0.00000  Uiso   1.00
C1156  C     0.81487   0.45286   0.95568   0.00000  Uiso   1.00
C1157  C     0.83071   0.49993   0.52369   0.00000  Uiso   1.00
C1158  C     0.83230   0.49826   0.97680   0.00000  Uiso   1.00
C1159  C     0.81491   0.45559   0.54941   0.00000  Uiso   1.00
C1160  C     0.81792   0.40185   0.75117   0.00000  Uiso   1.00
C1161  C     0.84970   0.54239   0.95119   0.00000  Uiso   1.00
C1162  C     0.85925   0.58965   0.51904   0.00000  Uiso   1.00
C1163  C     0.79658   0.41008   0.98214   0.00000  Uiso   1.00
C1164  C     0.81499   0.59699   0.61602   0.00000  Uiso   1.00
C1165  C     0.86174   0.63977   0.61687   0.00000  Uiso   1.00
C1166  C     0.78712   0.40664   0.88560   0.00000  Uiso   1.00
C1167  C     0.72164   0.40139   0.89716   0.00000  Uiso   1.00
C1168  C     0.88121   0.63699   0.94730   0.00000  Uiso   1.00
C1169  C     0.94272   0.63784   0.92453   0.00000  Uiso   1.00
C1170  C     0.75975   0.36751   0.55375   0.00000  Uiso   1.00
C1171  C     0.86409   0.58819   0.97259   0.00000  Uiso   1.00
C1172  C     0.69511   0.36819   0.54911   0.00000  Uiso   1.00
C1173  C     0.91538   0.34024   0.71905   0.00000  Uiso   1.00
C1174  C     0.95944   0.63817   0.69666   0.00000  Uiso   1.00
C1175  C     0.74906   0.65922   0.77614   0.00000  Uiso   1.00
C1176  C     0.70005   0.36015   0.78972   0.00000  Uiso   1.00
C1177  C     0.79323   0.41153   0.52866   0.00000  Uiso   1.00
C1178  C     0.85581   0.65192   0.74129   0.00000  Uiso   1.00
C1179  C     0.80929   0.34782   0.75480   0.00000  Uiso   1.00
C1180  C     0.83305   0.49841   0.83645   0.00000  Uiso   1.00
C1181  C     0.83342   0.50183   0.66354   0.00000  Uiso   1.00
C1182  C     0.82180   0.45714   0.59495   0.00000  Uiso   1.00
H1183  H     0.81828   0.42331   0.61524   0.00000  Uiso   1.00
H1184  H     0.70609   0.36395   0.88541   0.00000  Uiso   1.00
H1185  H     0.79653   0.40852   0.84871   0.00000  Uiso   1.00
H1186  H     0.80708   0.37207   0.89494   0.00000  Uiso   1.00
H1187  H     0.87135   0.62476   0.53403   0.00000  Uiso   1.00
H1188  H     0.78237   0.37493   0.96731   0.00000  Uiso   1.00
H1189  H     0.97411   0.64405   0.94978   0.00000  Uiso   1.00
H1190  H     0.95183   0.60226   0.90635   0.00000  Uiso   1.00
H1191  H     0.94816   0.33598   0.89997   0.00000  Uiso   1.00
H1192  H     0.85038   0.64249   0.92235   0.00000  Uiso   1.00
H1193  H     0.87844   0.33683   0.96998   0.00000  Uiso   1.00
H1194  H     0.86430   0.57246   0.88378   0.00000  Uiso   1.00
H1195  H     0.67160   0.33623   0.56838   0.00000  Uiso   1.00
H1196  H     0.67826   0.40409   0.56254   0.00000  Uiso   1.00
H1197  H     0.68656   0.36415   0.51349   0.00000  Uiso   1.00
H1198  H     0.77562   0.66495   0.53961   0.00000  Uiso   1.00
H1199  H     0.76435   0.36705   0.58995   0.00000  Uiso   1.00
H1200  H     0.98057   0.61819   0.72220   0.00000  Uiso   1.00
H1201  H     0.93916   0.60990   0.67505   0.00000  Uiso   1.00
H1202  H     0.99392   0.66065   0.67573   0.00000  Uiso   1.00
H1203  H     0.90916   0.36783   0.69251   0.00000  Uiso   1.00
H1204  H     0.93658   0.36020   0.74557   0.00000  Uiso   1.00
H1205  H     0.90568   0.62579   0.61076   0.00000  Uiso   1.00
H1206  H     0.71252   0.38937   0.81338   0.00000  Uiso   1.00
H1207  H     0.68794   0.37899   0.75959   0.00000  Uiso   1.00
H1208  H     0.99517   0.33735   0.80563   0.00000  Uiso   1.00
H1209  H     0.72996   0.63484   0.75086   0.00000  Uiso   1.00
H1210  H     0.75521   0.63728   0.80667   0.00000  Uiso   1.00
H1211  H     0.67202   0.46147   0.71663   0.00000  Uiso   1.00
H1212  H     0.99466   0.53864   0.78327   0.00000  Uiso   1.00
H1213  H     0.85713   0.33631   0.59208   0.00000  Uiso   1.00
H1214  H     0.85537   0.65879   0.64940   0.00000  Uiso   1.00
H1215  H     0.77792   0.61032   0.59998   0.00000  Uiso   1.00
H1216  H     0.79704   0.58906   0.65112   0.00000  Uiso   1.00
H1217  H     0.70816   0.40361   0.93356   0.00000  Uiso   1.00
H1218  H     0.70088   0.43178   0.88050   0.00000  Uiso   1.00
N1219  N     0.98344   0.48598   0.73783   0.00000  Uiso   1.00
N1220  N     0.68322   0.51402   0.76217   0.00000  Uiso   1.00
O1221  O     0.79642   0.57952   0.75299   0.00000  Uiso   1.00
O1222  O     0.87025   0.42048   0.74702   0.00000  Uiso   1.00
O1223  O     0.89280   0.57054   0.74518   0.00000  Uiso   1.00
O1224  O     0.77387   0.42946   0.75482   0.00000  Uiso   1.00
O1225  O     0.78514   0.50450   0.81998   0.00000  Uiso   1.00
O1226  O     0.88153   0.49550   0.68002   0.00000  Uiso   1.00
O1227  O     0.88152   0.49552   0.81218   0.00000  Uiso   1.00
O1228  O     0.78515   0.50448   0.68782   0.00000  Uiso   1.00
Zn1229 Zn    0.76898   0.50600   0.75521   0.00000  Uiso   1.00
Zn1230 Zn    0.89769   0.49400   0.74479   0.00000  Uiso   1.00
C1231  C     0.18180   0.93142   0.74750   0.00000  Uiso   1.00
C1232  C     0.18431   0.87326   0.90484   0.00000  Uiso   1.00
C1233  C     0.16548   0.83643   0.61585   0.00000  Uiso   1.00
C1234  C     0.16608   0.82939   0.88421   0.00000  Uiso   1.00
C1235  C     0.16768   0.88234   0.59217   0.00000  Uiso   1.00
C1236  C     0.14630   0.78558   0.90880   0.00000  Uiso   1.00
C1237  C     0.17531   0.87996   0.54510   0.00000  Uiso   1.00
C1238  C     0.14820   0.78620   0.95568   0.00000  Uiso   1.00
C1239  C     0.16405   0.83326   0.52369   0.00000  Uiso   1.00
C1240  C     0.16563   0.83159   0.97680   0.00000  Uiso   1.00
C1241  C     0.14825   0.78892   0.54941   0.00000  Uiso   1.00
C1242  C     0.15125   0.73519   0.75117   0.00000  Uiso   1.00
C1243  C     0.18303   0.87572   0.95119   0.00000  Uiso   1.00
C1244  C     0.19258   0.92298   0.51904   0.00000  Uiso   1.00
C1245  C     0.12991   0.74341   0.98214   0.00000  Uiso   1.00
C1246  C     0.14833   0.93032   0.61602   0.00000  Uiso   1.00
C1247  C     0.19507   0.97310   0.61687   0.00000  Uiso   1.00
C1248  C     0.12046   0.73997   0.88560   0.00000  Uiso   1.00
C1249  C     0.05497   0.73473   0.89716   0.00000  Uiso   1.00
C1250  C     0.21454   0.97033   0.94730   0.00000  Uiso   1.00
C1251  C     0.27605   0.97117   0.92453   0.00000  Uiso   1.00
C1252  C     0.09309   0.70084   0.55375   0.00000  Uiso   1.00
C1253  C     0.19742   0.92152   0.97259   0.00000  Uiso   1.00
C1254  C     0.02844   0.70152   0.54911   0.00000  Uiso   1.00
C1255  C     0.24871   0.67357   0.71905   0.00000  Uiso   1.00
C1256  C     0.29278   0.97151   0.69666   0.00000  Uiso   1.00
C1257  C     0.08239   0.99255   0.77614   0.00000  Uiso   1.00
C1258  C     0.03338   0.69348   0.78972   0.00000  Uiso   1.00
C1259  C     0.12656   0.74486   0.52866   0.00000  Uiso   1.00
C1260  C     0.18915   0.98525   0.74129   0.00000  Uiso   1.00
C1261  C     0.14263   0.68115   0.75480   0.00000  Uiso   1.00
C1262  C     0.16638   0.83174   0.83645   0.00000  Uiso   1.00
C1263  C     0.16676   0.83517   0.66354   0.00000  Uiso   1.00
C1264  C     0.15514   0.79047   0.59495   0.00000  Uiso   1.00
H1265  H     0.15162   0.75665   0.61524   0.00000  Uiso   1.00
H1266  H     0.03942   0.69729   0.88541   0.00000  Uiso   1.00
H1267  H     0.12986   0.74186   0.84871   0.00000  Uiso   1.00
H1268  H     0.14041   0.70540   0.89494   0.00000  Uiso   1.00
H1269  H     0.20469   0.95810   0.53403   0.00000  Uiso   1.00
H1270  H     0.11571   0.70827   0.96731   0.00000  Uiso   1.00
H1271  H     0.30744   0.97739   0.94978   0.00000  Uiso   1.00
H1272  H     0.28517   0.93559   0.90635   0.00000  Uiso   1.00
H1273  H     0.28149   0.66931   0.89997   0.00000  Uiso   1.00
H1274  H     0.18372   0.97582   0.92235   0.00000  Uiso   1.00
H1275  H     0.21177   0.67016   0.96998   0.00000  Uiso   1.00
H1276  H     0.19763   0.90580   0.88378   0.00000  Uiso   1.00
H1277  H     0.00494   0.66956   0.56838   0.00000  Uiso   1.00
H1278  H     0.01159   0.73742   0.56254   0.00000  Uiso   1.00
H1279  H     0.01989   0.69749   0.51349   0.00000  Uiso   1.00
H1280  H     0.10895   0.99828   0.53961   0.00000  Uiso   1.00
H1281  H     0.09768   0.70039   0.58995   0.00000  Uiso   1.00
H1282  H     0.31390   0.95153   0.72220   0.00000  Uiso   1.00
H1283  H     0.27249   0.94323   0.67505   0.00000  Uiso   1.00
H1284  H     0.32725   0.99398   0.67573   0.00000  Uiso   1.00
H1285  H     0.24249   0.70117   0.69251   0.00000  Uiso   1.00
H1286  H     0.26991   0.69353   0.74557   0.00000  Uiso   1.00
H1287  H     0.23901   0.95912   0.61076   0.00000  Uiso   1.00
H1288  H     0.04586   0.72270   0.81338   0.00000  Uiso   1.00
H1289  H     0.02128   0.71232   0.75959   0.00000  Uiso   1.00
H1290  H     0.32850   0.67068   0.80563   0.00000  Uiso   1.00
H1291  H     0.06329   0.96817   0.75086   0.00000  Uiso   1.00
H1292  H     0.08854   0.97061   0.80667   0.00000  Uiso   1.00
H1293  H     0.00535   0.79481   0.71663   0.00000  Uiso   1.00
H1294  H     0.32800   0.87197   0.78327   0.00000  Uiso   1.00
H1295  H     0.19046   0.66964   0.59208   0.00000  Uiso   1.00
H1296  H     0.18870   0.99212   0.64940   0.00000  Uiso   1.00
H1297  H     0.11125   0.94365   0.59998   0.00000  Uiso   1.00
H1298  H     0.13038   0.92239   0.65112   0.00000  Uiso   1.00
H1299  H     0.04149   0.73694   0.93356   0.00000  Uiso   1.00
H1300  H     0.03422   0.76511   0.88050   0.00000  Uiso   1.00
N1301  N     0.31678   0.81932   0.73783   0.00000  Uiso   1.00
N1302  N     0.01656   0.84735   0.76217   0.00000  Uiso   1.00
O1303  O     0.12975   0.91286   0.75299   0.00000  Uiso   1.00
O1304  O     0.20358   0.75381   0.74702   0.00000  Uiso   1.00
O1305  O     0.22613   0.90387   0.74518   0.00000  Uiso   1.00
O1306  O     0.10720   0.76279   0.75482   0.00000  Uiso   1.00
O1307  O     0.11847   0.83784   0.81998   0.00000  Uiso   1.00
O1308  O     0.21486   0.82883   0.68002   0.00000  Uiso   1.00
O1309  O     0.21485   0.82885   0.81218   0.00000  Uiso   1.00
O1310  O     0.11848   0.83781   0.68782   0.00000  Uiso   1.00
Zn1311 Zn    0.10231   0.83933   0.75521   0.00000  Uiso   1.00
Zn1312 Zn    0.23102   0.82734   0.74479   0.00000  Uiso   1.00
C1313  C     0.51514   0.93142   0.74750   0.00000  Uiso   1.00
C1314  C     0.51765   0.87326   0.90484   0.00000  Uiso   1.00
C1315  C     0.49881   0.83643   0.61585   0.00000  Uiso   1.00
C1316  C     0.49941   0.82939   0.88421   0.00000  Uiso   1.00
C1317  C     0.50102   0.88234   0.59217   0.00000  Uiso   1.00
C1318  C     0.47964   0.78558   0.90880   0.00000  Uiso   1.00
C1319  C     0.50864   0.87996   0.54510   0.00000  Uiso   1.00
C1320  C     0.48154   0.78620   0.95568   0.00000  Uiso   1.00
C1321  C     0.49738   0.83326   0.52369   0.00000  Uiso   1.00
C1322  C     0.49896   0.83159   0.97680   0.00000  Uiso   1.00
C1323  C     0.48158   0.78892   0.54941   0.00000  Uiso   1.00
C1324  C     0.48459   0.73519   0.75117   0.00000  Uiso   1.00
C1325  C     0.51637   0.87572   0.95119   0.00000  Uiso   1.00
C1326  C     0.52591   0.92298   0.51904   0.00000  Uiso   1.00
C1327  C     0.46324   0.74341   0.98214   0.00000  Uiso   1.00
C1328  C     0.48166   0.93032   0.61602   0.00000  Uiso   1.00
C1329  C     0.52840   0.97310   0.61687   0.00000  Uiso   1.00
C1330  C     0.45379   0.73997   0.88560   0.00000  Uiso   1.00
C1331  C     0.38831   0.73473   0.89716   0.00000  Uiso   1.00
C1332  C     0.54788   0.97033   0.94730   0.00000  Uiso   1.00
C1333  C     0.60939   0.97117   0.92453   0.00000  Uiso   1.00
C1334  C     0.42642   0.70084   0.55375   0.00000  Uiso   1.00
C1335  C     0.53075   0.92152   0.97259   0.00000  Uiso   1.00
C1336  C     0.36177   0.70152   0.54911   0.00000  Uiso   1.00
C1337  C     0.58204   0.67357   0.71905   0.00000  Uiso   1.00
C1338  C     0.62611   0.97151   0.69666   0.00000  Uiso   1.00
C1339  C     0.41572   0.99255   0.77614   0.00000  Uiso   1.00
C1340  C     0.36672   0.69348   0.78972   0.00000  Uiso   1.00
C1341  C     0.45990   0.74486   0.52866   0.00000  Uiso   1.00
C1342  C     0.52248   0.98525   0.74129   0.00000  Uiso   1.00
C1343  C     0.47596   0.68115   0.75480   0.00000  Uiso   1.00
C1344  C     0.49972   0.83174   0.83645   0.00000  Uiso   1.00
C1345  C     0.50009   0.83517   0.66354   0.00000  Uiso   1.00
C1346  C     0.48847   0.79047   0.59495   0.00000  Uiso   1.00
H1347  H     0.48495   0.75665   0.61524   0.00000  Uiso   1.00
H1348  H     0.37275   0.69729   0.88541   0.00000  Uiso   1.00
H1349  H     0.46319   0.74186   0.84871   0.00000  Uiso   1.00
H1350  H     0.47375   0.70540   0.89494   0.00000  Uiso   1.00
H1351  H     0.53802   0.95810   0.53403   0.00000  Uiso   1.00
H1352  H     0.44904   0.70827   0.96731   0.00000  Uiso   1.00
H1353  H     0.64078   0.97739   0.94978   0.00000  Uiso   1.00
H1354  H     0.61850   0.93559   0.90635   0.00000  Uiso   1.00
H1355  H     0.61482   0.66931   0.89997   0.00000  Uiso   1.00
H1356  H     0.51705   0.97582   0.92235   0.00000  Uiso   1.00
H1357  H     0.54510   0.67016   0.96998   0.00000  Uiso   1.00
H1358  H     0.53096   0.90580   0.88378   0.00000  Uiso   1.00
H1359  H     0.33827   0.66956   0.56838   0.00000  Uiso   1.00
H1360  H     0.34493   0.73742   0.56254   0.00000  Uiso   1.00
H1361  H     0.35322   0.69749   0.51349   0.00000  Uiso   1.00
H1362  H     0.44228   0.99828   0.53961   0.00000  Uiso   1.00
H1363  H     0.43101   0.70039   0.58995   0.00000  Uiso   1.00
H1364  H     0.64723   0.95153   0.72220   0.00000  Uiso   1.00
H1365  H     0.60583   0.94323   0.67505   0.00000  Uiso   1.00
H1366  H     0.66058   0.99398   0.67573   0.00000  Uiso   1.00
H1367  H     0.57583   0.70117   0.69251   0.00000  Uiso   1.00
H1368  H     0.60325   0.69353   0.74557   0.00000  Uiso   1.00
H1369  H     0.57234   0.95912   0.61076   0.00000  Uiso   1.00
H1370  H     0.37919   0.72270   0.81338   0.00000  Uiso   1.00
H1371  H     0.35461   0.71232   0.75959   0.00000  Uiso   1.00
H1372  H     0.66184   0.67068   0.80563   0.00000  Uiso   1.00
H1373  H     0.39663   0.96817   0.75086   0.00000  Uiso   1.00
H1374  H     0.42188   0.97061   0.80667   0.00000  Uiso   1.00
H1375  H     0.33869   0.79481   0.71663   0.00000  Uiso   1.00
H1376  H     0.66133   0.87197   0.78327   0.00000  Uiso   1.00
H1377  H     0.52379   0.66964   0.59208   0.00000  Uiso   1.00
H1378  H     0.52204   0.99212   0.64940   0.00000  Uiso   1.00
H1379  H     0.44458   0.94365   0.59998   0.00000  Uiso   1.00
H1380  H     0.46371   0.92239   0.65112   0.00000  Uiso   1.00
H1381  H     0.37482   0.73694   0.93356   0.00000  Uiso   1.00
H1382  H     0.36755   0.76511   0.88050   0.00000  Uiso   1.00
N1383  N     0.65011   0.81932   0.73783   0.00000  Uiso   1.00
N1384  N     0.34989   0.84735   0.76217   0.00000  Uiso   1.00
O1385  O     0.46308   0.91286   0.75299   0.00000  Uiso   1.00
O1386  O     0.53692   0.75381   0.74702   0.00000  Uiso   1.00
O1387  O     0.55946   0.90387   0.74518   0.00000  Uiso   1.00
O1388  O     0.44054   0.76279   0.75482   0.00000  Uiso   1.00
O1389  O     0.45181   0.83784   0.81998   0.00000  Uiso   1.00
O1390  O     0.54819   0.82883   0.68002   0.00000  Uiso   1.00
O1391  O     0.54819   0.82885   0.81218   0.00000  Uiso   1.00
O1392  O     0.45181   0.83781   0.68782   0.00000  Uiso   1.00
Zn1393 Zn    0.43565   0.83933   0.75521   0.00000  Uiso   1.00
Zn1394 Zn    0.56435   0.82734   0.74479   0.00000  Uiso   1.00
C1395  C     0.84847   0.93142   0.74750   0.00000  Uiso   1.00
C1396  C     0.85098   0.87326   0.90484   0.00000  Uiso   1.00
C1397  C     0.83215   0.83643   0.61585   0.00000  Uiso   1.00
C1398  C     0.83275   0.82939   0.88421   0.00000  Uiso   1.00
C1399  C     0.83435   0.88234   0.59217   0.00000  Uiso   1.00
C1400  C     0.81297   0.78558   0.90880   0.00000  Uiso   1.00
C1401  C     0.84197   0.87996   0.54510   0.00000  Uiso   1.00
C1402  C     0.81487   0.78620   0.95568   0.00000  Uiso   1.00
C1403  C     0.83071   0.83326   0.52369   0.00000  Uiso   1.00
C1404  C     0.83230   0.83159   0.97680   0.00000  Uiso   1.00
C1405  C     0.81491   0.78892   0.54941   0.00000  Uiso   1.00
C1406  C     0.81792   0.73519   0.75117   0.00000  Uiso   1.00
C1407  C     0.84970   0.87572   0.95119   0.00000  Uiso   1.00
C1408  C     0.85925   0.92298   0.51904   0.00000  Uiso   1.00
C1409  C     0.79658   0.74341   0.98214   0.00000  Uiso   1.00
C1410  C     0.81499   0.93032   0.61602   0.00000  Uiso   1.00
C1411  C     0.86174   0.97310   0.61687   0.00000  Uiso   1.00
C1412  C     0.78712   0.73997   0.88560   0.00000  Uiso   1.00
C1413  C     0.72164   0.73473   0.89716   0.00000  Uiso   1.00
C1414  C     0.88121   0.97033   0.94730   0.00000  Uiso   1.00
C1415  C     0.94272   0.97117   0.92453   0.00000  Uiso   1.00
C1416  C     0.75975   0.70084   0.55375   0.00000  Uiso   1.00
C1417  C     0.86409   0.92152   0.97259   0.00000  Uiso   1.00
C1418  C     0.69511   0.70152   0.54911   0.00000  Uiso   1.00
C1419  C     0.91538   0.67357   0.71905   0.00000  Uiso   1.00
C1420  C     0.95944   0.97151   0.69666   0.00000  Uiso   1.00
C1421  C     0.74906   0.99255   0.77614   0.00000  Uiso   1.00
C1422  C     0.70005   0.69348   0.78972   0.00000  Uiso   1.00
C1423  C     0.79323   0.74486   0.52866   0.00000  Uiso   1.00
C1424  C     0.85581   0.98525   0.74129   0.00000  Uiso   1.00
C1425  C     0.80929   0.68115   0.75480   0.00000  Uiso   1.00
C1426  C     0.83305   0.83174   0.83645   0.00000  Uiso   1.00
C1427  C     0.83342   0.83517   0.66354   0.00000  Uiso   1.00
C1428  C     0.82180   0.79047   0.59495   0.00000  Uiso   1.00
H1429  H     0.81828   0.75665   0.61524   0.00000  Uiso   1.00
H1430  H     0.70609   0.69729   0.88541   0.00000  Uiso   1.00
H1431  H     0.79653   0.74186   0.84871   0.00000  Uiso   1.00
H1432  H     0.80708   0.70540   0.89494   0.00000  Uiso   1.00
H1433  H     0.87135   0.95810   0.53403   0.00000  Uiso   1.00
H1434  H     0.78237   0.70827   0.96731   0.00000  Uiso   1.00
H1435  H     0.97411   0.97739   0.94978   0.00000  Uiso   1.00
H1436  H     0.95183   0.93559   0.90635   0.00000  Uiso   1.00
H1437  H     0.94816   0.66931   0.89997   0.00000  Uiso   1.00
H1438  H     0.85038   0.97582   0.92235   0.00000  Uiso   1.00
H1439  H     0.87844   0.67016   0.96998   0.00000  Uiso   1.00
H1440  H     0.86430   0.90580   0.88378   0.00000  Uiso   1.00
H1441  H     0.67160   0.66956   0.56838   0.00000  Uiso   1.00
H1442  H     0.67826   0.73742   0.56254   0.00000  Uiso   1.00
H1443  H     0.68656   0.69749   0.51349   0.00000  Uiso   1.00
H1444  H     0.77562   0.99828   0.53961   0.00000  Uiso   1.00
H1445  H     0.76435   0.70039   0.58995   0.00000  Uiso   1.00
H1446  H     0.98057   0.95153   0.72220   0.00000  Uiso   1.00
H1447  H     0.93916   0.94323   0.67505   0.00000  Uiso   1.00
H1448  H     0.99392   0.99398   0.67573   0.00000  Uiso   1.00
H1449  H     0.90916   0.70117   0.69251   0.00000  Uiso   1.00
H1450  H     0.93658   0.69353   0.74557   0.00000  Uiso   1.00
H1451  H     0.90568   0.95912   0.61076   0.00000  Uiso   1.00
H1452  H     0.71252   0.72270   0.81338   0.00000  Uiso   1.00
H1453  H     0.68794   0.71232   0.75959   0.00000  Uiso   1.00
H1454  H     0.99517   0.67068   0.80563   0.00000  Uiso   1.00
H1455  H     0.72996   0.96817   0.75086   0.00000  Uiso   1.00
H1456  H     0.75521   0.97061   0.80667   0.00000  Uiso   1.00
H1457  H     0.67202   0.79481   0.71663   0.00000  Uiso   1.00
H1458  H     0.99466   0.87197   0.78327   0.00000  Uiso   1.00
H1459  H     0.85713   0.66964   0.59208   0.00000  Uiso   1.00
H1460  H     0.85537   0.99212   0.64940   0.00000  Uiso   1.00
H1461  H     0.77792   0.94365   0.59998   0.00000  Uiso   1.00
H1462  H     0.79704   0.92239   0.65112   0.00000  Uiso   1.00
H1463  H     0.70816   0.73694   0.93356   0.00000  Uiso   1.00
H1464  H     0.70088   0.76511   0.88050   0.00000  Uiso   1.00
N1465  N     0.98344   0.81932   0.73783   0.00000  Uiso   1.00
N1466  N     0.68322   0.84735   0.76217   0.00000  Uiso   1.00
O1467  O     0.79642   0.91286   0.75299   0.00000  Uiso   1.00
O1468  O     0.87025   0.75381   0.74702   0.00000  Uiso   1.00
O1469  O     0.89280   0.90387   0.74518   0.00000  Uiso   1.00
O1470  O     0.77387   0.76279   0.75482   0.00000  Uiso   1.00
O1471  O     0.78514   0.83784   0.81998   0.00000  Uiso   1.00
O1472  O     0.88153   0.82883   0.68002   0.00000  Uiso   1.00
O1473  O     0.88152   0.82885   0.81218   0.00000  Uiso   1.00
O1474  O     0.78515   0.83781   0.68782   0.00000  Uiso   1.00
Zn1475 Zn    0.76898   0.83933   0.75521   0.00000  Uiso   1.00
Zn1476 Zn    0.89769   0.82734   0.74479   0.00000  Uiso   1.00
loop_
_geom_bond_atom_site_label_1
_geom_bond_atom_site_label_2
_geom_bond_distance
_geom_bond_site_symmetry_2
_ccdc_geom_bond_type
C1     O75     1.298   .     A
C1     O73     1.276   .     A
C1     C30     1.438   .     S
C2     H46     1.082   .     S
C2     C13     1.389   .     A
C2     C4      1.380   .     A
C3     C33     1.434   .     S
C3     C34     1.388   .     A
C3     C5      1.407   .     A
C4     C6      1.406   .     A
C4     C32     1.433   .     S
C5     C16     1.527   .     S
C5     C7      1.407   .     A
C6     C18     1.517   .     S
C6     C8      1.411   .     A
C7     C14     1.400   .     A
C7     C9      1.415   .     A
C8     C15     1.406   .     A
C8     C10     1.415   .     A
C9     C11     1.417   .     A
C9     C748    1.404   1_554 S
C10    C13     1.417   .     A
C10    C747    1.404   .     S
C11    C34     1.392   .     A
C11    C29     1.412   .     A
C12    O74     1.281   .     A
C12    O76     1.293   .     A
C12    C31     1.438   .     S
C13    C23     1.410   .     A
C14    H39     1.068   .     S
C14    C761    1.387   1_554 S
C15    H40     1.079   .     S
C15    C767    1.390   .     S
C16    C17     1.525   .     S
C16    H68     1.108   .     S
C16    H67     1.108   .     S
C17    H66     1.098   .     S
C17    H57     1.108   .     S
C17    H311    1.106   .     S
C18    H37     1.106   .     S
C18    C19     1.528   .     S
C18    H38     1.103   .     S
C19    H36     1.105   .     S
C19    H69     1.107   .     S
C19    H70     1.111   .     S
C20    H44     1.105   .     S
C20    C23     1.514   .     S
C20    C21     1.523   .     S
C20    H291    1.111   .     S
C21    H41     1.111   .     S
C21    H42     1.109   .     S
C21    H289    1.108   .     S
C22    C29     1.520   .     S
C22    C24     1.529   .     S
C22    H51     1.102   .     S
C22    H542    1.110   1_545 S
C23    C752    1.387   .     S
C24    H49     1.110   .     S
C24    H48     1.111   .     S
C24    H47     1.111   .     S
C25    H56     1.097   .     S
C25    H55     1.110   .     S
C25    C518    1.536   1_545 S
C25    C522    1.554   1_545 S
C26    H54     1.111   .     S
C26    H52     1.106   .     S
C26    H53     1.105   .     S
C26    C271    1.536   .     S
C27    H61     1.105   .     S
C27    H62     1.113   .     S
C27    C274    1.525   .     S
C27    C277    1.561   .     S
C28    H59     1.104   .     S
C28    H58     1.095   .     S
C28    C519    1.525   1_545 S
C28    H224    1.111   1_455 S
C29    C753    1.390   1_554 S
C30    C271    1.554   .     S
C30    C277    1.397   .     S
C31    C522    1.397   1_545 S
C31    C519    1.561   1_545 S
C32    O77     1.286   .     A
C32    O79     1.286   .     A
C33    O78     1.291   .     A
C33    O80     1.282   .     A
C34    H35     1.080   .     S
H43    C513    1.108   1_545 S
H45    C512    1.111   1_545 S
H50    C268    1.110   .     S
H60    C110    1.111   .     S
H63    N235    1.029   1_455 S
H64    N154    1.029   .     S
H65    C509    1.106   1_545 S
N71    Zn82    2.013   .     S
N71    H145    1.029   .     S
N71    N154    1.312   .     S
N72    Zn81    2.013   .     S
N72    N235    1.312   1_455 S
N72    H228    1.029   1_455 S
O73    Zn81    2.013   .     S
O74    Zn82    2.013   .     S
O75    Zn82    2.040   .     S
O76    Zn81    2.040   .     S
O77    Zn81    2.017   .     S
O78    Zn82    2.017   .     S
O79    Zn82    2.018   .     S
O80    Zn81    2.018   .     S
C83    O157    1.298   .     A
C83    O155    1.276   .     A
C83    C112    1.438   .     S
C84    H128    1.082   .     S
C84    C95     1.389   .     A
C84    C86     1.380   .     A
C85    C115    1.434   .     S
C85    C116    1.388   .     A
C85    C87     1.407   .     A
C86    C88     1.406   .     A
C86    C114    1.433   .     S
C87    C98     1.527   .     S
C87    C89     1.407   .     A
C88    C100    1.517   .     S
C88    C90     1.411   .     A
C89    C96     1.400   .     A
C89    C91     1.415   .     A
C90    C97     1.406   .     A
C90    C92     1.415   .     A
C91    C93     1.417   .     A
C91    C830    1.404   1_554 S
C92    C95     1.417   .     A
C92    C829    1.404   .     S
C93    C116    1.392   .     A
C93    C111    1.412   .     A
C94    O156    1.281   .     A
C94    O158    1.293   .     A
C94    C113    1.438   .     S
C95    C105    1.410   .     A
C96    H121    1.068   .     S
C96    C843    1.387   1_554 S
C97    H122    1.079   .     S
C97    C849    1.390   .     S
C98    C99     1.525   .     S
C98    H150    1.108   .     S
C98    H149    1.108   .     S
C99    H148    1.098   .     S
C99    H139    1.108   .     S
C99    H393    1.106   .     S
C100   H119    1.106   .     S
C100   C101    1.528   .     S
C100   H120    1.103   .     S
C101   H118    1.105   .     S
C101   H151    1.107   .     S
C101   H152    1.111   .     S
C102   H126    1.105   .     S
C102   C105    1.514   .     S
C102   C103    1.523   .     S
C102   H373    1.111   .     S
C103   H123    1.111   .     S
C103   H124    1.109   .     S
C103   H371    1.108   .     S
C104   C111    1.520   .     S
C104   C106    1.529   .     S
C104   H133    1.102   .     S
C104   H624    1.110   1_545 S
C105   C834    1.387   .     S
C106   H131    1.110   .     S
C106   H130    1.111   .     S
C106   H129    1.111   .     S
C107   H138    1.097   .     S
C107   H137    1.110   .     S
C107   C600    1.536   1_545 S
C107   C604    1.554   1_545 S
C108   H136    1.111   .     S
C108   H134    1.106   .     S
C108   H135    1.105   .     S
C108   C353    1.536   .     S
C109   H143    1.105   .     S
C109   H144    1.113   .     S
C109   C356    1.525   .     S
C109   C359    1.561   .     S
C110   H141    1.104   .     S
C110   H140    1.095   .     S
C110   C601    1.525   1_545 S
C111   C835    1.390   1_554 S
C112   C353    1.554   .     S
C112   C359    1.397   .     S
C113   C604    1.397   1_545 S
C113   C601    1.561   1_545 S
C114   O159    1.286   .     A
C114   O161    1.286   .     A
C115   O160    1.291   .     A
C115   O162    1.282   .     A
C116   H117    1.080   .     S
H125   C595    1.108   1_545 S
H127   C594    1.111   1_545 S
H132   C350    1.110   .     S
H142   C192    1.111   .     S
H146   N236    1.029   .     S
H147   C591    1.106   1_545 S
N153   Zn164   2.013   .     S
N153   H227    1.029   .     S
N153   N236    1.312   .     S
N154   Zn163   2.013   .     S
O155   Zn163   2.013   .     S
O156   Zn164   2.013   .     S
O157   Zn164   2.040   .     S
O158   Zn163   2.040   .     S
O159   Zn163   2.017   .     S
O160   Zn164   2.017   .     S
O161   Zn164   2.018   .     S
O162   Zn163   2.018   .     S
C165   O239    1.298   .     A
C165   O237    1.276   .     A
C165   C194    1.438   .     S
C166   H210    1.082   .     S
C166   C177    1.389   .     A
C166   C168    1.380   .     A
C167   C197    1.434   .     S
C167   C198    1.388   .     A
C167   C169    1.407   .     A
C168   C170    1.406   .     A
C168   C196    1.433   .     S
C169   C180    1.527   .     S
C169   C171    1.407   .     A
C170   C182    1.517   .     S
C170   C172    1.411   .     A
C171   C178    1.400   .     A
C171   C173    1.415   .     A
C172   C179    1.406   .     A
C172   C174    1.415   .     A
C173   C175    1.417   .     A
C173   C912    1.404   1_554 S
C174   C177    1.417   .     A
C174   C911    1.404   .     S
C175   C198    1.392   .     A
C175   C193    1.412   .     A
C176   O238    1.281   .     A
C176   O240    1.293   .     A
C176   C195    1.438   .     S
C177   C187    1.410   .     A
C178   H203    1.068   .     S
C178   C925    1.387   1_554 S
C179   H204    1.079   .     S
C179   C931    1.390   .     S
C180   C181    1.525   .     S
C180   H232    1.108   .     S
C180   H231    1.108   .     S
C181   H230    1.098   .     S
C181   H221    1.108   .     S
C181   H475    1.106   .     S
C182   H201    1.106   .     S
C182   C183    1.528   .     S
C182   H202    1.103   .     S
C183   H200    1.105   .     S
C183   H233    1.107   .     S
C183   H234    1.111   .     S
C184   H208    1.105   .     S
C184   C187    1.514   .     S
C184   C185    1.523   .     S
C184   H455    1.111   .     S
C185   H205    1.111   .     S
C185   H206    1.109   .     S
C185   H453    1.108   .     S
C186   C193    1.520   .     S
C186   C188    1.529   .     S
C186   H215    1.102   .     S
C186   H706    1.110   1_545 S
C187   C916    1.387   .     S
C188   H213    1.110   .     S
C188   H212    1.111   .     S
C188   H211    1.111   .     S
C189   H220    1.097   .     S
C189   H219    1.110   .     S
C189   C682    1.536   1_545 S
C189   C686    1.554   1_545 S
C190   H218    1.111   .     S
C190   H216    1.106   .     S
C190   H217    1.105   .     S
C190   C435    1.536   .     S
C191   H225    1.105   .     S
C191   H226    1.113   .     S
C191   C438    1.525   .     S
C191   C441    1.561   .     S
C192   H223    1.104   .     S
C192   H222    1.095   .     S
C192   C683    1.525   1_545 S
C193   C917    1.390   1_554 S
C194   C435    1.554   .     S
C194   C441    1.397   .     S
C195   C686    1.397   1_545 S
C195   C683    1.561   1_545 S
C196   O241    1.286   .     A
C196   O243    1.286   .     A
C197   O242    1.291   .     A
C197   O244    1.282   .     A
C198   H199    1.080   .     S
H207   C677    1.108   1_545 S
H209   C676    1.111   1_545 S
H214   C432    1.110   .     S
H224   C28     1.111   1_655 S
H228   N72     1.029   1_655 S
H229   C673    1.106   1_545 S
N235   Zn246   2.013   .     S
N235   H63     1.029   1_655 S
N235   N72     1.312   1_655 S
N236   Zn245   2.013   .     S
O237   Zn245   2.013   .     S
O238   Zn246   2.013   .     S
O239   Zn246   2.040   .     S
O240   Zn245   2.040   .     S
O241   Zn245   2.017   .     S
O242   Zn246   2.017   .     S
O243   Zn246   2.018   .     S
O244   Zn245   2.018   .     S
C247   O321    1.298   .     A
C247   O319    1.276   .     A
C247   C276    1.438   .     S
C248   H292    1.082   .     S
C248   C259    1.389   .     A
C248   C250    1.380   .     A
C249   C279    1.434   .     S
C249   C280    1.388   .     A
C249   C251    1.407   .     A
C250   C252    1.406   .     A
C250   C278    1.433   .     S
C251   C262    1.527   .     S
C251   C253    1.407   .     A
C252   C264    1.517   .     S
C252   C254    1.411   .     A
C253   C260    1.400   .     A
C253   C255    1.415   .     A
C254   C261    1.406   .     A
C254   C256    1.415   .     A
C255   C257    1.417   .     A
C255   C994    1.404   1_554 S
C256   C259    1.417   .     A
C256   C993    1.404   .     S
C257   C280    1.392   .     A
C257   C275    1.412   .     A
C258   O320    1.281   .     A
C258   O322    1.293   .     A
C258   C277    1.438   .     S
C259   C269    1.410   .     A
C260   H285    1.068   .     S
C260   C1007   1.387   1_554 S
C261   H286    1.079   .     S
C261   C1013   1.390   .     S
C262   C263    1.525   .     S
C262   H314    1.108   .     S
C262   H313    1.108   .     S
C263   H312    1.098   .     S
C263   H303    1.108   .     S
C263   H557    1.106   .     S
C264   H283    1.106   .     S
C264   C265    1.528   .     S
C264   H284    1.103   .     S
C265   H282    1.105   .     S
C265   H315    1.107   .     S
C265   H316    1.111   .     S
C266   H290    1.105   .     S
C266   C269    1.514   .     S
C266   C267    1.523   .     S
C266   H537    1.111   .     S
C267   H287    1.111   .     S
C267   H288    1.109   .     S
C267   H535    1.108   .     S
C268   C275    1.520   .     S
C268   C270    1.529   .     S
C268   H297    1.102   .     S
C269   C998    1.387   .     S
C270   H295    1.110   .     S
C270   H294    1.111   .     S
C270   H293    1.111   .     S
C271   H302    1.097   .     S
C271   H301    1.110   .     S
C272   H300    1.111   .     S
C272   H298    1.106   .     S
C272   H299    1.105   .     S
C272   C517    1.536   .     S
C273   H307    1.105   .     S
C273   H308    1.113   .     S
C273   C520    1.525   .     S
C273   C523    1.561   .     S
C274   H305    1.104   .     S
C274   H304    1.095   .     S
C274   H470    1.111   1_455 S
C275   C999    1.390   1_554 S
C276   C517    1.554   .     S
C276   C523    1.397   .     S
C278   O323    1.286   .     A
C278   O325    1.286   .     A
C279   O324    1.291   .     A
C279   O326    1.282   .     A
C280   H281    1.080   .     S
H296   C514    1.110   .     S
H306   C356    1.111   .     S
H309   N481    1.029   1_455 S
H310   N400    1.029   .     S
N317   Zn328   2.013   .     S
N317   H391    1.029   .     S
N317   N400    1.312   .     S
N318   Zn327   2.013   .     S
N318   N481    1.312   1_455 S
N318   H474    1.029   1_455 S
O319   Zn327   2.013   .     S
O320   Zn328   2.013   .     S
O321   Zn328   2.040   .     S
O322   Zn327   2.040   .     S
O323   Zn327   2.017   .     S
O324   Zn328   2.017   .     S
O325   Zn328   2.018   .     S
O326   Zn327   2.018   .     S
C329   O403    1.298   .     A
C329   O401    1.276   .     A
C329   C358    1.438   .     S
C330   H374    1.082   .     S
C330   C341    1.389   .     A
C330   C332    1.380   .     A
C331   C361    1.434   .     S
C331   C362    1.388   .     A
C331   C333    1.407   .     A
C332   C334    1.406   .     A
C332   C360    1.433   .     S
C333   C344    1.527   .     S
C333   C335    1.407   .     A
C334   C346    1.517   .     S
C334   C336    1.411   .     A
C335   C342    1.400   .     A
C335   C337    1.415   .     A
C336   C343    1.406   .     A
C336   C338    1.415   .     A
C337   C339    1.417   .     A
C337   C1076   1.404   1_554 S
C338   C341    1.417   .     A
C338   C1075   1.404   .     S
C339   C362    1.392   .     A
C339   C357    1.412   .     A
C340   O402    1.281   .     A
C340   O404    1.293   .     A
C340   C359    1.438   .     S
C341   C351    1.410   .     A
C342   H367    1.068   .     S
C342   C1089   1.387   1_554 S
C343   H368    1.079   .     S
C343   C1095   1.390   .     S
C344   C345    1.525   .     S
C344   H396    1.108   .     S
C344   H395    1.108   .     S
C345   H394    1.098   .     S
C345   H385    1.108   .     S
C345   H639    1.106   .     S
C346   H365    1.106   .     S
C346   C347    1.528   .     S
C346   H366    1.103   .     S
C347   H364    1.105   .     S
C347   H397    1.107   .     S
C347   H398    1.111   .     S
C348   H372    1.105   .     S
C348   C351    1.514   .     S
C348   C349    1.523   .     S
C348   H619    1.111   .     S
C349   H369    1.111   .     S
C349   H370    1.109   .     S
C349   H617    1.108   .     S
C350   C357    1.520   .     S
C350   C352    1.529   .     S
C350   H379    1.102   .     S
C351   C1080   1.387   .     S
C352   H377    1.110   .     S
C352   H376    1.111   .     S
C352   H375    1.111   .     S
C353   H384    1.097   .     S
C353   H383    1.110   .     S
C354   H382    1.111   .     S
C354   H380    1.106   .     S
C354   H381    1.105   .     S
C354   C599    1.536   .     S
C355   H389    1.105   .     S
C355   H390    1.113   .     S
C355   C602    1.525   .     S
C355   C605    1.561   .     S
C356   H387    1.104   .     S
C356   H386    1.095   .     S
C357   C1081   1.390   1_554 S
C358   C599    1.554   .     S
C358   C605    1.397   .     S
C360   O405    1.286   .     A
C360   O407    1.286   .     A
C361   O406    1.291   .     A
C361   O408    1.282   .     A
C362   H363    1.080   .     S
H378   C596    1.110   .     S
H388   C438    1.111   .     S
H392   N482    1.029   .     S
N399   Zn410   2.013   .     S
N399   H473    1.029   .     S
N399   N482    1.312   .     S
N400   Zn409   2.013   .     S
O401   Zn409   2.013   .     S
O402   Zn410   2.013   .     S
O403   Zn410   2.040   .     S
O404   Zn409   2.040   .     S
O405   Zn409   2.017   .     S
O406   Zn410   2.017   .     S
O407   Zn410   2.018   .     S
O408   Zn409   2.018   .     S
C411   O485    1.298   .     A
C411   O483    1.276   .     A
C411   C440    1.438   .     S
C412   H456    1.082   .     S
C412   C423    1.389   .     A
C412   C414    1.380   .     A
C413   C443    1.434   .     S
C413   C444    1.388   .     A
C413   C415    1.407   .     A
C414   C416    1.406   .     A
C414   C442    1.433   .     S
C415   C426    1.527   .     S
C415   C417    1.407   .     A
C416   C428    1.517   .     S
C416   C418    1.411   .     A
C417   C424    1.400   .     A
C417   C419    1.415   .     A
C418   C425    1.406   .     A
C418   C420    1.415   .     A
C419   C421    1.417   .     A
C419   C1158   1.404   1_554 S
C420   C423    1.417   .     A
C420   C1157   1.404   .     S
C421   C444    1.392   .     A
C421   C439    1.412   .     A
C422   O484    1.281   .     A
C422   O486    1.293   .     A
C422   C441    1.438   .     S
C423   C433    1.410   .     A
C424   H449    1.068   .     S
C424   C1171   1.387   1_554 S
C425   H450    1.079   .     S
C425   C1177   1.390   .     S
C426   C427    1.525   .     S
C426   H478    1.108   .     S
C426   H477    1.108   .     S
C427   H476    1.098   .     S
C427   H467    1.108   .     S
C427   H721    1.106   .     S
C428   H447    1.106   .     S
C428   C429    1.528   .     S
C428   H448    1.103   .     S
C429   H446    1.105   .     S
C429   H479    1.107   .     S
C429   H480    1.111   .     S
C430   H454    1.105   .     S
C430   C433    1.514   .     S
C430   C431    1.523   .     S
C430   H701    1.111   .     S
C431   H451    1.111   .     S
C431   H452    1.109   .     S
C431   H699    1.108   .     S
C432   C439    1.520   .     S
C432   C434    1.529   .     S
C432   H461    1.102   .     S
C433   C1162   1.387   .     S
C434   H459    1.110   .     S
C434   H458    1.111   .     S
C434   H457    1.111   .     S
C435   H466    1.097   .     S
C435   H465    1.110   .     S
C436   H464    1.111   .     S
C436   H462    1.106   .     S
C436   H463    1.105   .     S
C436   C681    1.536   .     S
C437   H471    1.105   .     S
C437   H472    1.113   .     S
C437   C684    1.525   .     S
C437   C687    1.561   .     S
C438   H469    1.104   .     S
C438   H468    1.095   .     S
C439   C1163   1.390   1_554 S
C440   C681    1.554   .     S
C440   C687    1.397   .     S
C442   O487    1.286   .     A
C442   O489    1.286   .     A
C443   O488    1.291   .     A
C443   O490    1.282   .     A
C444   H445    1.080   .     S
H460   C678    1.110   .     S
H470   C274    1.111   1_655 S
H474   N318    1.029   1_655 S
N481   Zn492   2.013   .     S
N481   H309    1.029   1_655 S
N481   N318    1.312   1_655 S
N482   Zn491   2.013   .     S
O483   Zn491   2.013   .     S
O484   Zn492   2.013   .     S
O485   Zn492   2.040   .     S
O486   Zn491   2.040   .     S
O487   Zn491   2.017   .     S
O488   Zn492   2.017   .     S
O489   Zn492   2.018   .     S
O490   Zn491   2.018   .     S
C493   O567    1.298   .     A
C493   O565    1.276   .     A
C493   C522    1.438   .     S
C494   H538    1.082   .     S
C494   C505    1.389   .     A
C494   C496    1.380   .     A
C495   C525    1.434   .     S
C495   C526    1.388   .     A
C495   C497    1.407   .     A
C496   C498    1.406   .     A
C496   C524    1.433   .     S
C497   C508    1.527   .     S
C497   C499    1.407   .     A
C498   C510    1.517   .     S
C498   C500    1.411   .     A
C499   C506    1.400   .     A
C499   C501    1.415   .     A
C500   C507    1.406   .     A
C500   C502    1.415   .     A
C501   C503    1.417   .     A
C501   C1240   1.404   1_554 S
C502   C505    1.417   .     A
C502   C1239   1.404   .     S
C503   C526    1.392   .     A
C503   C521    1.412   .     A
C504   O566    1.281   .     A
C504   O568    1.293   .     A
C504   C523    1.438   .     S
C505   C515    1.410   .     A
C506   H531    1.068   .     S
C506   C1253   1.387   1_554 S
C507   H532    1.079   .     S
C507   C1259   1.390   .     S
C508   C509    1.525   .     S
C508   H560    1.108   .     S
C508   H559    1.108   .     S
C509   H558    1.098   .     S
C509   H549    1.108   .     S
C509   H65     1.106   1_565 S
C510   H529    1.106   .     S
C510   C511    1.528   .     S
C510   H530    1.103   .     S
C511   H528    1.105   .     S
C511   H561    1.107   .     S
C511   H562    1.111   .     S
C512   H536    1.105   .     S
C512   C515    1.514   .     S
C512   C513    1.523   .     S
C512   H45     1.111   1_565 S
C513   H533    1.111   .     S
C513   H534    1.109   .     S
C513   H43     1.108   1_565 S
C514   C521    1.520   .     S
C514   C516    1.529   .     S
C514   H543    1.102   .     S
C515   C1244   1.387   .     S
C516   H541    1.110   .     S
C516   H540    1.111   .     S
C516   H539    1.111   .     S
C517   H548    1.097   .     S
C517   H547    1.110   .     S
C518   H546    1.111   .     S
C518   H544    1.106   .     S
C518   H545    1.105   .     S
C518   C25     1.536   1_565 S
C519   H553    1.105   .     S
C519   H554    1.113   .     S
C519   C28     1.525   1_565 S
C519   C31     1.561   1_565 S
C520   H551    1.104   .     S
C520   H550    1.095   .     S
C520   H716    1.111   1_455 S
C521   C1245   1.390   1_554 S
C522   C25     1.554   1_565 S
C522   C31     1.397   1_565 S
C524   O569    1.286   .     A
C524   O571    1.286   .     A
C525   O570    1.291   .     A
C525   O572    1.282   .     A
C526   H527    1.080   .     S
H542   C22     1.110   1_565 S
H552   C602    1.111   .     S
H555   N727    1.029   1_455 S
H556   N646    1.029   .     S
N563   Zn574   2.013   .     S
N563   H637    1.029   .     S
N563   N646    1.312   .     S
N564   Zn573   2.013   .     S
N564   N727    1.312   1_455 S
N564   H720    1.029   1_455 S
O565   Zn573   2.013   .     S
O566   Zn574   2.013   .     S
O567   Zn574   2.040   .     S
O568   Zn573   2.040   .     S
O569   Zn573   2.017   .     S
O570   Zn574   2.017   .     S
O571   Zn574   2.018   .     S
O572   Zn573   2.018   .     S
C575   O649    1.298   .     A
C575   O647    1.276   .     A
C575   C604    1.438   .     S
C576   H620    1.082   .     S
C576   C587    1.389   .     A
C576   C578    1.380   .     A
C577   C607    1.434   .     S
C577   C608    1.388   .     A
C577   C579    1.407   .     A
C578   C580    1.406   .     A
C578   C606    1.433   .     S
C579   C590    1.527   .     S
C579   C581    1.407   .     A
C580   C592    1.517   .     S
C580   C582    1.411   .     A
C581   C588    1.400   .     A
C581   C583    1.415   .     A
C582   C589    1.406   .     A
C582   C584    1.415   .     A
C583   C585    1.417   .     A
C583   C1322   1.404   1_554 S
C584   C587    1.417   .     A
C584   C1321   1.404   .     S
C585   C608    1.392   .     A
C585   C603    1.412   .     A
C586   O648    1.281   .     A
C586   O650    1.293   .     A
C586   C605    1.438   .     S
C587   C597    1.410   .     A
C588   H613    1.068   .     S
C588   C1335   1.387   1_554 S
C589   H614    1.079   .     S
C589   C1341   1.390   .     S
C590   C591    1.525   .     S
C590   H642    1.108   .     S
C590   H641    1.108   .     S
C591   H640    1.098   .     S
C591   H631    1.108   .     S
C591   H147    1.106   1_565 S
C592   H611    1.106   .     S
C592   C593    1.528   .     S
C592   H612    1.103   .     S
C593   H610    1.105   .     S
C593   H643    1.107   .     S
C593   H644    1.111   .     S
C594   H618    1.105   .     S
C594   C597    1.514   .     S
C594   C595    1.523   .     S
C594   H127    1.111   1_565 S
C595   H615    1.111   .     S
C595   H616    1.109   .     S
C595   H125    1.108   1_565 S
C596   C603    1.520   .     S
C596   C598    1.529   .     S
C596   H625    1.102   .     S
C597   C1326   1.387   .     S
C598   H623    1.110   .     S
C598   H622    1.111   .     S
C598   H621    1.111   .     S
C599   H630    1.097   .     S
C599   H629    1.110   .     S
C600   H628    1.111   .     S
C600   H626    1.106   .     S
C600   H627    1.105   .     S
C600   C107    1.536   1_565 S
C601   H635    1.105   .     S
C601   H636    1.113   .     S
C601   C110    1.525   1_565 S
C601   C113    1.561   1_565 S
C602   H633    1.104   .     S
C602   H632    1.095   .     S
C603   C1327   1.390   1_554 S
C604   C107    1.554   1_565 S
C604   C113    1.397   1_565 S
C606   O651    1.286   .     A
C606   O653    1.286   .     A
C607   O652    1.291   .     A
C607   O654    1.282   .     A
C608   H609    1.080   .     S
H624   C104    1.110   1_565 S
H634   C684    1.111   .     S
H638   N728    1.029   .     S
N645   Zn656   2.013   .     S
N645   H719    1.029   .     S
N645   N728    1.312   .     S
N646   Zn655   2.013   .     S
O647   Zn655   2.013   .     S
O648   Zn656   2.013   .     S
O649   Zn656   2.040   .     S
O650   Zn655   2.040   .     S
O651   Zn655   2.017   .     S
O652   Zn656   2.017   .     S
O653   Zn656   2.018   .     S
O654   Zn655   2.018   .     S
C657   O731    1.298   .     A
C657   O729    1.276   .     A
C657   C686    1.438   .     S
C658   H702    1.082   .     S
C658   C669    1.389   .     A
C658   C660    1.380   .     A
C659   C689    1.434   .     S
C659   C690    1.388   .     A
C659   C661    1.407   .     A
C660   C662    1.406   .     A
C660   C688    1.433   .     S
C661   C672    1.527   .     S
C661   C663    1.407   .     A
C662   C674    1.517   .     S
C662   C664    1.411   .     A
C663   C670    1.400   .     A
C663   C665    1.415   .     A
C664   C671    1.406   .     A
C664   C666    1.415   .     A
C665   C667    1.417   .     A
C665   C1404   1.404   1_554 S
C666   C669    1.417   .     A
C666   C1403   1.404   .     S
C667   C690    1.392   .     A
C667   C685    1.412   .     A
C668   O730    1.281   .     A
C668   O732    1.293   .     A
C668   C687    1.438   .     S
C669   C679    1.410   .     A
C670   H695    1.068   .     S
C670   C1417   1.387   1_554 S
C671   H696    1.079   .     S
C671   C1423   1.390   .     S
C672   C673    1.525   .     S
C672   H724    1.108   .     S
C672   H723    1.108   .     S
C673   H722    1.098   .     S
C673   H713    1.108   .     S
C673   H229    1.106   1_565 S
C674   H693    1.106   .     S
C674   C675    1.528   .     S
C674   H694    1.103   .     S
C675   H692    1.105   .     S
C675   H725    1.107   .     S
C675   H726    1.111   .     S
C676   H700    1.105   .     S
C676   C679    1.514   .     S
C676   C677    1.523   .     S
C676   H209    1.111   1_565 S
C677   H697    1.111   .     S
C677   H698    1.109   .     S
C677   H207    1.108   1_565 S
C678   C685    1.520   .     S
C678   C680    1.529   .     S
C678   H707    1.102   .     S
C679   C1408   1.387   .     S
C680   H705    1.110   .     S
C680   H704    1.111   .     S
C680   H703    1.111   .     S
C681   H712    1.097   .     S
C681   H711    1.110   .     S
C682   H710    1.111   .     S
C682   H708    1.106   .     S
C682   H709    1.105   .     S
C682   C189    1.536   1_565 S
C683   H717    1.105   .     S
C683   H718    1.113   .     S
C683   C192    1.525   1_565 S
C683   C195    1.561   1_565 S
C684   H715    1.104   .     S
C684   H714    1.095   .     S
C685   C1409   1.390   1_554 S
C686   C189    1.554   1_565 S
C686   C195    1.397   1_565 S
C688   O733    1.286   .     A
C688   O735    1.286   .     A
C689   O734    1.291   .     A
C689   O736    1.282   .     A
C690   H691    1.080   .     S
H706   C186    1.110   1_565 S
H716   C520    1.111   1_655 S
H720   N564    1.029   1_655 S
N727   Zn738   2.013   .     S
N727   H555    1.029   1_655 S
N727   N564    1.312   1_655 S
N728   Zn737   2.013   .     S
O729   Zn737   2.013   .     S
O730   Zn738   2.013   .     S
O731   Zn738   2.040   .     S
O732   Zn737   2.040   .     S
O733   Zn737   2.017   .     S
O734   Zn738   2.017   .     S
O735   Zn738   2.018   .     S
O736   Zn737   2.018   .     S
C739   O813    1.298   .     A
C739   O811    1.276   .     A
C739   C768    1.438   .     S
C740   H784    1.082   .     S
C740   C751    1.389   .     A
C740   C742    1.380   .     A
C741   C771    1.434   .     S
C741   C772    1.388   .     A
C741   C743    1.407   .     A
C742   C744    1.406   .     A
C742   C770    1.433   .     S
C743   C754    1.527   .     S
C743   C745    1.407   .     A
C744   C756    1.517   .     S
C744   C746    1.411   .     A
C745   C752    1.400   .     A
C745   C747    1.415   .     A
C746   C753    1.406   .     A
C746   C748    1.415   .     A
C747   C749    1.417   .     A
C748   C751    1.417   .     A
C748   C9      1.404   1_556 S
C749   C772    1.392   .     A
C749   C767    1.412   .     A
C750   O812    1.281   .     A
C750   O814    1.293   .     A
C750   C769    1.438   .     S
C751   C761    1.410   .     A
C752   H777    1.068   .     S
C753   H778    1.079   .     S
C753   C29     1.390   1_556 S
C754   C755    1.525   .     S
C754   H806    1.108   .     S
C754   H805    1.108   .     S
C755   H804    1.098   .     S
C755   H795    1.108   .     S
C755   H1049   1.106   .     S
C756   H775    1.106   .     S
C756   C757    1.528   .     S
C756   H776    1.103   .     S
C757   H774    1.105   .     S
C757   H807    1.107   .     S
C757   H808    1.111   .     S
C758   H782    1.105   .     S
C758   C761    1.514   .     S
C758   C759    1.523   .     S
C758   H1029   1.111   .     S
C759   H779    1.111   .     S
C759   H780    1.109   .     S
C759   H1027   1.108   .     S
C760   C767    1.520   .     S
C760   C762    1.529   .     S
C760   H789    1.102   .     S
C760   H1280   1.110   1_545 S
C761   C14     1.387   1_556 S
C762   H787    1.110   .     S
C762   H786    1.111   .     S
C762   H785    1.111   .     S
C763   H794    1.097   .     S
C763   H793    1.110   .     S
C763   C1256   1.536   1_545 S
C763   C1260   1.554   1_545 S
C764   H792    1.111   .     S
C764   H790    1.106   .     S
C764   H791    1.105   .     S
C764   C1009   1.536   .     S
C765   H799    1.105   .     S
C765   H800    1.113   .     S
C765   C1012   1.525   .     S
C765   C1015   1.561   .     S
C766   H797    1.104   .     S
C766   H796    1.095   .     S
C766   C1257   1.525   1_545 S
C766   H962    1.111   1_455 S
C768   C1009   1.554   .     S
C768   C1015   1.397   .     S
C769   C1260   1.397   1_545 S
C769   C1257   1.561   1_545 S
C770   O815    1.286   .     A
C770   O817    1.286   .     A
C771   O816    1.291   .     A
C771   O818    1.282   .     A
C772   H773    1.080   .     S
H781   C1251   1.108   1_545 S
H783   C1250   1.111   1_545 S
H788   C1006   1.110   .     S
H798   C848    1.111   .     S
H801   N973    1.029   1_455 S
H802   N892    1.029   .     S
H803   C1247   1.106   1_545 S
N809   Zn820   2.013   .     S
N809   H883    1.029   .     S
N809   N892    1.312   .     S
N810   Zn819   2.013   .     S
N810   N973    1.312   1_455 S
N810   H966    1.029   1_455 S
O811   Zn819   2.013   .     S
O812   Zn820   2.013   .     S
O813   Zn820   2.040   .     S
O814   Zn819   2.040   .     S
O815   Zn819   2.017   .     S
O816   Zn820   2.017   .     S
O817   Zn820   2.018   .     S
O818   Zn819   2.018   .     S
C821   O895    1.298   .     A
C821   O893    1.276   .     A
C821   C850    1.438   .     S
C822   H866    1.082   .     S
C822   C833    1.389   .     A
C822   C824    1.380   .     A
C823   C853    1.434   .     S
C823   C854    1.388   .     A
C823   C825    1.407   .     A
C824   C826    1.406   .     A
C824   C852    1.433   .     S
C825   C836    1.527   .     S
C825   C827    1.407   .     A
C826   C838    1.517   .     S
C826   C828    1.411   .     A
C827   C834    1.400   .     A
C827   C829    1.415   .     A
C828   C835    1.406   .     A
C828   C830    1.415   .     A
C829   C831    1.417   .     A
C830   C833    1.417   .     A
C830   C91     1.404   1_556 S
C831   C854    1.392   .     A
C831   C849    1.412   .     A
C832   O894    1.281   .     A
C832   O896    1.293   .     A
C832   C851    1.438   .     S
C833   C843    1.410   .     A
C834   H859    1.068   .     S
C835   H860    1.079   .     S
C835   C111    1.390   1_556 S
C836   C837    1.525   .     S
C836   H888    1.108   .     S
C836   H887    1.108   .     S
C837   H886    1.098   .     S
C837   H877    1.108   .     S
C837   H1131   1.106   .     S
C838   H857    1.106   .     S
C838   C839    1.528   .     S
C838   H858    1.103   .     S
C839   H856    1.105   .     S
C839   H889    1.107   .     S
C839   H890    1.111   .     S
C840   H864    1.105   .     S
C840   C843    1.514   .     S
C840   C841    1.523   .     S
C840   H1111   1.111   .     S
C841   H861    1.111   .     S
C841   H862    1.109   .     S
C841   H1109   1.108   .     S
C842   C849    1.520   .     S
C842   C844    1.529   .     S
C842   H871    1.102   .     S
C842   H1362   1.110   1_545 S
C843   C96     1.387   1_556 S
C844   H869    1.110   .     S
C844   H868    1.111   .     S
C844   H867    1.111   .     S
C845   H876    1.097   .     S
C845   H875    1.110   .     S
C845   C1338   1.536   1_545 S
C845   C1342   1.554   1_545 S
C846   H874    1.111   .     S
C846   H872    1.106   .     S
C846   H873    1.105   .     S
C846   C1091   1.536   .     S
C847   H881    1.105   .     S
C847   H882    1.113   .     S
C847   C1094   1.525   .     S
C847   C1097   1.561   .     S
C848   H879    1.104   .     S
C848   H878    1.095   .     S
C848   C1339   1.525   1_545 S
C850   C1091   1.554   .     S
C850   C1097   1.397   .     S
C851   C1342   1.397   1_545 S
C851   C1339   1.561   1_545 S
C852   O897    1.286   .     A
C852   O899    1.286   .     A
C853   O898    1.291   .     A
C853   O900    1.282   .     A
C854   H855    1.080   .     S
H863   C1333   1.108   1_545 S
H865   C1332   1.111   1_545 S
H870   C1088   1.110   .     S
H880   C930    1.111   .     S
H884   N974    1.029   .     S
H885   C1329   1.106   1_545 S
N891   Zn902   2.013   .     S
N891   H965    1.029   .     S
N891   N974    1.312   .     S
N892   Zn901   2.013   .     S
O893   Zn901   2.013   .     S
O894   Zn902   2.013   .     S
O895   Zn902   2.040   .     S
O896   Zn901   2.040   .     S
O897   Zn901   2.017   .     S
O898   Zn902   2.017   .     S
O899   Zn902   2.018   .     S
O900   Zn901   2.018   .     S
C903   O977    1.298   .     A
C903   O975    1.276   .     A
C903   C932    1.438   .     S
C904   H948    1.082   .     S
C904   C915    1.389   .     A
C904   C906    1.380   .     A
C905   C935    1.434   .     S
C905   C936    1.388   .     A
C905   C907    1.407   .     A
C906   C908    1.406   .     A
C906   C934    1.433   .     S
C907   C918    1.527   .     S
C907   C909    1.407   .     A
C908   C920    1.517   .     S
C908   C910    1.411   .     A
C909   C916    1.400   .     A
C909   C911    1.415   .     A
C910   C917    1.406   .     A
C910   C912    1.415   .     A
C911   C913    1.417   .     A
C912   C915    1.417   .     A
C912   C173    1.404   1_556 S
C913   C936    1.392   .     A
C913   C931    1.412   .     A
C914   O976    1.281   .     A
C914   O978    1.293   .     A
C914   C933    1.438   .     S
C915   C925    1.410   .     A
C916   H941    1.068   .     S
C917   H942    1.079   .     S
C917   C193    1.390   1_556 S
C918   C919    1.525   .     S
C918   H970    1.108   .     S
C918   H969    1.108   .     S
C919   H968    1.098   .     S
C919   H959    1.108   .     S
C919   H1213   1.106   .     S
C920   H939    1.106   .     S
C920   C921    1.528   .     S
C920   H940    1.103   .     S
C921   H938    1.105   .     S
C921   H971    1.107   .     S
C921   H972    1.111   .     S
C922   H946    1.105   .     S
C922   C925    1.514   .     S
C922   C923    1.523   .     S
C922   H1193   1.111   .     S
C923   H943    1.111   .     S
C923   H944    1.109   .     S
C923   H1191   1.108   .     S
C924   C931    1.520   .     S
C924   C926    1.529   .     S
C924   H953    1.102   .     S
C924   H1444   1.110   1_545 S
C925   C178    1.387   1_556 S
C926   H951    1.110   .     S
C926   H950    1.111   .     S
C926   H949    1.111   .     S
C927   H958    1.097   .     S
C927   H957    1.110   .     S
C927   C1420   1.536   1_545 S
C927   C1424   1.554   1_545 S
C928   H956    1.111   .     S
C928   H954    1.106   .     S
C928   H955    1.105   .     S
C928   C1173   1.536   .     S
C929   H963    1.105   .     S
C929   H964    1.113   .     S
C929   C1176   1.525   .     S
C929   C1179   1.561   .     S
C930   H961    1.104   .     S
C930   H960    1.095   .     S
C930   C1421   1.525   1_545 S
C932   C1173   1.554   .     S
C932   C1179   1.397   .     S
C933   C1424   1.397   1_545 S
C933   C1421   1.561   1_545 S
C934   O979    1.286   .     A
C934   O981    1.286   .     A
C935   O980    1.291   .     A
C935   O982    1.282   .     A
C936   H937    1.080   .     S
H945   C1415   1.108   1_545 S
H947   C1414   1.111   1_545 S
H952   C1170   1.110   .     S
H962   C766    1.111   1_655 S
H966   N810    1.029   1_655 S
H967   C1411   1.106   1_545 S
N973   Zn984   2.013   .     S
N973   H801    1.029   1_655 S
N973   N810    1.312   1_655 S
N974   Zn983   2.013   .     S
O975   Zn983   2.013   .     S
O976   Zn984   2.013   .     S
O977   Zn984   2.040   .     S
O978   Zn983   2.040   .     S
O979   Zn983   2.017   .     S
O980   Zn984   2.017   .     S
O981   Zn984   2.018   .     S
O982   Zn983   2.018   .     S
C985   O1059   1.298   .     A
C985   O1057   1.276   .     A
C985   C1014   1.438   .     S
C986   H1030   1.082   .     S
C986   C997    1.389   .     A
C986   C988    1.380   .     A
C987   C1017   1.434   .     S
C987   C1018   1.388   .     A
C987   C989    1.407   .     A
C988   C990    1.406   .     A
C988   C1016   1.433   .     S
C989   C1000   1.527   .     S
C989   C991    1.407   .     A
C990   C1002   1.517   .     S
C990   C992    1.411   .     A
C991   C998    1.400   .     A
C991   C993    1.415   .     A
C992   C999    1.406   .     A
C992   C994    1.415   .     A
C993   C995    1.417   .     A
C994   C997    1.417   .     A
C994   C255    1.404   1_556 S
C995   C1018   1.392   .     A
C995   C1013   1.412   .     A
C996   O1058   1.281   .     A
C996   O1060   1.293   .     A
C996   C1015   1.438   .     S
C997   C1007   1.410   .     A
C998   H1023   1.068   .     S
C999   H1024   1.079   .     S
C999   C275    1.390   1_556 S
C1000  C1001   1.525   .     S
C1000  H1052   1.108   .     S
C1000  H1051   1.108   .     S
C1001  H1050   1.098   .     S
C1001  H1041   1.108   .     S
C1001  H1295   1.106   .     S
C1002  H1021   1.106   .     S
C1002  C1003   1.528   .     S
C1002  H1022   1.103   .     S
C1003  H1020   1.105   .     S
C1003  H1053   1.107   .     S
C1003  H1054   1.111   .     S
C1004  H1028   1.105   .     S
C1004  C1007   1.514   .     S
C1004  C1005   1.523   .     S
C1004  H1275   1.111   .     S
C1005  H1025   1.111   .     S
C1005  H1026   1.109   .     S
C1005  H1273   1.108   .     S
C1006  C1013   1.520   .     S
C1006  C1008   1.529   .     S
C1006  H1035   1.102   .     S
C1007  C260    1.387   1_556 S
C1008  H1033   1.110   .     S
C1008  H1032   1.111   .     S
C1008  H1031   1.111   .     S
C1009  H1040   1.097   .     S
C1009  H1039   1.110   .     S
C1010  H1038   1.111   .     S
C1010  H1036   1.106   .     S
C1010  H1037   1.105   .     S
C1010  C1255   1.536   .     S
C1011  H1045   1.105   .     S
C1011  H1046   1.113   .     S
C1011  C1258   1.525   .     S
C1011  C1261   1.561   .     S
C1012  H1043   1.104   .     S
C1012  H1042   1.095   .     S
C1012  H1208   1.111   1_455 S
C1014  C1255   1.554   .     S
C1014  C1261   1.397   .     S
C1016  O1061   1.286   .     A
C1016  O1063   1.286   .     A
C1017  O1062   1.291   .     A
C1017  O1064   1.282   .     A
C1018  H1019   1.080   .     S
H1034  C1252   1.110   .     S
H1044  C1094   1.111   .     S
H1047  N1219   1.029   1_455 S
H1048  N1138   1.029   .     S
N1055  Zn1066  2.013   .     S
N1055  H1129   1.029   .     S
N1055  N1138   1.312   .     S
N1056  Zn1065  2.013   .     S
N1056  N1219   1.312   1_455 S
N1056  H1212   1.029   1_455 S
O1057  Zn1065  2.013   .     S
O1058  Zn1066  2.013   .     S
O1059  Zn1066  2.040   .     S
O1060  Zn1065  2.040   .     S
O1061  Zn1065  2.017   .     S
O1062  Zn1066  2.017   .     S
O1063  Zn1066  2.018   .     S
O1064  Zn1065  2.018   .     S
C1067  O1141   1.298   .     A
C1067  O1139   1.276   .     A
C1067  C1096   1.438   .     S
C1068  H1112   1.082   .     S
C1068  C1079   1.389   .     A
C1068  C1070   1.380   .     A
C1069  C1099   1.434   .     S
C1069  C1100   1.388   .     A
C1069  C1071   1.407   .     A
C1070  C1072   1.406   .     A
C1070  C1098   1.433   .     S
C1071  C1082   1.527   .     S
C1071  C1073   1.407   .     A
C1072  C1084   1.517   .     S
C1072  C1074   1.411   .     A
C1073  C1080   1.400   .     A
C1073  C1075   1.415   .     A
C1074  C1081   1.406   .     A
C1074  C1076   1.415   .     A
C1075  C1077   1.417   .     A
C1076  C1079   1.417   .     A
C1076  C337    1.404   1_556 S
C1077  C1100   1.392   .     A
C1077  C1095   1.412   .     A
C1078  O1140   1.281   .     A
C1078  O1142   1.293   .     A
C1078  C1097   1.438   .     S
C1079  C1089   1.410   .     A
C1080  H1105   1.068   .     S
C1081  H1106   1.079   .     S
C1081  C357    1.390   1_556 S
C1082  C1083   1.525   .     S
C1082  H1134   1.108   .     S
C1082  H1133   1.108   .     S
C1083  H1132   1.098   .     S
C1083  H1123   1.108   .     S
C1083  H1377   1.106   .     S
C1084  H1103   1.106   .     S
C1084  C1085   1.528   .     S
C1084  H1104   1.103   .     S
C1085  H1102   1.105   .     S
C1085  H1135   1.107   .     S
C1085  H1136   1.111   .     S
C1086  H1110   1.105   .     S
C1086  C1089   1.514   .     S
C1086  C1087   1.523   .     S
C1086  H1357   1.111   .     S
C1087  H1107   1.111   .     S
C1087  H1108   1.109   .     S
C1087  H1355   1.108   .     S
C1088  C1095   1.520   .     S
C1088  C1090   1.529   .     S
C1088  H1117   1.102   .     S
C1089  C342    1.387   1_556 S
C1090  H1115   1.110   .     S
C1090  H1114   1.111   .     S
C1090  H1113   1.111   .     S
C1091  H1122   1.097   .     S
C1091  H1121   1.110   .     S
C1092  H1120   1.111   .     S
C1092  H1118   1.106   .     S
C1092  H1119   1.105   .     S
C1092  C1337   1.536   .     S
C1093  H1127   1.105   .     S
C1093  H1128   1.113   .     S
C1093  C1340   1.525   .     S
C1093  C1343   1.561   .     S
C1094  H1125   1.104   .     S
C1094  H1124   1.095   .     S
C1096  C1337   1.554   .     S
C1096  C1343   1.397   .     S
C1098  O1143   1.286   .     A
C1098  O1145   1.286   .     A
C1099  O1144   1.291   .     A
C1099  O1146   1.282   .     A
C1100  H1101   1.080   .     S
H1116  C1334   1.110   .     S
H1126  C1176   1.111   .     S
H1130  N1220   1.029   .     S
N1137  Zn1148  2.013   .     S
N1137  H1211   1.029   .     S
N1137  N1220   1.312   .     S
N1138  Zn1147  2.013   .     S
O1139  Zn1147  2.013   .     S
O1140  Zn1148  2.013   .     S
O1141  Zn1148  2.040   .     S
O1142  Zn1147  2.040   .     S
O1143  Zn1147  2.017   .     S
O1144  Zn1148  2.017   .     S
O1145  Zn1148  2.018   .     S
O1146  Zn1147  2.018   .     S
C1149  O1223   1.298   .     A
C1149  O1221   1.276   .     A
C1149  C1178   1.438   .     S
C1150  H1194   1.082   .     S
C1150  C1161   1.389   .     A
C1150  C1152   1.380   .     A
C1151  C1181   1.434   .     S
C1151  C1182   1.388   .     A
C1151  C1153   1.407   .     A
C1152  C1154   1.406   .     A
C1152  C1180   1.433   .     S
C1153  C1164   1.527   .     S
C1153  C1155   1.407   .     A
C1154  C1166   1.517   .     S
C1154  C1156   1.411   .     A
C1155  C1162   1.400   .     A
C1155  C1157   1.415   .     A
C1156  C1163   1.406   .     A
C1156  C1158   1.415   .     A
C1157  C1159   1.417   .     A
C1158  C1161   1.417   .     A
C1158  C419    1.404   1_556 S
C1159  C1182   1.392   .     A
C1159  C1177   1.412   .     A
C1160  O1222   1.281   .     A
C1160  O1224   1.293   .     A
C1160  C1179   1.438   .     S
C1161  C1171   1.410   .     A
C1162  H1187   1.068   .     S
C1163  H1188   1.079   .     S
C1163  C439    1.390   1_556 S
C1164  C1165   1.525   .     S
C1164  H1216   1.108   .     S
C1164  H1215   1.108   .     S
C1165  H1214   1.098   .     S
C1165  H1205   1.108   .     S
C1165  H1459   1.106   .     S
C1166  H1185   1.106   .     S
C1166  C1167   1.528   .     S
C1166  H1186   1.103   .     S
C1167  H1184   1.105   .     S
C1167  H1217   1.107   .     S
C1167  H1218   1.111   .     S
C1168  H1192   1.105   .     S
C1168  C1171   1.514   .     S
C1168  C1169   1.523   .     S
C1168  H1439   1.111   .     S
C1169  H1189   1.111   .     S
C1169  H1190   1.109   .     S
C1169  H1437   1.108   .     S
C1170  C1177   1.520   .     S
C1170  C1172   1.529   .     S
C1170  H1199   1.102   .     S
C1171  C424    1.387   1_556 S
C1172  H1197   1.110   .     S
C1172  H1196   1.111   .     S
C1172  H1195   1.111   .     S
C1173  H1204   1.097   .     S
C1173  H1203   1.110   .     S
C1174  H1202   1.111   .     S
C1174  H1200   1.106   .     S
C1174  H1201   1.105   .     S
C1174  C1419   1.536   .     S
C1175  H1209   1.105   .     S
C1175  H1210   1.113   .     S
C1175  C1422   1.525   .     S
C1175  C1425   1.561   .     S
C1176  H1207   1.104   .     S
C1176  H1206   1.095   .     S
C1178  C1419   1.554   .     S
C1178  C1425   1.397   .     S
C1180  O1225   1.286   .     A
C1180  O1227   1.286   .     A
C1181  O1226   1.291   .     A
C1181  O1228   1.282   .     A
C1182  H1183   1.080   .     S
H1198  C1416   1.110   .     S
H1208  C1012   1.111   1_655 S
H1212  N1056   1.029   1_655 S
N1219  Zn1230  2.013   .     S
N1219  H1047   1.029   1_655 S
N1219  N1056   1.312   1_655 S
N1220  Zn1229  2.013   .     S
O1221  Zn1229  2.013   .     S
O1222  Zn1230  2.013   .     S
O1223  Zn1230  2.040   .     S
O1224  Zn1229  2.040   .     S
O1225  Zn1229  2.017   .     S
O1226  Zn1230  2.017   .     S
O1227  Zn1230  2.018   .     S
O1228  Zn1229  2.018   .     S
C1231  O1305   1.298   .     A
C1231  O1303   1.276   .     A
C1231  C1260   1.438   .     S
C1232  H1276   1.082   .     S
C1232  C1243   1.389   .     A
C1232  C1234   1.380   .     A
C1233  C1263   1.434   .     S
C1233  C1264   1.388   .     A
C1233  C1235   1.407   .     A
C1234  C1236   1.406   .     A
C1234  C1262   1.433   .     S
C1235  C1246   1.527   .     S
C1235  C1237   1.407   .     A
C1236  C1248   1.517   .     S
C1236  C1238   1.411   .     A
C1237  C1244   1.400   .     A
C1237  C1239   1.415   .     A
C1238  C1245   1.406   .     A
C1238  C1240   1.415   .     A
C1239  C1241   1.417   .     A
C1240  C1243   1.417   .     A
C1240  C501    1.404   1_556 S
C1241  C1264   1.392   .     A
C1241  C1259   1.412   .     A
C1242  O1304   1.281   .     A
C1242  O1306   1.293   .     A
C1242  C1261   1.438   .     S
C1243  C1253   1.410   .     A
C1244  H1269   1.068   .     S
C1245  H1270   1.079   .     S
C1245  C521    1.390   1_556 S
C1246  C1247   1.525   .     S
C1246  H1298   1.108   .     S
C1246  H1297   1.108   .     S
C1247  H1296   1.098   .     S
C1247  H1287   1.108   .     S
C1247  H803    1.106   1_565 S
C1248  H1267   1.106   .     S
C1248  C1249   1.528   .     S
C1248  H1268   1.103   .     S
C1249  H1266   1.105   .     S
C1249  H1299   1.107   .     S
C1249  H1300   1.111   .     S
C1250  H1274   1.105   .     S
C1250  C1253   1.514   .     S
C1250  C1251   1.523   .     S
C1250  H783    1.111   1_565 S
C1251  H1271   1.111   .     S
C1251  H1272   1.109   .     S
C1251  H781    1.108   1_565 S
C1252  C1259   1.520   .     S
C1252  C1254   1.529   .     S
C1252  H1281   1.102   .     S
C1253  C506    1.387   1_556 S
C1254  H1279   1.110   .     S
C1254  H1278   1.111   .     S
C1254  H1277   1.111   .     S
C1255  H1286   1.097   .     S
C1255  H1285   1.110   .     S
C1256  H1284   1.111   .     S
C1256  H1282   1.106   .     S
C1256  H1283   1.105   .     S
C1256  C763    1.536   1_565 S
C1257  H1291   1.105   .     S
C1257  H1292   1.113   .     S
C1257  C766    1.525   1_565 S
C1257  C769    1.561   1_565 S
C1258  H1289   1.104   .     S
C1258  H1288   1.095   .     S
C1258  H1454   1.111   1_455 S
C1260  C763    1.554   1_565 S
C1260  C769    1.397   1_565 S
C1262  O1307   1.286   .     A
C1262  O1309   1.286   .     A
C1263  O1308   1.291   .     A
C1263  O1310   1.282   .     A
C1264  H1265   1.080   .     S
H1280  C760    1.110   1_565 S
H1290  C1340   1.111   .     S
H1293  N1465   1.029   1_455 S
H1294  N1384   1.029   .     S
N1301  Zn1312  2.013   .     S
N1301  H1375   1.029   .     S
N1301  N1384   1.312   .     S
N1302  Zn1311  2.013   .     S
N1302  N1465   1.312   1_455 S
N1302  H1458   1.029   1_455 S
O1303  Zn1311  2.013   .     S
O1304  Zn1312  2.013   .     S
O1305  Zn1312  2.040   .     S
O1306  Zn1311  2.040   .     S
O1307  Zn1311  2.017   .     S
O1308  Zn1312  2.017   .     S
O1309  Zn1312  2.018   .     S
O1310  Zn1311  2.018   .     S
C1313  O1387   1.298   .     A
C1313  O1385   1.276   .     A
C1313  C1342   1.438   .     S
C1314  H1358   1.082   .     S
C1314  C1325   1.389   .     A
C1314  C1316   1.380   .     A
C1315  C1345   1.434   .     S
C1315  C1346   1.388   .     A
C1315  C1317   1.407   .     A
C1316  C1318   1.406   .     A
C1316  C1344   1.433   .     S
C1317  C1328   1.527   .     S
C1317  C1319   1.407   .     A
C1318  C1330   1.517   .     S
C1318  C1320   1.411   .     A
C1319  C1326   1.400   .     A
C1319  C1321   1.415   .     A
C1320  C1327   1.406   .     A
C1320  C1322   1.415   .     A
C1321  C1323   1.417   .     A
C1322  C1325   1.417   .     A
C1322  C583    1.404   1_556 S
C1323  C1346   1.392   .     A
C1323  C1341   1.412   .     A
C1324  O1386   1.281   .     A
C1324  O1388   1.293   .     A
C1324  C1343   1.438   .     S
C1325  C1335   1.410   .     A
C1326  H1351   1.068   .     S
C1327  H1352   1.079   .     S
C1327  C603    1.390   1_556 S
C1328  C1329   1.525   .     S
C1328  H1380   1.108   .     S
C1328  H1379   1.108   .     S
C1329  H1378   1.098   .     S
C1329  H1369   1.108   .     S
C1329  H885    1.106   1_565 S
C1330  H1349   1.106   .     S
C1330  C1331   1.528   .     S
C1330  H1350   1.103   .     S
C1331  H1348   1.105   .     S
C1331  H1381   1.107   .     S
C1331  H1382   1.111   .     S
C1332  H1356   1.105   .     S
C1332  C1335   1.514   .     S
C1332  C1333   1.523   .     S
C1332  H865    1.111   1_565 S
C1333  H1353   1.111   .     S
C1333  H1354   1.109   .     S
C1333  H863    1.108   1_565 S
C1334  C1341   1.520   .     S
C1334  C1336   1.529   .     S
C1334  H1363   1.102   .     S
C1335  C588    1.387   1_556 S
C1336  H1361   1.110   .     S
C1336  H1360   1.111   .     S
C1336  H1359   1.111   .     S
C1337  H1368   1.097   .     S
C1337  H1367   1.110   .     S
C1338  H1366   1.111   .     S
C1338  H1364   1.106   .     S
C1338  H1365   1.105   .     S
C1338  C845    1.536   1_565 S
C1339  H1373   1.105   .     S
C1339  H1374   1.113   .     S
C1339  C848    1.525   1_565 S
C1339  C851    1.561   1_565 S
C1340  H1371   1.104   .     S
C1340  H1370   1.095   .     S
C1342  C845    1.554   1_565 S
C1342  C851    1.397   1_565 S
C1344  O1389   1.286   .     A
C1344  O1391   1.286   .     A
C1345  O1390   1.291   .     A
C1345  O1392   1.282   .     A
C1346  H1347   1.080   .     S
H1362  C842    1.110   1_565 S
H1372  C1422   1.111   .     S
H1376  N1466   1.029   .     S
N1383  Zn1394  2.013   .     S
N1383  H1457   1.029   .     S
N1383  N1466   1.312   .     S
N1384  Zn1393  2.013   .     S
O1385  Zn1393  2.013   .     S
O1386  Zn1394  2.013   .     S
O1387  Zn1394  2.040   .     S
O1388  Zn1393  2.040   .     S
O1389  Zn1393  2.017   .     S
O1390  Zn1394  2.017   .     S
O1391  Zn1394  2.018   .     S
O1392  Zn1393  2.018   .     S
C1395  O1469   1.298   .     A
C1395  O1467   1.276   .     A
C1395  C1424   1.438   .     S
C1396  H1440   1.082   .     S
C1396  C1407   1.389   .     A
C1396  C1398   1.380   .     A
C1397  C1427   1.434   .     S
C1397  C1428   1.388   .     A
C1397  C1399   1.407   .     A
C1398  C1400   1.406   .     A
C1398  C1426   1.433   .     S
C1399  C1410   1.527   .     S
C1399  C1401   1.407   .     A
C1400  C1412   1.517   .     S
C1400  C1402   1.411   .     A
C1401  C1408   1.400   .     A
C1401  C1403   1.415   .     A
C1402  C1409   1.406   .     A
C1402  C1404   1.415   .     A
C1403  C1405   1.417   .     A
C1404  C1407   1.417   .     A
C1404  C665    1.404   1_556 S
C1405  C1428   1.392   .     A
C1405  C1423   1.412   .     A
C1406  O1468   1.281   .     A
C1406  O1470   1.293   .     A
C1406  C1425   1.438   .     S
C1407  C1417   1.410   .     A
C1408  H1433   1.068   .     S
C1409  H1434   1.079   .     S
C1409  C685    1.390   1_556 S
C1410  C1411   1.525   .     S
C1410  H1462   1.108   .     S
C1410  H1461   1.108   .     S
C1411  H1460   1.098   .     S
C1411  H1451   1.108   .     S
C1411  H967    1.106   1_565 S
C1412  H1431   1.106   .     S
C1412  C1413   1.528   .     S
C1412  H1432   1.103   .     S
C1413  H1430   1.105   .     S
C1413  H1463   1.107   .     S
C1413  H1464   1.111   .     S
C1414  H1438   1.105   .     S
C1414  C1417   1.514   .     S
C1414  C1415   1.523   .     S
C1414  H947    1.111   1_565 S
C1415  H1435   1.111   .     S
C1415  H1436   1.109   .     S
C1415  H945    1.108   1_565 S
C1416  C1423   1.520   .     S
C1416  C1418   1.529   .     S
C1416  H1445   1.102   .     S
C1417  C670    1.387   1_556 S
C1418  H1443   1.110   .     S
C1418  H1442   1.111   .     S
C1418  H1441   1.111   .     S
C1419  H1450   1.097   .     S
C1419  H1449   1.110   .     S
C1420  H1448   1.111   .     S
C1420  H1446   1.106   .     S
C1420  H1447   1.105   .     S
C1420  C927    1.536   1_565 S
C1421  H1455   1.105   .     S
C1421  H1456   1.113   .     S
C1421  C930    1.525   1_565 S
C1421  C933    1.561   1_565 S
C1422  H1453   1.104   .     S
C1422  H1452   1.095   .     S
C1424  C927    1.554   1_565 S
C1424  C933    1.397   1_565 S
C1426  O1471   1.286   .     A
C1426  O1473   1.286   .     A
C1427  O1472   1.291   .     A
C1427  O1474   1.282   .     A
C1428  H1429   1.080   .     S
H1444  C924    1.110   1_565 S
H1454  C1258   1.111   1_655 S
H1458  N1302   1.029   1_655 S
N1465  Zn1476  2.013   .     S
N1465  H1293   1.029   1_655 S
N1465  N1302   1.312   1_655 S
N1466  Zn1475  2.013   .     S
O1467  Zn1475  2.013   .     S
O1468  Zn1476  2.013   .     S
O1469  Zn1476  2.040   .     S
O1470  Zn1475  2.040   .     S
O1471  Zn1475  2.017   .     S
O1472  Zn1476  2.017   .     S
O1473  Zn1476  2.018   .     S
O1474  Zn1475  2.018   .     S
