data_str_m3_o10_o16_pcu_sym.10
_audit_creation_date              2020-01-03
_audit_creation_method            'Materials Studio'
_symmetry_space_group_name_H-M    'P1'
_symmetry_Int_Tables_number       1
_symmetry_cell_setting            triclinic
loop_
_symmetry_equiv_pos_as_xyz
  x,y,z
_cell_length_a                    23.7347
_cell_length_b                    25.6744
_cell_length_c                    24.0863
_cell_angle_alpha                 93.9730
_cell_angle_beta                  101.6871
_cell_angle_gamma                 93.5676
loop_
_atom_site_label
_atom_site_type_symbol
_atom_site_fract_x
_atom_site_fract_y
_atom_site_fract_z
_atom_site_U_iso_or_equiv
_atom_site_adp_type
_atom_site_occupancy
C1     C     0.01463   0.26474   0.24878   0.00000  Uiso   1.00
C2     C     0.05199   0.16672   0.41666   0.00000  Uiso   1.00
C3     C     0.02238   0.31927   0.24836   0.00000  Uiso   1.00
C4     C     0.03518   0.16764   0.35520   0.00000  Uiso   1.00
C5     C     0.31119   0.01413   0.25249   0.00000  Uiso   1.00
C6     C     0.31875   0.06860   0.25142   0.00000  Uiso   1.00
C7     C     0.29724   0.16225   0.14465   0.00000  Uiso   1.00
C8     C     0.26440   0.08903   0.00096   0.00000  Uiso   1.00
C9     C     0.27522   0.15011   0.08414   0.00000  Uiso   1.00
C10    C     0.02475   0.19826   0.45155   0.00000  Uiso   1.00
C11    C     0.04826   0.20743   0.00930   0.00000  Uiso   1.00
C12    C     0.12931   0.15730   0.49643   0.00000  Uiso   1.00
C13    C     0.10107   0.18851   0.03158   0.00000  Uiso   1.00
C14    C     0.09996   0.14041   0.44081   0.00000  Uiso   1.00
C15    C     0.18616   0.14315   0.01416   0.00000  Uiso   1.00
C16    C     0.20827   0.10400   0.48184   0.00000  Uiso   1.00
C17    C     0.17381   0.08055   0.43125   0.00000  Uiso   1.00
C18    C     0.12039   0.09915   0.41033   0.00000  Uiso   1.00
C19    C     0.22225   0.16846   0.06237   0.00000  Uiso   1.00
C20    C     0.29743   0.11124   0.05288   0.00000  Uiso   1.00
H21    H     0.00523   0.09632   0.06983   0.00000  Uiso   1.00
H22    H     0.09565   0.08176   0.36979   0.00000  Uiso   1.00
H23    H     0.06452   0.00267   0.24450   0.00000  Uiso   1.00
H24    H     0.24596   0.27731   0.38160   0.00000  Uiso   1.00
H25    H     0.26907   0.33074   0.25645   0.00000  Uiso   1.00
H26    H     0.15469   0.12922   0.20246   0.00000  Uiso   1.00
H27    H     0.18923   0.04966   0.40658   0.00000  Uiso   1.00
H28    H     0.28168   0.05887   0.47700   0.00000  Uiso   1.00
H29    H     0.20876   0.20122   0.08573   0.00000  Uiso   1.00
H30    H     0.31982   0.21726   0.43390   0.00000  Uiso   1.00
H31    H     0.11827   0.19772   0.07648   0.00000  Uiso   1.00
H32    H     0.02695   0.23131   0.03634   0.00000  Uiso   1.00
N33    N     0.14493   0.15223   0.23543   0.00000  Uiso   1.00
N34    N     0.18840   0.18110   0.26458   0.00000  Uiso   1.00
O35    O     0.29769   0.24629   0.25358   0.00000  Uiso   1.00
O36    O     0.18913   0.18118   0.37435   0.00000  Uiso   1.00
O37    O     0.24843   0.25773   0.34536   0.00000  Uiso   1.00
O38    O     0.05742   0.23704   0.24424   0.00000  Uiso   1.00
O39    O     0.31490   0.17358   0.33380   0.00000  Uiso   1.00
O40    O     0.07463   0.16433   0.32446   0.00000  Uiso   1.00
O41    O     0.27592   0.09629   0.25577   0.00000  Uiso   1.00
O42    O     0.03565   0.08704   0.24643   0.00000  Uiso   1.00
O43    O     0.25870   0.16901   0.17554   0.00000  Uiso   1.00
O44    O     0.01843   0.15976   0.16620   0.00000  Uiso   1.00
O45    O     0.13843   0.25090   0.32559   0.00000  Uiso   1.00
S46    S     0.18796   0.21731   0.32800   0.00000  Uiso   1.00
Zn47   Zn    0.27119   0.17284   0.25624   0.00000  Uiso   1.00
Zn48   Zn    0.06214   0.16049   0.24377   0.00000  Uiso   1.00
C49    C     0.34796   0.26474   0.24878   0.00000  Uiso   1.00
C50    C     0.38532   0.16672   0.41666   0.00000  Uiso   1.00
C51    C     0.35571   0.31927   0.24836   0.00000  Uiso   1.00
C52    C     0.36851   0.16764   0.35520   0.00000  Uiso   1.00
C53    C     0.64452   0.01413   0.25249   0.00000  Uiso   1.00
C54    C     0.65208   0.06860   0.25142   0.00000  Uiso   1.00
C55    C     0.63057   0.16225   0.14465   0.00000  Uiso   1.00
C56    C     0.59774   0.08903   0.00096   0.00000  Uiso   1.00
C57    C     0.60855   0.15011   0.08414   0.00000  Uiso   1.00
C58    C     0.35808   0.19826   0.45155   0.00000  Uiso   1.00
C59    C     0.38159   0.20743   0.00930   0.00000  Uiso   1.00
C60    C     0.46264   0.15730   0.49643   0.00000  Uiso   1.00
C61    C     0.43440   0.18851   0.03158   0.00000  Uiso   1.00
C62    C     0.43329   0.14041   0.44081   0.00000  Uiso   1.00
C63    C     0.51949   0.14315   0.01416   0.00000  Uiso   1.00
C64    C     0.54160   0.10400   0.48184   0.00000  Uiso   1.00
C65    C     0.50715   0.08055   0.43125   0.00000  Uiso   1.00
C66    C     0.45372   0.09915   0.41033   0.00000  Uiso   1.00
C67    C     0.55558   0.16846   0.06237   0.00000  Uiso   1.00
C68    C     0.63077   0.11124   0.05288   0.00000  Uiso   1.00
H69    H     0.33856   0.09632   0.06983   0.00000  Uiso   1.00
H70    H     0.42899   0.08176   0.36979   0.00000  Uiso   1.00
H71    H     0.39786   0.00267   0.24450   0.00000  Uiso   1.00
H72    H     0.57929   0.27731   0.38160   0.00000  Uiso   1.00
H73    H     0.60241   0.33074   0.25645   0.00000  Uiso   1.00
H74    H     0.48802   0.12922   0.20246   0.00000  Uiso   1.00
H75    H     0.52257   0.04966   0.40658   0.00000  Uiso   1.00
H76    H     0.61501   0.05887   0.47700   0.00000  Uiso   1.00
H77    H     0.54209   0.20122   0.08573   0.00000  Uiso   1.00
H78    H     0.65316   0.21726   0.43390   0.00000  Uiso   1.00
H79    H     0.45160   0.19772   0.07648   0.00000  Uiso   1.00
H80    H     0.36028   0.23131   0.03634   0.00000  Uiso   1.00
N81    N     0.47827   0.15223   0.23543   0.00000  Uiso   1.00
N82    N     0.52173   0.18110   0.26458   0.00000  Uiso   1.00
O83    O     0.63102   0.24629   0.25358   0.00000  Uiso   1.00
O84    O     0.52246   0.18118   0.37435   0.00000  Uiso   1.00
O85    O     0.58176   0.25773   0.34536   0.00000  Uiso   1.00
O86    O     0.39075   0.23704   0.24424   0.00000  Uiso   1.00
O87    O     0.64823   0.17358   0.33380   0.00000  Uiso   1.00
O88    O     0.40796   0.16433   0.32446   0.00000  Uiso   1.00
O89    O     0.60925   0.09629   0.25577   0.00000  Uiso   1.00
O90    O     0.36898   0.08704   0.24643   0.00000  Uiso   1.00
O91    O     0.59204   0.16901   0.17554   0.00000  Uiso   1.00
O92    O     0.35177   0.15976   0.16620   0.00000  Uiso   1.00
O93    O     0.47176   0.25090   0.32559   0.00000  Uiso   1.00
S94    S     0.52129   0.21731   0.32800   0.00000  Uiso   1.00
Zn95   Zn    0.60453   0.17284   0.25624   0.00000  Uiso   1.00
Zn96   Zn    0.39547   0.16049   0.24377   0.00000  Uiso   1.00
C97    C     0.68130   0.26474   0.24878   0.00000  Uiso   1.00
C98    C     0.71866   0.16672   0.41666   0.00000  Uiso   1.00
C99    C     0.68904   0.31927   0.24836   0.00000  Uiso   1.00
C100   C     0.70185   0.16764   0.35520   0.00000  Uiso   1.00
C101   C     0.97786   0.01413   0.25249   0.00000  Uiso   1.00
C102   C     0.98542   0.06860   0.25142   0.00000  Uiso   1.00
C103   C     0.96390   0.16225   0.14465   0.00000  Uiso   1.00
C104   C     0.93107   0.08903   0.00096   0.00000  Uiso   1.00
C105   C     0.94189   0.15011   0.08414   0.00000  Uiso   1.00
C106   C     0.69142   0.19826   0.45155   0.00000  Uiso   1.00
C107   C     0.71492   0.20743   0.00930   0.00000  Uiso   1.00
C108   C     0.79598   0.15730   0.49643   0.00000  Uiso   1.00
C109   C     0.76774   0.18851   0.03158   0.00000  Uiso   1.00
C110   C     0.76662   0.14041   0.44081   0.00000  Uiso   1.00
C111   C     0.85283   0.14315   0.01416   0.00000  Uiso   1.00
C112   C     0.87493   0.10400   0.48184   0.00000  Uiso   1.00
C113   C     0.84048   0.08055   0.43125   0.00000  Uiso   1.00
C114   C     0.78706   0.09915   0.41033   0.00000  Uiso   1.00
C115   C     0.88891   0.16846   0.06237   0.00000  Uiso   1.00
C116   C     0.96410   0.11124   0.05288   0.00000  Uiso   1.00
H117   H     0.67190   0.09632   0.06983   0.00000  Uiso   1.00
H118   H     0.76232   0.08176   0.36979   0.00000  Uiso   1.00
H119   H     0.73119   0.00267   0.24450   0.00000  Uiso   1.00
H120   H     0.91263   0.27731   0.38160   0.00000  Uiso   1.00
H121   H     0.93574   0.33074   0.25645   0.00000  Uiso   1.00
H122   H     0.82136   0.12922   0.20246   0.00000  Uiso   1.00
H123   H     0.85590   0.04966   0.40658   0.00000  Uiso   1.00
H124   H     0.94835   0.05887   0.47700   0.00000  Uiso   1.00
H125   H     0.87543   0.20122   0.08573   0.00000  Uiso   1.00
H126   H     0.98649   0.21726   0.43390   0.00000  Uiso   1.00
H127   H     0.78493   0.19772   0.07648   0.00000  Uiso   1.00
H128   H     0.69361   0.23131   0.03634   0.00000  Uiso   1.00
N129   N     0.81160   0.15223   0.23543   0.00000  Uiso   1.00
N130   N     0.85507   0.18110   0.26458   0.00000  Uiso   1.00
O131   O     0.96435   0.24629   0.25358   0.00000  Uiso   1.00
O132   O     0.85579   0.18118   0.37435   0.00000  Uiso   1.00
O133   O     0.91509   0.25773   0.34536   0.00000  Uiso   1.00
O134   O     0.72408   0.23704   0.24424   0.00000  Uiso   1.00
O135   O     0.98157   0.17358   0.33380   0.00000  Uiso   1.00
O136   O     0.74130   0.16433   0.32446   0.00000  Uiso   1.00
O137   O     0.94258   0.09629   0.25577   0.00000  Uiso   1.00
O138   O     0.70231   0.08704   0.24643   0.00000  Uiso   1.00
O139   O     0.92537   0.16901   0.17554   0.00000  Uiso   1.00
O140   O     0.68510   0.15976   0.16620   0.00000  Uiso   1.00
O141   O     0.80509   0.25090   0.32559   0.00000  Uiso   1.00
S142   S     0.85463   0.21731   0.32800   0.00000  Uiso   1.00
Zn143  Zn    0.93786   0.17284   0.25624   0.00000  Uiso   1.00
Zn144  Zn    0.72881   0.16049   0.24377   0.00000  Uiso   1.00
C145   C     0.01463   0.59808   0.24878   0.00000  Uiso   1.00
C146   C     0.05199   0.50005   0.41666   0.00000  Uiso   1.00
C147   C     0.02238   0.65260   0.24836   0.00000  Uiso   1.00
C148   C     0.03518   0.50097   0.35520   0.00000  Uiso   1.00
C149   C     0.31119   0.34747   0.25249   0.00000  Uiso   1.00
C150   C     0.31875   0.40194   0.25142   0.00000  Uiso   1.00
C151   C     0.29724   0.49558   0.14465   0.00000  Uiso   1.00
C152   C     0.26440   0.42236   0.00096   0.00000  Uiso   1.00
C153   C     0.27522   0.48344   0.08414   0.00000  Uiso   1.00
C154   C     0.02475   0.53159   0.45155   0.00000  Uiso   1.00
C155   C     0.04826   0.54076   0.00930   0.00000  Uiso   1.00
C156   C     0.12931   0.49064   0.49643   0.00000  Uiso   1.00
C157   C     0.10107   0.52185   0.03158   0.00000  Uiso   1.00
C158   C     0.09996   0.47374   0.44081   0.00000  Uiso   1.00
C159   C     0.18616   0.47648   0.01416   0.00000  Uiso   1.00
C160   C     0.20827   0.43734   0.48184   0.00000  Uiso   1.00
C161   C     0.17381   0.41388   0.43125   0.00000  Uiso   1.00
C162   C     0.12039   0.43248   0.41033   0.00000  Uiso   1.00
C163   C     0.22225   0.50179   0.06237   0.00000  Uiso   1.00
C164   C     0.29743   0.44457   0.05288   0.00000  Uiso   1.00
H165   H     0.00523   0.42965   0.06983   0.00000  Uiso   1.00
H166   H     0.09565   0.41509   0.36979   0.00000  Uiso   1.00
H167   H     0.06452   0.33600   0.24450   0.00000  Uiso   1.00
H168   H     0.24596   0.61065   0.38160   0.00000  Uiso   1.00
H169   H     0.26907   0.66408   0.25645   0.00000  Uiso   1.00
H170   H     0.15469   0.46256   0.20246   0.00000  Uiso   1.00
H171   H     0.18923   0.38299   0.40658   0.00000  Uiso   1.00
H172   H     0.28168   0.39220   0.47700   0.00000  Uiso   1.00
H173   H     0.20876   0.53455   0.08573   0.00000  Uiso   1.00
H174   H     0.31982   0.55059   0.43390   0.00000  Uiso   1.00
H175   H     0.11827   0.53105   0.07648   0.00000  Uiso   1.00
H176   H     0.02695   0.56464   0.03634   0.00000  Uiso   1.00
N177   N     0.14493   0.48556   0.23543   0.00000  Uiso   1.00
N178   N     0.18840   0.51444   0.26458   0.00000  Uiso   1.00
O179   O     0.29769   0.57963   0.25358   0.00000  Uiso   1.00
O180   O     0.18913   0.51452   0.37435   0.00000  Uiso   1.00
O181   O     0.24843   0.59106   0.34536   0.00000  Uiso   1.00
O182   O     0.05742   0.57038   0.24424   0.00000  Uiso   1.00
O183   O     0.31490   0.50691   0.33380   0.00000  Uiso   1.00
O184   O     0.07463   0.49766   0.32446   0.00000  Uiso   1.00
O185   O     0.27592   0.42962   0.25577   0.00000  Uiso   1.00
O186   O     0.03565   0.42037   0.24643   0.00000  Uiso   1.00
O187   O     0.25870   0.50234   0.17554   0.00000  Uiso   1.00
O188   O     0.01843   0.49309   0.16620   0.00000  Uiso   1.00
O189   O     0.13843   0.58423   0.32559   0.00000  Uiso   1.00
S190   S     0.18796   0.55064   0.32800   0.00000  Uiso   1.00
Zn191  Zn    0.27119   0.50618   0.25624   0.00000  Uiso   1.00
Zn192  Zn    0.06214   0.49382   0.24377   0.00000  Uiso   1.00
C193   C     0.34796   0.59808   0.24878   0.00000  Uiso   1.00
C194   C     0.38532   0.50005   0.41666   0.00000  Uiso   1.00
C195   C     0.35571   0.65260   0.24836   0.00000  Uiso   1.00
C196   C     0.36851   0.50097   0.35520   0.00000  Uiso   1.00
C197   C     0.64452   0.34747   0.25249   0.00000  Uiso   1.00
C198   C     0.65208   0.40194   0.25142   0.00000  Uiso   1.00
C199   C     0.63057   0.49558   0.14465   0.00000  Uiso   1.00
C200   C     0.59774   0.42236   0.00096   0.00000  Uiso   1.00
C201   C     0.60855   0.48344   0.08414   0.00000  Uiso   1.00
C202   C     0.35808   0.53159   0.45155   0.00000  Uiso   1.00
C203   C     0.38159   0.54076   0.00930   0.00000  Uiso   1.00
C204   C     0.46264   0.49064   0.49643   0.00000  Uiso   1.00
C205   C     0.43440   0.52185   0.03158   0.00000  Uiso   1.00
C206   C     0.43329   0.47374   0.44081   0.00000  Uiso   1.00
C207   C     0.51949   0.47648   0.01416   0.00000  Uiso   1.00
C208   C     0.54160   0.43734   0.48184   0.00000  Uiso   1.00
C209   C     0.50715   0.41388   0.43125   0.00000  Uiso   1.00
C210   C     0.45372   0.43248   0.41033   0.00000  Uiso   1.00
C211   C     0.55558   0.50179   0.06237   0.00000  Uiso   1.00
C212   C     0.63077   0.44457   0.05288   0.00000  Uiso   1.00
H213   H     0.33856   0.42965   0.06983   0.00000  Uiso   1.00
H214   H     0.42899   0.41509   0.36979   0.00000  Uiso   1.00
H215   H     0.39786   0.33600   0.24450   0.00000  Uiso   1.00
H216   H     0.57929   0.61065   0.38160   0.00000  Uiso   1.00
H217   H     0.60241   0.66408   0.25645   0.00000  Uiso   1.00
H218   H     0.48802   0.46256   0.20246   0.00000  Uiso   1.00
H219   H     0.52257   0.38299   0.40658   0.00000  Uiso   1.00
H220   H     0.61501   0.39220   0.47700   0.00000  Uiso   1.00
H221   H     0.54209   0.53455   0.08573   0.00000  Uiso   1.00
H222   H     0.65316   0.55059   0.43390   0.00000  Uiso   1.00
H223   H     0.45160   0.53105   0.07648   0.00000  Uiso   1.00
H224   H     0.36028   0.56464   0.03634   0.00000  Uiso   1.00
N225   N     0.47827   0.48556   0.23543   0.00000  Uiso   1.00
N226   N     0.52173   0.51444   0.26458   0.00000  Uiso   1.00
O227   O     0.63102   0.57963   0.25358   0.00000  Uiso   1.00
O228   O     0.52246   0.51452   0.37435   0.00000  Uiso   1.00
O229   O     0.58176   0.59106   0.34536   0.00000  Uiso   1.00
O230   O     0.39075   0.57038   0.24424   0.00000  Uiso   1.00
O231   O     0.64823   0.50691   0.33380   0.00000  Uiso   1.00
O232   O     0.40796   0.49766   0.32446   0.00000  Uiso   1.00
O233   O     0.60925   0.42962   0.25577   0.00000  Uiso   1.00
O234   O     0.36898   0.42037   0.24643   0.00000  Uiso   1.00
O235   O     0.59204   0.50234   0.17554   0.00000  Uiso   1.00
O236   O     0.35177   0.49309   0.16620   0.00000  Uiso   1.00
O237   O     0.47176   0.58423   0.32559   0.00000  Uiso   1.00
S238   S     0.52129   0.55064   0.32800   0.00000  Uiso   1.00
Zn239  Zn    0.60453   0.50618   0.25624   0.00000  Uiso   1.00
Zn240  Zn    0.39547   0.49382   0.24377   0.00000  Uiso   1.00
C241   C     0.68130   0.59808   0.24878   0.00000  Uiso   1.00
C242   C     0.71866   0.50005   0.41666   0.00000  Uiso   1.00
C243   C     0.68904   0.65260   0.24836   0.00000  Uiso   1.00
C244   C     0.70185   0.50097   0.35520   0.00000  Uiso   1.00
C245   C     0.97786   0.34747   0.25249   0.00000  Uiso   1.00
C246   C     0.98542   0.40194   0.25142   0.00000  Uiso   1.00
C247   C     0.96390   0.49558   0.14465   0.00000  Uiso   1.00
C248   C     0.93107   0.42236   0.00096   0.00000  Uiso   1.00
C249   C     0.94189   0.48344   0.08414   0.00000  Uiso   1.00
C250   C     0.69142   0.53159   0.45155   0.00000  Uiso   1.00
C251   C     0.71492   0.54076   0.00930   0.00000  Uiso   1.00
C252   C     0.79598   0.49064   0.49643   0.00000  Uiso   1.00
C253   C     0.76774   0.52185   0.03158   0.00000  Uiso   1.00
C254   C     0.76662   0.47374   0.44081   0.00000  Uiso   1.00
C255   C     0.85283   0.47648   0.01416   0.00000  Uiso   1.00
C256   C     0.87493   0.43734   0.48184   0.00000  Uiso   1.00
C257   C     0.84048   0.41388   0.43125   0.00000  Uiso   1.00
C258   C     0.78706   0.43248   0.41033   0.00000  Uiso   1.00
C259   C     0.88891   0.50179   0.06237   0.00000  Uiso   1.00
C260   C     0.96410   0.44457   0.05288   0.00000  Uiso   1.00
H261   H     0.67190   0.42965   0.06983   0.00000  Uiso   1.00
H262   H     0.76232   0.41509   0.36979   0.00000  Uiso   1.00
H263   H     0.73119   0.33600   0.24450   0.00000  Uiso   1.00
H264   H     0.91263   0.61065   0.38160   0.00000  Uiso   1.00
H265   H     0.93574   0.66408   0.25645   0.00000  Uiso   1.00
H266   H     0.82136   0.46256   0.20246   0.00000  Uiso   1.00
H267   H     0.85590   0.38299   0.40658   0.00000  Uiso   1.00
H268   H     0.94835   0.39220   0.47700   0.00000  Uiso   1.00
H269   H     0.87543   0.53455   0.08573   0.00000  Uiso   1.00
H270   H     0.98649   0.55059   0.43390   0.00000  Uiso   1.00
H271   H     0.78493   0.53105   0.07648   0.00000  Uiso   1.00
H272   H     0.69361   0.56464   0.03634   0.00000  Uiso   1.00
N273   N     0.81160   0.48556   0.23543   0.00000  Uiso   1.00
N274   N     0.85507   0.51444   0.26458   0.00000  Uiso   1.00
O275   O     0.96435   0.57963   0.25358   0.00000  Uiso   1.00
O276   O     0.85579   0.51452   0.37435   0.00000  Uiso   1.00
O277   O     0.91509   0.59106   0.34536   0.00000  Uiso   1.00
O278   O     0.72408   0.57038   0.24424   0.00000  Uiso   1.00
O279   O     0.98157   0.50691   0.33380   0.00000  Uiso   1.00
O280   O     0.74130   0.49766   0.32446   0.00000  Uiso   1.00
O281   O     0.94258   0.42962   0.25577   0.00000  Uiso   1.00
O282   O     0.70231   0.42037   0.24643   0.00000  Uiso   1.00
O283   O     0.92537   0.50234   0.17554   0.00000  Uiso   1.00
O284   O     0.68510   0.49309   0.16620   0.00000  Uiso   1.00
O285   O     0.80509   0.58423   0.32559   0.00000  Uiso   1.00
S286   S     0.85463   0.55064   0.32800   0.00000  Uiso   1.00
Zn287  Zn    0.93786   0.50618   0.25624   0.00000  Uiso   1.00
Zn288  Zn    0.72881   0.49382   0.24377   0.00000  Uiso   1.00
C289   C     0.01463   0.93141   0.24878   0.00000  Uiso   1.00
C290   C     0.05199   0.83338   0.41666   0.00000  Uiso   1.00
C291   C     0.02238   0.98593   0.24836   0.00000  Uiso   1.00
C292   C     0.03518   0.83431   0.35520   0.00000  Uiso   1.00
C293   C     0.31119   0.68080   0.25249   0.00000  Uiso   1.00
C294   C     0.31875   0.73527   0.25142   0.00000  Uiso   1.00
C295   C     0.29724   0.82891   0.14465   0.00000  Uiso   1.00
C296   C     0.26440   0.75570   0.00096   0.00000  Uiso   1.00
C297   C     0.27522   0.81677   0.08414   0.00000  Uiso   1.00
C298   C     0.02475   0.86492   0.45155   0.00000  Uiso   1.00
C299   C     0.04826   0.87409   0.00930   0.00000  Uiso   1.00
C300   C     0.12931   0.82397   0.49643   0.00000  Uiso   1.00
C301   C     0.10107   0.85518   0.03158   0.00000  Uiso   1.00
C302   C     0.09996   0.80707   0.44081   0.00000  Uiso   1.00
C303   C     0.18616   0.80981   0.01416   0.00000  Uiso   1.00
C304   C     0.20827   0.77067   0.48184   0.00000  Uiso   1.00
C305   C     0.17381   0.74722   0.43125   0.00000  Uiso   1.00
C306   C     0.12039   0.76582   0.41033   0.00000  Uiso   1.00
C307   C     0.22225   0.83512   0.06237   0.00000  Uiso   1.00
C308   C     0.29743   0.77791   0.05288   0.00000  Uiso   1.00
H309   H     0.00523   0.76299   0.06983   0.00000  Uiso   1.00
H310   H     0.09565   0.74843   0.36979   0.00000  Uiso   1.00
H311   H     0.06452   0.66933   0.24450   0.00000  Uiso   1.00
H312   H     0.24596   0.94398   0.38160   0.00000  Uiso   1.00
H313   H     0.26907   0.99741   0.25645   0.00000  Uiso   1.00
H314   H     0.15469   0.79589   0.20246   0.00000  Uiso   1.00
H315   H     0.18923   0.71633   0.40658   0.00000  Uiso   1.00
H316   H     0.28168   0.72554   0.47700   0.00000  Uiso   1.00
H317   H     0.20876   0.86789   0.08573   0.00000  Uiso   1.00
H318   H     0.31982   0.88393   0.43390   0.00000  Uiso   1.00
H319   H     0.11827   0.86438   0.07648   0.00000  Uiso   1.00
H320   H     0.02695   0.89797   0.03634   0.00000  Uiso   1.00
N321   N     0.14493   0.81890   0.23543   0.00000  Uiso   1.00
N322   N     0.18840   0.84777   0.26458   0.00000  Uiso   1.00
O323   O     0.29769   0.91296   0.25358   0.00000  Uiso   1.00
O324   O     0.18913   0.84785   0.37435   0.00000  Uiso   1.00
O325   O     0.24843   0.92439   0.34536   0.00000  Uiso   1.00
O326   O     0.05742   0.90371   0.24424   0.00000  Uiso   1.00
O327   O     0.31490   0.84024   0.33380   0.00000  Uiso   1.00
O328   O     0.07463   0.83099   0.32446   0.00000  Uiso   1.00
O329   O     0.27592   0.76296   0.25577   0.00000  Uiso   1.00
O330   O     0.03565   0.75371   0.24643   0.00000  Uiso   1.00
O331   O     0.25870   0.83567   0.17554   0.00000  Uiso   1.00
O332   O     0.01843   0.82642   0.16620   0.00000  Uiso   1.00
O333   O     0.13843   0.91757   0.32559   0.00000  Uiso   1.00
S334   S     0.18796   0.88398   0.32800   0.00000  Uiso   1.00
Zn335  Zn    0.27119   0.83951   0.25624   0.00000  Uiso   1.00
Zn336  Zn    0.06214   0.82716   0.24377   0.00000  Uiso   1.00
C337   C     0.34796   0.93141   0.24878   0.00000  Uiso   1.00
C338   C     0.38532   0.83338   0.41666   0.00000  Uiso   1.00
C339   C     0.35571   0.98593   0.24836   0.00000  Uiso   1.00
C340   C     0.36851   0.83431   0.35520   0.00000  Uiso   1.00
C341   C     0.64452   0.68080   0.25249   0.00000  Uiso   1.00
C342   C     0.65208   0.73527   0.25142   0.00000  Uiso   1.00
C343   C     0.63057   0.82891   0.14465   0.00000  Uiso   1.00
C344   C     0.59774   0.75570   0.00096   0.00000  Uiso   1.00
C345   C     0.60855   0.81677   0.08414   0.00000  Uiso   1.00
C346   C     0.35808   0.86492   0.45155   0.00000  Uiso   1.00
C347   C     0.38159   0.87409   0.00930   0.00000  Uiso   1.00
C348   C     0.46264   0.82397   0.49643   0.00000  Uiso   1.00
C349   C     0.43440   0.85518   0.03158   0.00000  Uiso   1.00
C350   C     0.43329   0.80707   0.44081   0.00000  Uiso   1.00
C351   C     0.51949   0.80981   0.01416   0.00000  Uiso   1.00
C352   C     0.54160   0.77067   0.48184   0.00000  Uiso   1.00
C353   C     0.50715   0.74722   0.43125   0.00000  Uiso   1.00
C354   C     0.45372   0.76582   0.41033   0.00000  Uiso   1.00
C355   C     0.55558   0.83512   0.06237   0.00000  Uiso   1.00
C356   C     0.63077   0.77791   0.05288   0.00000  Uiso   1.00
H357   H     0.33856   0.76299   0.06983   0.00000  Uiso   1.00
H358   H     0.42899   0.74843   0.36979   0.00000  Uiso   1.00
H359   H     0.39786   0.66933   0.24450   0.00000  Uiso   1.00
H360   H     0.57929   0.94398   0.38160   0.00000  Uiso   1.00
H361   H     0.60241   0.99741   0.25645   0.00000  Uiso   1.00
H362   H     0.48802   0.79589   0.20246   0.00000  Uiso   1.00
H363   H     0.52257   0.71633   0.40658   0.00000  Uiso   1.00
H364   H     0.61501   0.72554   0.47700   0.00000  Uiso   1.00
H365   H     0.54209   0.86789   0.08573   0.00000  Uiso   1.00
H366   H     0.65316   0.88393   0.43390   0.00000  Uiso   1.00
H367   H     0.45160   0.86438   0.07648   0.00000  Uiso   1.00
H368   H     0.36028   0.89797   0.03634   0.00000  Uiso   1.00
N369   N     0.47827   0.81890   0.23543   0.00000  Uiso   1.00
N370   N     0.52173   0.84777   0.26458   0.00000  Uiso   1.00
O371   O     0.63102   0.91296   0.25358   0.00000  Uiso   1.00
O372   O     0.52246   0.84785   0.37435   0.00000  Uiso   1.00
O373   O     0.58176   0.92439   0.34536   0.00000  Uiso   1.00
O374   O     0.39075   0.90371   0.24424   0.00000  Uiso   1.00
O375   O     0.64823   0.84024   0.33380   0.00000  Uiso   1.00
O376   O     0.40796   0.83099   0.32446   0.00000  Uiso   1.00
O377   O     0.60925   0.76296   0.25577   0.00000  Uiso   1.00
O378   O     0.36898   0.75371   0.24643   0.00000  Uiso   1.00
O379   O     0.59204   0.83567   0.17554   0.00000  Uiso   1.00
O380   O     0.35177   0.82642   0.16620   0.00000  Uiso   1.00
O381   O     0.47176   0.91757   0.32559   0.00000  Uiso   1.00
S382   S     0.52129   0.88398   0.32800   0.00000  Uiso   1.00
Zn383  Zn    0.60453   0.83951   0.25624   0.00000  Uiso   1.00
Zn384  Zn    0.39547   0.82716   0.24377   0.00000  Uiso   1.00
C385   C     0.68130   0.93141   0.24878   0.00000  Uiso   1.00
C386   C     0.71866   0.83338   0.41666   0.00000  Uiso   1.00
C387   C     0.68904   0.98593   0.24836   0.00000  Uiso   1.00
C388   C     0.70185   0.83431   0.35520   0.00000  Uiso   1.00
C389   C     0.97786   0.68080   0.25249   0.00000  Uiso   1.00
C390   C     0.98542   0.73527   0.25142   0.00000  Uiso   1.00
C391   C     0.96390   0.82891   0.14465   0.00000  Uiso   1.00
C392   C     0.93107   0.75570   0.00096   0.00000  Uiso   1.00
C393   C     0.94189   0.81677   0.08414   0.00000  Uiso   1.00
C394   C     0.69142   0.86492   0.45155   0.00000  Uiso   1.00
C395   C     0.71492   0.87409   0.00930   0.00000  Uiso   1.00
C396   C     0.79598   0.82397   0.49643   0.00000  Uiso   1.00
C397   C     0.76774   0.85518   0.03158   0.00000  Uiso   1.00
C398   C     0.76662   0.80707   0.44081   0.00000  Uiso   1.00
C399   C     0.85283   0.80981   0.01416   0.00000  Uiso   1.00
C400   C     0.87493   0.77067   0.48184   0.00000  Uiso   1.00
C401   C     0.84048   0.74722   0.43125   0.00000  Uiso   1.00
C402   C     0.78706   0.76582   0.41033   0.00000  Uiso   1.00
C403   C     0.88891   0.83512   0.06237   0.00000  Uiso   1.00
C404   C     0.96410   0.77791   0.05288   0.00000  Uiso   1.00
H405   H     0.67190   0.76299   0.06983   0.00000  Uiso   1.00
H406   H     0.76232   0.74843   0.36979   0.00000  Uiso   1.00
H407   H     0.73119   0.66933   0.24450   0.00000  Uiso   1.00
H408   H     0.91263   0.94398   0.38160   0.00000  Uiso   1.00
H409   H     0.93574   0.99741   0.25645   0.00000  Uiso   1.00
H410   H     0.82136   0.79589   0.20246   0.00000  Uiso   1.00
H411   H     0.85590   0.71633   0.40658   0.00000  Uiso   1.00
H412   H     0.94835   0.72554   0.47700   0.00000  Uiso   1.00
H413   H     0.87543   0.86789   0.08573   0.00000  Uiso   1.00
H414   H     0.98649   0.88393   0.43390   0.00000  Uiso   1.00
H415   H     0.78493   0.86438   0.07648   0.00000  Uiso   1.00
H416   H     0.69361   0.89797   0.03634   0.00000  Uiso   1.00
N417   N     0.81160   0.81890   0.23543   0.00000  Uiso   1.00
N418   N     0.85507   0.84777   0.26458   0.00000  Uiso   1.00
O419   O     0.96435   0.91296   0.25358   0.00000  Uiso   1.00
O420   O     0.85579   0.84785   0.37435   0.00000  Uiso   1.00
O421   O     0.91509   0.92439   0.34536   0.00000  Uiso   1.00
O422   O     0.72408   0.90371   0.24424   0.00000  Uiso   1.00
O423   O     0.98157   0.84024   0.33380   0.00000  Uiso   1.00
O424   O     0.74130   0.83099   0.32446   0.00000  Uiso   1.00
O425   O     0.94258   0.76296   0.25577   0.00000  Uiso   1.00
O426   O     0.70231   0.75371   0.24643   0.00000  Uiso   1.00
O427   O     0.92537   0.83567   0.17554   0.00000  Uiso   1.00
O428   O     0.68510   0.82642   0.16620   0.00000  Uiso   1.00
O429   O     0.80509   0.91757   0.32559   0.00000  Uiso   1.00
S430   S     0.85463   0.88398   0.32800   0.00000  Uiso   1.00
Zn431  Zn    0.93786   0.83951   0.25624   0.00000  Uiso   1.00
Zn432  Zn    0.72881   0.82716   0.24377   0.00000  Uiso   1.00
C433   C     0.01463   0.26474   0.74878   0.00000  Uiso   1.00
C434   C     0.05199   0.16672   0.91666   0.00000  Uiso   1.00
C435   C     0.02238   0.31927   0.74836   0.00000  Uiso   1.00
C436   C     0.03518   0.16764   0.85520   0.00000  Uiso   1.00
C437   C     0.31119   0.01413   0.75249   0.00000  Uiso   1.00
C438   C     0.31875   0.06860   0.75142   0.00000  Uiso   1.00
C439   C     0.29724   0.16225   0.64465   0.00000  Uiso   1.00
C440   C     0.26440   0.08903   0.50096   0.00000  Uiso   1.00
C441   C     0.27522   0.15011   0.58414   0.00000  Uiso   1.00
C442   C     0.02475   0.19826   0.95155   0.00000  Uiso   1.00
C443   C     0.04826   0.20743   0.50930   0.00000  Uiso   1.00
C444   C     0.12931   0.15730   0.99643   0.00000  Uiso   1.00
C445   C     0.10107   0.18851   0.53158   0.00000  Uiso   1.00
C446   C     0.09996   0.14041   0.94081   0.00000  Uiso   1.00
C447   C     0.18616   0.14315   0.51416   0.00000  Uiso   1.00
C448   C     0.20827   0.10400   0.98184   0.00000  Uiso   1.00
C449   C     0.17381   0.08055   0.93125   0.00000  Uiso   1.00
C450   C     0.12039   0.09915   0.91033   0.00000  Uiso   1.00
C451   C     0.22225   0.16846   0.56237   0.00000  Uiso   1.00
C452   C     0.29743   0.11124   0.55288   0.00000  Uiso   1.00
H453   H     0.00523   0.09632   0.56983   0.00000  Uiso   1.00
H454   H     0.09565   0.08176   0.86979   0.00000  Uiso   1.00
H455   H     0.06452   0.00267   0.74450   0.00000  Uiso   1.00
H456   H     0.24596   0.27731   0.88160   0.00000  Uiso   1.00
H457   H     0.26907   0.33074   0.75645   0.00000  Uiso   1.00
H458   H     0.15469   0.12922   0.70246   0.00000  Uiso   1.00
H459   H     0.18923   0.04966   0.90658   0.00000  Uiso   1.00
H460   H     0.28168   0.05887   0.97700   0.00000  Uiso   1.00
H461   H     0.20876   0.20122   0.58573   0.00000  Uiso   1.00
H462   H     0.31982   0.21726   0.93390   0.00000  Uiso   1.00
H463   H     0.11827   0.19772   0.57648   0.00000  Uiso   1.00
H464   H     0.02695   0.23131   0.53634   0.00000  Uiso   1.00
N465   N     0.14493   0.15223   0.73543   0.00000  Uiso   1.00
N466   N     0.18840   0.18110   0.76458   0.00000  Uiso   1.00
O467   O     0.29769   0.24629   0.75358   0.00000  Uiso   1.00
O468   O     0.18913   0.18118   0.87435   0.00000  Uiso   1.00
O469   O     0.24843   0.25773   0.84536   0.00000  Uiso   1.00
O470   O     0.05742   0.23704   0.74424   0.00000  Uiso   1.00
O471   O     0.31490   0.17358   0.83380   0.00000  Uiso   1.00
O472   O     0.07463   0.16433   0.82446   0.00000  Uiso   1.00
O473   O     0.27592   0.09629   0.75577   0.00000  Uiso   1.00
O474   O     0.03565   0.08704   0.74643   0.00000  Uiso   1.00
O475   O     0.25870   0.16901   0.67554   0.00000  Uiso   1.00
O476   O     0.01843   0.15976   0.66620   0.00000  Uiso   1.00
O477   O     0.13843   0.25090   0.82559   0.00000  Uiso   1.00
S478   S     0.18796   0.21731   0.82800   0.00000  Uiso   1.00
Zn479  Zn    0.27119   0.17284   0.75624   0.00000  Uiso   1.00
Zn480  Zn    0.06214   0.16049   0.74377   0.00000  Uiso   1.00
C481   C     0.34796   0.26474   0.74878   0.00000  Uiso   1.00
C482   C     0.38532   0.16672   0.91666   0.00000  Uiso   1.00
C483   C     0.35571   0.31927   0.74836   0.00000  Uiso   1.00
C484   C     0.36851   0.16764   0.85520   0.00000  Uiso   1.00
C485   C     0.64452   0.01413   0.75249   0.00000  Uiso   1.00
C486   C     0.65208   0.06860   0.75142   0.00000  Uiso   1.00
C487   C     0.63057   0.16225   0.64465   0.00000  Uiso   1.00
C488   C     0.59774   0.08903   0.50096   0.00000  Uiso   1.00
C489   C     0.60855   0.15011   0.58414   0.00000  Uiso   1.00
C490   C     0.35808   0.19826   0.95155   0.00000  Uiso   1.00
C491   C     0.38159   0.20743   0.50930   0.00000  Uiso   1.00
C492   C     0.46264   0.15730   0.99643   0.00000  Uiso   1.00
C493   C     0.43440   0.18851   0.53158   0.00000  Uiso   1.00
C494   C     0.43329   0.14041   0.94081   0.00000  Uiso   1.00
C495   C     0.51949   0.14315   0.51416   0.00000  Uiso   1.00
C496   C     0.54160   0.10400   0.98184   0.00000  Uiso   1.00
C497   C     0.50715   0.08055   0.93125   0.00000  Uiso   1.00
C498   C     0.45372   0.09915   0.91033   0.00000  Uiso   1.00
C499   C     0.55558   0.16846   0.56237   0.00000  Uiso   1.00
C500   C     0.63077   0.11124   0.55288   0.00000  Uiso   1.00
H501   H     0.33856   0.09632   0.56983   0.00000  Uiso   1.00
H502   H     0.42899   0.08176   0.86979   0.00000  Uiso   1.00
H503   H     0.39786   0.00267   0.74450   0.00000  Uiso   1.00
H504   H     0.57929   0.27731   0.88160   0.00000  Uiso   1.00
H505   H     0.60241   0.33074   0.75645   0.00000  Uiso   1.00
H506   H     0.48802   0.12922   0.70246   0.00000  Uiso   1.00
H507   H     0.52257   0.04966   0.90658   0.00000  Uiso   1.00
H508   H     0.61501   0.05887   0.97700   0.00000  Uiso   1.00
H509   H     0.54209   0.20122   0.58573   0.00000  Uiso   1.00
H510   H     0.65316   0.21726   0.93390   0.00000  Uiso   1.00
H511   H     0.45160   0.19772   0.57648   0.00000  Uiso   1.00
H512   H     0.36028   0.23131   0.53634   0.00000  Uiso   1.00
N513   N     0.47827   0.15223   0.73543   0.00000  Uiso   1.00
N514   N     0.52173   0.18110   0.76458   0.00000  Uiso   1.00
O515   O     0.63102   0.24629   0.75358   0.00000  Uiso   1.00
O516   O     0.52246   0.18118   0.87435   0.00000  Uiso   1.00
O517   O     0.58176   0.25773   0.84536   0.00000  Uiso   1.00
O518   O     0.39075   0.23704   0.74424   0.00000  Uiso   1.00
O519   O     0.64823   0.17358   0.83380   0.00000  Uiso   1.00
O520   O     0.40796   0.16433   0.82446   0.00000  Uiso   1.00
O521   O     0.60925   0.09629   0.75577   0.00000  Uiso   1.00
O522   O     0.36898   0.08704   0.74643   0.00000  Uiso   1.00
O523   O     0.59204   0.16901   0.67554   0.00000  Uiso   1.00
O524   O     0.35177   0.15976   0.66620   0.00000  Uiso   1.00
O525   O     0.47176   0.25090   0.82559   0.00000  Uiso   1.00
S526   S     0.52129   0.21731   0.82800   0.00000  Uiso   1.00
Zn527  Zn    0.60453   0.17284   0.75624   0.00000  Uiso   1.00
Zn528  Zn    0.39547   0.16049   0.74377   0.00000  Uiso   1.00
C529   C     0.68130   0.26474   0.74878   0.00000  Uiso   1.00
C530   C     0.71866   0.16672   0.91666   0.00000  Uiso   1.00
C531   C     0.68904   0.31927   0.74836   0.00000  Uiso   1.00
C532   C     0.70185   0.16764   0.85520   0.00000  Uiso   1.00
C533   C     0.97786   0.01413   0.75249   0.00000  Uiso   1.00
C534   C     0.98542   0.06860   0.75142   0.00000  Uiso   1.00
C535   C     0.96390   0.16225   0.64465   0.00000  Uiso   1.00
C536   C     0.93107   0.08903   0.50096   0.00000  Uiso   1.00
C537   C     0.94189   0.15011   0.58414   0.00000  Uiso   1.00
C538   C     0.69142   0.19826   0.95155   0.00000  Uiso   1.00
C539   C     0.71492   0.20743   0.50930   0.00000  Uiso   1.00
C540   C     0.79598   0.15730   0.99643   0.00000  Uiso   1.00
C541   C     0.76774   0.18851   0.53158   0.00000  Uiso   1.00
C542   C     0.76662   0.14041   0.94081   0.00000  Uiso   1.00
C543   C     0.85283   0.14315   0.51416   0.00000  Uiso   1.00
C544   C     0.87493   0.10400   0.98184   0.00000  Uiso   1.00
C545   C     0.84048   0.08055   0.93125   0.00000  Uiso   1.00
C546   C     0.78706   0.09915   0.91033   0.00000  Uiso   1.00
C547   C     0.88891   0.16846   0.56237   0.00000  Uiso   1.00
C548   C     0.96410   0.11124   0.55288   0.00000  Uiso   1.00
H549   H     0.67190   0.09632   0.56983   0.00000  Uiso   1.00
H550   H     0.76232   0.08176   0.86979   0.00000  Uiso   1.00
H551   H     0.73119   0.00267   0.74450   0.00000  Uiso   1.00
H552   H     0.91263   0.27731   0.88160   0.00000  Uiso   1.00
H553   H     0.93574   0.33074   0.75645   0.00000  Uiso   1.00
H554   H     0.82136   0.12922   0.70246   0.00000  Uiso   1.00
H555   H     0.85590   0.04966   0.90658   0.00000  Uiso   1.00
H556   H     0.94835   0.05887   0.97700   0.00000  Uiso   1.00
H557   H     0.87543   0.20122   0.58573   0.00000  Uiso   1.00
H558   H     0.98649   0.21726   0.93390   0.00000  Uiso   1.00
H559   H     0.78493   0.19772   0.57648   0.00000  Uiso   1.00
H560   H     0.69361   0.23131   0.53634   0.00000  Uiso   1.00
N561   N     0.81160   0.15223   0.73543   0.00000  Uiso   1.00
N562   N     0.85507   0.18110   0.76458   0.00000  Uiso   1.00
O563   O     0.96435   0.24629   0.75358   0.00000  Uiso   1.00
O564   O     0.85579   0.18118   0.87435   0.00000  Uiso   1.00
O565   O     0.91509   0.25773   0.84536   0.00000  Uiso   1.00
O566   O     0.72408   0.23704   0.74424   0.00000  Uiso   1.00
O567   O     0.98157   0.17358   0.83380   0.00000  Uiso   1.00
O568   O     0.74130   0.16433   0.82446   0.00000  Uiso   1.00
O569   O     0.94258   0.09629   0.75577   0.00000  Uiso   1.00
O570   O     0.70231   0.08704   0.74643   0.00000  Uiso   1.00
O571   O     0.92537   0.16901   0.67554   0.00000  Uiso   1.00
O572   O     0.68510   0.15976   0.66620   0.00000  Uiso   1.00
O573   O     0.80509   0.25090   0.82559   0.00000  Uiso   1.00
S574   S     0.85463   0.21731   0.82800   0.00000  Uiso   1.00
Zn575  Zn    0.93786   0.17284   0.75624   0.00000  Uiso   1.00
Zn576  Zn    0.72881   0.16049   0.74377   0.00000  Uiso   1.00
C577   C     0.01463   0.59808   0.74878   0.00000  Uiso   1.00
C578   C     0.05199   0.50005   0.91666   0.00000  Uiso   1.00
C579   C     0.02238   0.65260   0.74836   0.00000  Uiso   1.00
C580   C     0.03518   0.50097   0.85520   0.00000  Uiso   1.00
C581   C     0.31119   0.34747   0.75249   0.00000  Uiso   1.00
C582   C     0.31875   0.40194   0.75142   0.00000  Uiso   1.00
C583   C     0.29724   0.49558   0.64465   0.00000  Uiso   1.00
C584   C     0.26440   0.42236   0.50096   0.00000  Uiso   1.00
C585   C     0.27522   0.48344   0.58414   0.00000  Uiso   1.00
C586   C     0.02475   0.53159   0.95155   0.00000  Uiso   1.00
C587   C     0.04826   0.54076   0.50930   0.00000  Uiso   1.00
C588   C     0.12931   0.49064   0.99643   0.00000  Uiso   1.00
C589   C     0.10107   0.52185   0.53158   0.00000  Uiso   1.00
C590   C     0.09996   0.47374   0.94081   0.00000  Uiso   1.00
C591   C     0.18616   0.47648   0.51416   0.00000  Uiso   1.00
C592   C     0.20827   0.43734   0.98184   0.00000  Uiso   1.00
C593   C     0.17381   0.41388   0.93125   0.00000  Uiso   1.00
C594   C     0.12039   0.43248   0.91033   0.00000  Uiso   1.00
C595   C     0.22225   0.50179   0.56237   0.00000  Uiso   1.00
C596   C     0.29743   0.44457   0.55288   0.00000  Uiso   1.00
H597   H     0.00523   0.42965   0.56983   0.00000  Uiso   1.00
H598   H     0.09565   0.41509   0.86979   0.00000  Uiso   1.00
H599   H     0.06452   0.33600   0.74450   0.00000  Uiso   1.00
H600   H     0.24596   0.61065   0.88160   0.00000  Uiso   1.00
H601   H     0.26907   0.66408   0.75645   0.00000  Uiso   1.00
H602   H     0.15469   0.46256   0.70246   0.00000  Uiso   1.00
H603   H     0.18923   0.38299   0.90658   0.00000  Uiso   1.00
H604   H     0.28168   0.39220   0.97700   0.00000  Uiso   1.00
H605   H     0.20876   0.53455   0.58573   0.00000  Uiso   1.00
H606   H     0.31982   0.55059   0.93390   0.00000  Uiso   1.00
H607   H     0.11827   0.53105   0.57648   0.00000  Uiso   1.00
H608   H     0.02695   0.56464   0.53634   0.00000  Uiso   1.00
N609   N     0.14493   0.48556   0.73543   0.00000  Uiso   1.00
N610   N     0.18840   0.51444   0.76458   0.00000  Uiso   1.00
O611   O     0.29769   0.57963   0.75358   0.00000  Uiso   1.00
O612   O     0.18913   0.51452   0.87435   0.00000  Uiso   1.00
O613   O     0.24843   0.59106   0.84536   0.00000  Uiso   1.00
O614   O     0.05742   0.57038   0.74424   0.00000  Uiso   1.00
O615   O     0.31490   0.50691   0.83380   0.00000  Uiso   1.00
O616   O     0.07463   0.49766   0.82446   0.00000  Uiso   1.00
O617   O     0.27592   0.42962   0.75577   0.00000  Uiso   1.00
O618   O     0.03565   0.42037   0.74643   0.00000  Uiso   1.00
O619   O     0.25870   0.50234   0.67554   0.00000  Uiso   1.00
O620   O     0.01843   0.49309   0.66620   0.00000  Uiso   1.00
O621   O     0.13843   0.58423   0.82559   0.00000  Uiso   1.00
S622   S     0.18796   0.55064   0.82800   0.00000  Uiso   1.00
Zn623  Zn    0.27119   0.50618   0.75624   0.00000  Uiso   1.00
Zn624  Zn    0.06214   0.49382   0.74377   0.00000  Uiso   1.00
C625   C     0.34796   0.59808   0.74878   0.00000  Uiso   1.00
C626   C     0.38532   0.50005   0.91666   0.00000  Uiso   1.00
C627   C     0.35571   0.65260   0.74836   0.00000  Uiso   1.00
C628   C     0.36851   0.50097   0.85520   0.00000  Uiso   1.00
C629   C     0.64452   0.34747   0.75249   0.00000  Uiso   1.00
C630   C     0.65208   0.40194   0.75142   0.00000  Uiso   1.00
C631   C     0.63057   0.49558   0.64465   0.00000  Uiso   1.00
C632   C     0.59774   0.42236   0.50096   0.00000  Uiso   1.00
C633   C     0.60855   0.48344   0.58414   0.00000  Uiso   1.00
C634   C     0.35808   0.53159   0.95155   0.00000  Uiso   1.00
C635   C     0.38159   0.54076   0.50930   0.00000  Uiso   1.00
C636   C     0.46264   0.49064   0.99643   0.00000  Uiso   1.00
C637   C     0.43440   0.52185   0.53158   0.00000  Uiso   1.00
C638   C     0.43329   0.47374   0.94081   0.00000  Uiso   1.00
C639   C     0.51949   0.47648   0.51416   0.00000  Uiso   1.00
C640   C     0.54160   0.43734   0.98184   0.00000  Uiso   1.00
C641   C     0.50715   0.41388   0.93125   0.00000  Uiso   1.00
C642   C     0.45372   0.43248   0.91033   0.00000  Uiso   1.00
C643   C     0.55558   0.50179   0.56237   0.00000  Uiso   1.00
C644   C     0.63077   0.44457   0.55288   0.00000  Uiso   1.00
H645   H     0.33856   0.42965   0.56983   0.00000  Uiso   1.00
H646   H     0.42899   0.41509   0.86979   0.00000  Uiso   1.00
H647   H     0.39786   0.33600   0.74450   0.00000  Uiso   1.00
H648   H     0.57929   0.61065   0.88160   0.00000  Uiso   1.00
H649   H     0.60241   0.66408   0.75645   0.00000  Uiso   1.00
H650   H     0.48802   0.46256   0.70246   0.00000  Uiso   1.00
H651   H     0.52257   0.38299   0.90658   0.00000  Uiso   1.00
H652   H     0.61501   0.39220   0.97700   0.00000  Uiso   1.00
H653   H     0.54209   0.53455   0.58573   0.00000  Uiso   1.00
H654   H     0.65316   0.55059   0.93390   0.00000  Uiso   1.00
H655   H     0.45160   0.53105   0.57648   0.00000  Uiso   1.00
H656   H     0.36028   0.56464   0.53634   0.00000  Uiso   1.00
N657   N     0.47827   0.48556   0.73543   0.00000  Uiso   1.00
N658   N     0.52173   0.51444   0.76458   0.00000  Uiso   1.00
O659   O     0.63102   0.57963   0.75358   0.00000  Uiso   1.00
O660   O     0.52246   0.51452   0.87435   0.00000  Uiso   1.00
O661   O     0.58176   0.59106   0.84536   0.00000  Uiso   1.00
O662   O     0.39075   0.57038   0.74424   0.00000  Uiso   1.00
O663   O     0.64823   0.50691   0.83380   0.00000  Uiso   1.00
O664   O     0.40796   0.49766   0.82446   0.00000  Uiso   1.00
O665   O     0.60925   0.42962   0.75577   0.00000  Uiso   1.00
O666   O     0.36898   0.42037   0.74643   0.00000  Uiso   1.00
O667   O     0.59204   0.50234   0.67554   0.00000  Uiso   1.00
O668   O     0.35177   0.49309   0.66620   0.00000  Uiso   1.00
O669   O     0.47176   0.58423   0.82559   0.00000  Uiso   1.00
S670   S     0.52129   0.55064   0.82800   0.00000  Uiso   1.00
Zn671  Zn    0.60453   0.50618   0.75624   0.00000  Uiso   1.00
Zn672  Zn    0.39547   0.49382   0.74377   0.00000  Uiso   1.00
C673   C     0.68130   0.59808   0.74878   0.00000  Uiso   1.00
C674   C     0.71866   0.50005   0.91666   0.00000  Uiso   1.00
C675   C     0.68904   0.65260   0.74836   0.00000  Uiso   1.00
C676   C     0.70185   0.50097   0.85520   0.00000  Uiso   1.00
C677   C     0.97786   0.34747   0.75249   0.00000  Uiso   1.00
C678   C     0.98542   0.40194   0.75142   0.00000  Uiso   1.00
C679   C     0.96390   0.49558   0.64465   0.00000  Uiso   1.00
C680   C     0.93107   0.42236   0.50096   0.00000  Uiso   1.00
C681   C     0.94189   0.48344   0.58414   0.00000  Uiso   1.00
C682   C     0.69142   0.53159   0.95155   0.00000  Uiso   1.00
C683   C     0.71492   0.54076   0.50930   0.00000  Uiso   1.00
C684   C     0.79598   0.49064   0.99643   0.00000  Uiso   1.00
C685   C     0.76774   0.52185   0.53158   0.00000  Uiso   1.00
C686   C     0.76662   0.47374   0.94081   0.00000  Uiso   1.00
C687   C     0.85283   0.47648   0.51416   0.00000  Uiso   1.00
C688   C     0.87493   0.43734   0.98184   0.00000  Uiso   1.00
C689   C     0.84048   0.41388   0.93125   0.00000  Uiso   1.00
C690   C     0.78706   0.43248   0.91033   0.00000  Uiso   1.00
C691   C     0.88891   0.50179   0.56237   0.00000  Uiso   1.00
C692   C     0.96410   0.44457   0.55288   0.00000  Uiso   1.00
H693   H     0.67190   0.42965   0.56983   0.00000  Uiso   1.00
H694   H     0.76232   0.41509   0.86979   0.00000  Uiso   1.00
H695   H     0.73119   0.33600   0.74450   0.00000  Uiso   1.00
H696   H     0.91263   0.61065   0.88160   0.00000  Uiso   1.00
H697   H     0.93574   0.66408   0.75645   0.00000  Uiso   1.00
H698   H     0.82136   0.46256   0.70246   0.00000  Uiso   1.00
H699   H     0.85590   0.38299   0.90658   0.00000  Uiso   1.00
H700   H     0.94835   0.39220   0.97700   0.00000  Uiso   1.00
H701   H     0.87543   0.53455   0.58573   0.00000  Uiso   1.00
H702   H     0.98649   0.55059   0.93390   0.00000  Uiso   1.00
H703   H     0.78493   0.53105   0.57648   0.00000  Uiso   1.00
H704   H     0.69361   0.56464   0.53634   0.00000  Uiso   1.00
N705   N     0.81160   0.48556   0.73543   0.00000  Uiso   1.00
N706   N     0.85507   0.51444   0.76458   0.00000  Uiso   1.00
O707   O     0.96435   0.57963   0.75358   0.00000  Uiso   1.00
O708   O     0.85579   0.51452   0.87435   0.00000  Uiso   1.00
O709   O     0.91509   0.59106   0.84536   0.00000  Uiso   1.00
O710   O     0.72408   0.57038   0.74424   0.00000  Uiso   1.00
O711   O     0.98157   0.50691   0.83380   0.00000  Uiso   1.00
O712   O     0.74130   0.49766   0.82446   0.00000  Uiso   1.00
O713   O     0.94258   0.42962   0.75577   0.00000  Uiso   1.00
O714   O     0.70231   0.42037   0.74643   0.00000  Uiso   1.00
O715   O     0.92537   0.50234   0.67554   0.00000  Uiso   1.00
O716   O     0.68510   0.49309   0.66620   0.00000  Uiso   1.00
O717   O     0.80509   0.58423   0.82559   0.00000  Uiso   1.00
S718   S     0.85463   0.55064   0.82800   0.00000  Uiso   1.00
Zn719  Zn    0.93786   0.50618   0.75624   0.00000  Uiso   1.00
Zn720  Zn    0.72881   0.49382   0.74377   0.00000  Uiso   1.00
C721   C     0.01463   0.93141   0.74878   0.00000  Uiso   1.00
C722   C     0.05199   0.83338   0.91666   0.00000  Uiso   1.00
C723   C     0.02238   0.98593   0.74836   0.00000  Uiso   1.00
C724   C     0.03518   0.83431   0.85520   0.00000  Uiso   1.00
C725   C     0.31119   0.68080   0.75249   0.00000  Uiso   1.00
C726   C     0.31875   0.73527   0.75142   0.00000  Uiso   1.00
C727   C     0.29724   0.82891   0.64465   0.00000  Uiso   1.00
C728   C     0.26440   0.75570   0.50096   0.00000  Uiso   1.00
C729   C     0.27522   0.81677   0.58414   0.00000  Uiso   1.00
C730   C     0.02475   0.86492   0.95155   0.00000  Uiso   1.00
C731   C     0.04826   0.87409   0.50930   0.00000  Uiso   1.00
C732   C     0.12931   0.82397   0.99643   0.00000  Uiso   1.00
C733   C     0.10107   0.85518   0.53158   0.00000  Uiso   1.00
C734   C     0.09996   0.80707   0.94081   0.00000  Uiso   1.00
C735   C     0.18616   0.80981   0.51416   0.00000  Uiso   1.00
C736   C     0.20827   0.77067   0.98184   0.00000  Uiso   1.00
C737   C     0.17381   0.74722   0.93125   0.00000  Uiso   1.00
C738   C     0.12039   0.76582   0.91033   0.00000  Uiso   1.00
C739   C     0.22225   0.83512   0.56237   0.00000  Uiso   1.00
C740   C     0.29743   0.77791   0.55288   0.00000  Uiso   1.00
H741   H     0.00523   0.76299   0.56983   0.00000  Uiso   1.00
H742   H     0.09565   0.74843   0.86979   0.00000  Uiso   1.00
H743   H     0.06452   0.66933   0.74450   0.00000  Uiso   1.00
H744   H     0.24596   0.94398   0.88160   0.00000  Uiso   1.00
H745   H     0.26907   0.99741   0.75645   0.00000  Uiso   1.00
H746   H     0.15469   0.79589   0.70246   0.00000  Uiso   1.00
H747   H     0.18923   0.71633   0.90658   0.00000  Uiso   1.00
H748   H     0.28168   0.72554   0.97700   0.00000  Uiso   1.00
H749   H     0.20876   0.86789   0.58573   0.00000  Uiso   1.00
H750   H     0.31982   0.88393   0.93390   0.00000  Uiso   1.00
H751   H     0.11827   0.86438   0.57648   0.00000  Uiso   1.00
H752   H     0.02695   0.89797   0.53634   0.00000  Uiso   1.00
N753   N     0.14493   0.81890   0.73543   0.00000  Uiso   1.00
N754   N     0.18840   0.84777   0.76458   0.00000  Uiso   1.00
O755   O     0.29769   0.91296   0.75358   0.00000  Uiso   1.00
O756   O     0.18913   0.84785   0.87435   0.00000  Uiso   1.00
O757   O     0.24843   0.92439   0.84536   0.00000  Uiso   1.00
O758   O     0.05742   0.90371   0.74424   0.00000  Uiso   1.00
O759   O     0.31490   0.84024   0.83380   0.00000  Uiso   1.00
O760   O     0.07463   0.83099   0.82446   0.00000  Uiso   1.00
O761   O     0.27592   0.76296   0.75577   0.00000  Uiso   1.00
O762   O     0.03565   0.75371   0.74643   0.00000  Uiso   1.00
O763   O     0.25870   0.83567   0.67554   0.00000  Uiso   1.00
O764   O     0.01843   0.82642   0.66620   0.00000  Uiso   1.00
O765   O     0.13843   0.91757   0.82559   0.00000  Uiso   1.00
S766   S     0.18796   0.88398   0.82800   0.00000  Uiso   1.00
Zn767  Zn    0.27119   0.83951   0.75624   0.00000  Uiso   1.00
Zn768  Zn    0.06214   0.82716   0.74377   0.00000  Uiso   1.00
C769   C     0.34796   0.93141   0.74878   0.00000  Uiso   1.00
C770   C     0.38532   0.83338   0.91666   0.00000  Uiso   1.00
C771   C     0.35571   0.98593   0.74836   0.00000  Uiso   1.00
C772   C     0.36851   0.83431   0.85520   0.00000  Uiso   1.00
C773   C     0.64452   0.68080   0.75249   0.00000  Uiso   1.00
C774   C     0.65208   0.73527   0.75142   0.00000  Uiso   1.00
C775   C     0.63057   0.82891   0.64465   0.00000  Uiso   1.00
C776   C     0.59774   0.75570   0.50096   0.00000  Uiso   1.00
C777   C     0.60855   0.81677   0.58414   0.00000  Uiso   1.00
C778   C     0.35808   0.86492   0.95155   0.00000  Uiso   1.00
C779   C     0.38159   0.87409   0.50930   0.00000  Uiso   1.00
C780   C     0.46264   0.82397   0.99643   0.00000  Uiso   1.00
C781   C     0.43440   0.85518   0.53158   0.00000  Uiso   1.00
C782   C     0.43329   0.80707   0.94081   0.00000  Uiso   1.00
C783   C     0.51949   0.80981   0.51416   0.00000  Uiso   1.00
C784   C     0.54160   0.77067   0.98184   0.00000  Uiso   1.00
C785   C     0.50715   0.74722   0.93125   0.00000  Uiso   1.00
C786   C     0.45372   0.76582   0.91033   0.00000  Uiso   1.00
C787   C     0.55558   0.83512   0.56237   0.00000  Uiso   1.00
C788   C     0.63077   0.77791   0.55288   0.00000  Uiso   1.00
H789   H     0.33856   0.76299   0.56983   0.00000  Uiso   1.00
H790   H     0.42899   0.74843   0.86979   0.00000  Uiso   1.00
H791   H     0.39786   0.66933   0.74450   0.00000  Uiso   1.00
H792   H     0.57929   0.94398   0.88160   0.00000  Uiso   1.00
H793   H     0.60241   0.99741   0.75645   0.00000  Uiso   1.00
H794   H     0.48802   0.79589   0.70246   0.00000  Uiso   1.00
H795   H     0.52257   0.71633   0.90658   0.00000  Uiso   1.00
H796   H     0.61501   0.72554   0.97700   0.00000  Uiso   1.00
H797   H     0.54209   0.86789   0.58573   0.00000  Uiso   1.00
H798   H     0.65316   0.88393   0.93390   0.00000  Uiso   1.00
H799   H     0.45160   0.86438   0.57648   0.00000  Uiso   1.00
H800   H     0.36028   0.89797   0.53634   0.00000  Uiso   1.00
N801   N     0.47827   0.81890   0.73543   0.00000  Uiso   1.00
N802   N     0.52173   0.84777   0.76458   0.00000  Uiso   1.00
O803   O     0.63102   0.91296   0.75358   0.00000  Uiso   1.00
O804   O     0.52246   0.84785   0.87435   0.00000  Uiso   1.00
O805   O     0.58176   0.92439   0.84536   0.00000  Uiso   1.00
O806   O     0.39075   0.90371   0.74424   0.00000  Uiso   1.00
O807   O     0.64823   0.84024   0.83380   0.00000  Uiso   1.00
O808   O     0.40796   0.83099   0.82446   0.00000  Uiso   1.00
O809   O     0.60925   0.76296   0.75577   0.00000  Uiso   1.00
O810   O     0.36898   0.75371   0.74643   0.00000  Uiso   1.00
O811   O     0.59204   0.83567   0.67554   0.00000  Uiso   1.00
O812   O     0.35177   0.82642   0.66620   0.00000  Uiso   1.00
O813   O     0.47176   0.91757   0.82559   0.00000  Uiso   1.00
S814   S     0.52129   0.88398   0.82800   0.00000  Uiso   1.00
Zn815  Zn    0.60453   0.83951   0.75624   0.00000  Uiso   1.00
Zn816  Zn    0.39547   0.82716   0.74377   0.00000  Uiso   1.00
C817   C     0.68130   0.93141   0.74878   0.00000  Uiso   1.00
C818   C     0.71866   0.83338   0.91666   0.00000  Uiso   1.00
C819   C     0.68904   0.98593   0.74836   0.00000  Uiso   1.00
C820   C     0.70185   0.83431   0.85520   0.00000  Uiso   1.00
C821   C     0.97786   0.68080   0.75249   0.00000  Uiso   1.00
C822   C     0.98542   0.73527   0.75142   0.00000  Uiso   1.00
C823   C     0.96390   0.82891   0.64465   0.00000  Uiso   1.00
C824   C     0.93107   0.75570   0.50096   0.00000  Uiso   1.00
C825   C     0.94189   0.81677   0.58414   0.00000  Uiso   1.00
C826   C     0.69142   0.86492   0.95155   0.00000  Uiso   1.00
C827   C     0.71492   0.87409   0.50930   0.00000  Uiso   1.00
C828   C     0.79598   0.82397   0.99643   0.00000  Uiso   1.00
C829   C     0.76774   0.85518   0.53158   0.00000  Uiso   1.00
C830   C     0.76662   0.80707   0.94081   0.00000  Uiso   1.00
C831   C     0.85283   0.80981   0.51416   0.00000  Uiso   1.00
C832   C     0.87493   0.77067   0.98184   0.00000  Uiso   1.00
C833   C     0.84048   0.74722   0.93125   0.00000  Uiso   1.00
C834   C     0.78706   0.76582   0.91033   0.00000  Uiso   1.00
C835   C     0.88891   0.83512   0.56237   0.00000  Uiso   1.00
C836   C     0.96410   0.77791   0.55288   0.00000  Uiso   1.00
H837   H     0.67190   0.76299   0.56983   0.00000  Uiso   1.00
H838   H     0.76232   0.74843   0.86979   0.00000  Uiso   1.00
H839   H     0.73119   0.66933   0.74450   0.00000  Uiso   1.00
H840   H     0.91263   0.94398   0.88160   0.00000  Uiso   1.00
H841   H     0.93574   0.99741   0.75645   0.00000  Uiso   1.00
H842   H     0.82136   0.79589   0.70246   0.00000  Uiso   1.00
H843   H     0.85590   0.71633   0.90658   0.00000  Uiso   1.00
H844   H     0.94835   0.72554   0.97700   0.00000  Uiso   1.00
H845   H     0.87543   0.86789   0.58573   0.00000  Uiso   1.00
H846   H     0.98649   0.88393   0.93390   0.00000  Uiso   1.00
H847   H     0.78493   0.86438   0.57648   0.00000  Uiso   1.00
H848   H     0.69361   0.89797   0.53634   0.00000  Uiso   1.00
N849   N     0.81160   0.81890   0.73543   0.00000  Uiso   1.00
N850   N     0.85507   0.84777   0.76458   0.00000  Uiso   1.00
O851   O     0.96435   0.91296   0.75358   0.00000  Uiso   1.00
O852   O     0.85579   0.84785   0.87435   0.00000  Uiso   1.00
O853   O     0.91509   0.92439   0.84536   0.00000  Uiso   1.00
O854   O     0.72408   0.90371   0.74424   0.00000  Uiso   1.00
O855   O     0.98157   0.84024   0.83380   0.00000  Uiso   1.00
O856   O     0.74130   0.83099   0.82446   0.00000  Uiso   1.00
O857   O     0.94258   0.76296   0.75577   0.00000  Uiso   1.00
O858   O     0.70231   0.75371   0.74643   0.00000  Uiso   1.00
O859   O     0.92537   0.83567   0.67554   0.00000  Uiso   1.00
O860   O     0.68510   0.82642   0.66620   0.00000  Uiso   1.00
O861   O     0.80509   0.91757   0.82559   0.00000  Uiso   1.00
S862   S     0.85463   0.88398   0.82800   0.00000  Uiso   1.00
Zn863  Zn    0.93786   0.83951   0.75624   0.00000  Uiso   1.00
Zn864  Zn    0.72881   0.82716   0.74377   0.00000  Uiso   1.00
loop_
_geom_bond_atom_site_label_1
_geom_bond_atom_site_label_2
_geom_bond_distance
_geom_bond_site_symmetry_2
_ccdc_geom_bond_type
C1     O38     1.294   .     A
C1     C3      1.402   .     S
C1     O131    1.286   1_455 S
C2     C4      1.455   .     S
C2     C14     1.405   .     A
C2     C10     1.404   .     A
C3     C245    1.334   1_455 S
C3     H167    1.088   .     S
C4     O40     1.309   .     A
C4     O135    1.295   1_455 S
C5     C6      1.402   .     S
C5     C339    1.334   1_545 S
C5     H313    1.088   1_545 S
C6     O41     1.293   .     A
C6     O90     1.287   .     S
C7     O43     1.303   .     A
C7     C9      1.450   .     S
C7     O92     1.301   .     S
C8     C20     1.397   .     A
C8     C448    1.405   1_554 S
C8     H460    1.084   1_554 S
C9     C20     1.401   .     A
C9     C19     1.385   .     A
C10    C443    1.388   .     S
C10    H126    1.082   1_455 S
C11    C13     1.391   .     A
C11    H32     1.083   .     S
C11    C442    1.388   1_554 S
C12    C14     1.404   .     A
C12    C445    1.418   .     S
C12    C447    1.409   .     S
C13    H31     1.080   .     S
C13    C444    1.418   1_554 S
C14    C18     1.413   .     A
C15    C19     1.388   .     A
C15    C444    1.409   1_554 S
C15    C448    1.419   1_554 S
C16    C17     1.396   .     A
C16    C440    1.405   .     S
C16    C447    1.419   .     S
C17    C18     1.393   .     A
C17    H27     1.084   .     S
C18    H22     1.083   .     S
C19    H29     1.081   .     S
C20    H69     1.083   .     S
H21    C116    1.083   1_455 S
H23    C291    1.088   1_545 S
H24    O37     0.991   .     S
H25    C149    1.088   .     S
H26    N33     1.029   .     S
H28    C440    1.084   .     S
H30    C58     1.082   .     S
N33    N34     1.283   .     D
N33    Zn48    2.038   .     S
N34    S46     1.735   .     S
N34    Zn47    2.038   .     S
O35    Zn47    1.960   .     S
O35    C49     1.286   .     S
O36    S46     1.497   .     D
O37    S46     1.680   .     S
O38    Zn48    1.975   .     S
O39    Zn47    1.943   .     S
O39    C52     1.295   .     S
O40    Zn48    1.900   .     S
O41    Zn47    1.975   .     S
O42    Zn48    1.960   .     S
O42    C102    1.287   1_455 S
O43    Zn47    1.900   .     S
O44    Zn48    1.943   .     S
O44    C103    1.301   1_455 S
O45    S46     1.495   .     D
C49    O86     1.294   .     A
C49    C51     1.402   .     S
C50    C52     1.455   .     S
C50    C62     1.405   .     A
C50    C58     1.404   .     A
C51    C149    1.334   .     S
C51    H215    1.088   .     S
C52    O88     1.309   .     A
C53    C54     1.402   .     S
C53    C387    1.334   1_545 S
C53    H361    1.088   1_545 S
C54    O89     1.293   .     A
C54    O138    1.287   .     S
C55    O91     1.303   .     A
C55    C57     1.450   .     S
C55    O140    1.301   .     S
C56    C68     1.397   .     A
C56    C496    1.405   1_554 S
C56    H508    1.084   1_554 S
C57    C68     1.401   .     A
C57    C67     1.385   .     A
C58    C491    1.388   .     S
C59    C61     1.391   .     A
C59    H80     1.083   .     S
C59    C490    1.388   1_554 S
C60    C62     1.404   .     A
C60    C493    1.418   .     S
C60    C495    1.409   .     S
C61    H79     1.080   .     S
C61    C492    1.418   1_554 S
C62    C66     1.413   .     A
C63    C67     1.388   .     A
C63    C492    1.409   1_554 S
C63    C496    1.419   1_554 S
C64    C65     1.396   .     A
C64    C488    1.405   .     S
C64    C495    1.419   .     S
C65    C66     1.393   .     A
C65    H75     1.084   .     S
C66    H70     1.083   .     S
C67    H77     1.081   .     S
C68    H117    1.083   .     S
H71    C339    1.088   1_545 S
H72    O85     0.991   .     S
H73    C197    1.088   .     S
H74    N81     1.029   .     S
H76    C488    1.084   .     S
H78    C106    1.082   .     S
N81    N82     1.283   .     D
N81    Zn96    2.038   .     S
N82    S94     1.735   .     S
N82    Zn95    2.038   .     S
O83    Zn95    1.960   .     S
O83    C97     1.286   .     S
O84    S94     1.497   .     D
O85    S94     1.680   .     S
O86    Zn96    1.975   .     S
O87    Zn95    1.943   .     S
O87    C100    1.295   .     S
O88    Zn96    1.900   .     S
O89    Zn95    1.975   .     S
O90    Zn96    1.960   .     S
O91    Zn95    1.900   .     S
O92    Zn96    1.943   .     S
O93    S94     1.495   .     D
C97    O134    1.294   .     A
C97    C99     1.402   .     S
C98    C100    1.455   .     S
C98    C110    1.405   .     A
C98    C106    1.404   .     A
C99    C197    1.334   .     S
C99    H263    1.088   .     S
C100   O136    1.309   .     A
C101   C102    1.402   .     S
C101   C291    1.334   1_645 S
C101   H409    1.088   1_545 S
C102   O137    1.293   .     A
C102   O42     1.287   1_655 S
C103   O139    1.303   .     A
C103   C105    1.450   .     S
C103   O44     1.301   1_655 S
C104   C116    1.397   .     A
C104   C544    1.405   1_554 S
C104   H556    1.084   1_554 S
C105   C116    1.401   .     A
C105   C115    1.385   .     A
C106   C539    1.388   .     S
C107   C109    1.391   .     A
C107   H128    1.083   .     S
C107   C538    1.388   1_554 S
C108   C110    1.404   .     A
C108   C541    1.418   .     S
C108   C543    1.409   .     S
C109   H127    1.080   .     S
C109   C540    1.418   1_554 S
C110   C114    1.413   .     A
C111   C115    1.388   .     A
C111   C540    1.409   1_554 S
C111   C544    1.419   1_554 S
C112   C113    1.396   .     A
C112   C536    1.405   .     S
C112   C543    1.419   .     S
C113   C114    1.393   .     A
C113   H123    1.084   .     S
C114   H118    1.083   .     S
C115   H125    1.081   .     S
C116   H21     1.083   1_655 S
H119   C387    1.088   1_545 S
H120   O133    0.991   .     S
H121   C245    1.088   .     S
H122   N129    1.029   .     S
H124   C536    1.084   .     S
H126   C10     1.082   1_655 S
N129   N130    1.283   .     D
N129   Zn144   2.038   .     S
N130   S142    1.735   .     S
N130   Zn143   2.038   .     S
O131   Zn143   1.960   .     S
O131   C1      1.286   1_655 S
O132   S142    1.497   .     D
O133   S142    1.680   .     S
O134   Zn144   1.975   .     S
O135   Zn143   1.943   .     S
O135   C4      1.295   1_655 S
O136   Zn144   1.900   .     S
O137   Zn143   1.975   .     S
O138   Zn144   1.960   .     S
O139   Zn143   1.900   .     S
O140   Zn144   1.943   .     S
O141   S142    1.495   .     D
C145   O182    1.294   .     A
C145   C147    1.402   .     S
C145   O275    1.286   1_455 S
C146   C148    1.455   .     S
C146   C158    1.405   .     A
C146   C154    1.404   .     A
C147   C389    1.334   1_455 S
C147   H311    1.088   .     S
C148   O184    1.309   .     A
C148   O279    1.295   1_455 S
C149   C150    1.402   .     S
C150   O185    1.293   .     A
C150   O234    1.287   .     S
C151   O187    1.303   .     A
C151   C153    1.450   .     S
C151   O236    1.301   .     S
C152   C164    1.397   .     A
C152   C592    1.405   1_554 S
C152   H604    1.084   1_554 S
C153   C164    1.401   .     A
C153   C163    1.385   .     A
C154   C587    1.388   .     S
C154   H270    1.082   1_455 S
C155   C157    1.391   .     A
C155   H176    1.083   .     S
C155   C586    1.388   1_554 S
C156   C158    1.404   .     A
C156   C589    1.418   .     S
C156   C591    1.409   .     S
C157   H175    1.080   .     S
C157   C588    1.418   1_554 S
C158   C162    1.413   .     A
C159   C163    1.388   .     A
C159   C588    1.409   1_554 S
C159   C592    1.419   1_554 S
C160   C161    1.396   .     A
C160   C584    1.405   .     S
C160   C591    1.419   .     S
C161   C162    1.393   .     A
C161   H171    1.084   .     S
C162   H166    1.083   .     S
C163   H173    1.081   .     S
C164   H213    1.083   .     S
H165   C260    1.083   1_455 S
H168   O181    0.991   .     S
H169   C293    1.088   .     S
H170   N177    1.029   .     S
H172   C584    1.084   .     S
H174   C202    1.082   .     S
N177   N178    1.283   .     D
N177   Zn192   2.038   .     S
N178   S190    1.735   .     S
N178   Zn191   2.038   .     S
O179   Zn191   1.960   .     S
O179   C193    1.286   .     S
O180   S190    1.497   .     D
O181   S190    1.680   .     S
O182   Zn192   1.975   .     S
O183   Zn191   1.943   .     S
O183   C196    1.295   .     S
O184   Zn192   1.900   .     S
O185   Zn191   1.975   .     S
O186   Zn192   1.960   .     S
O186   C246    1.287   1_455 S
O187   Zn191   1.900   .     S
O188   Zn192   1.943   .     S
O188   C247    1.301   1_455 S
O189   S190    1.495   .     D
C193   O230    1.294   .     A
C193   C195    1.402   .     S
C194   C196    1.455   .     S
C194   C206    1.405   .     A
C194   C202    1.404   .     A
C195   C293    1.334   .     S
C195   H359    1.088   .     S
C196   O232    1.309   .     A
C197   C198    1.402   .     S
C198   O233    1.293   .     A
C198   O282    1.287   .     S
C199   O235    1.303   .     A
C199   C201    1.450   .     S
C199   O284    1.301   .     S
C200   C212    1.397   .     A
C200   C640    1.405   1_554 S
C200   H652    1.084   1_554 S
C201   C212    1.401   .     A
C201   C211    1.385   .     A
C202   C635    1.388   .     S
C203   C205    1.391   .     A
C203   H224    1.083   .     S
C203   C634    1.388   1_554 S
C204   C206    1.404   .     A
C204   C637    1.418   .     S
C204   C639    1.409   .     S
C205   H223    1.080   .     S
C205   C636    1.418   1_554 S
C206   C210    1.413   .     A
C207   C211    1.388   .     A
C207   C636    1.409   1_554 S
C207   C640    1.419   1_554 S
C208   C209    1.396   .     A
C208   C632    1.405   .     S
C208   C639    1.419   .     S
C209   C210    1.393   .     A
C209   H219    1.084   .     S
C210   H214    1.083   .     S
C211   H221    1.081   .     S
C212   H261    1.083   .     S
H216   O229    0.991   .     S
H217   C341    1.088   .     S
H218   N225    1.029   .     S
H220   C632    1.084   .     S
H222   C250    1.082   .     S
N225   N226    1.283   .     D
N225   Zn240   2.038   .     S
N226   S238    1.735   .     S
N226   Zn239   2.038   .     S
O227   Zn239   1.960   .     S
O227   C241    1.286   .     S
O228   S238    1.497   .     D
O229   S238    1.680   .     S
O230   Zn240   1.975   .     S
O231   Zn239   1.943   .     S
O231   C244    1.295   .     S
O232   Zn240   1.900   .     S
O233   Zn239   1.975   .     S
O234   Zn240   1.960   .     S
O235   Zn239   1.900   .     S
O236   Zn240   1.943   .     S
O237   S238    1.495   .     D
C241   O278    1.294   .     A
C241   C243    1.402   .     S
C242   C244    1.455   .     S
C242   C254    1.405   .     A
C242   C250    1.404   .     A
C243   C341    1.334   .     S
C243   H407    1.088   .     S
C244   O280    1.309   .     A
C245   C246    1.402   .     S
C245   C3      1.334   1_655 S
C246   O281    1.293   .     A
C246   O186    1.287   1_655 S
C247   O283    1.303   .     A
C247   C249    1.450   .     S
C247   O188    1.301   1_655 S
C248   C260    1.397   .     A
C248   C688    1.405   1_554 S
C248   H700    1.084   1_554 S
C249   C260    1.401   .     A
C249   C259    1.385   .     A
C250   C683    1.388   .     S
C251   C253    1.391   .     A
C251   H272    1.083   .     S
C251   C682    1.388   1_554 S
C252   C254    1.404   .     A
C252   C685    1.418   .     S
C252   C687    1.409   .     S
C253   H271    1.080   .     S
C253   C684    1.418   1_554 S
C254   C258    1.413   .     A
C255   C259    1.388   .     A
C255   C684    1.409   1_554 S
C255   C688    1.419   1_554 S
C256   C257    1.396   .     A
C256   C680    1.405   .     S
C256   C687    1.419   .     S
C257   C258    1.393   .     A
C257   H267    1.084   .     S
C258   H262    1.083   .     S
C259   H269    1.081   .     S
C260   H165    1.083   1_655 S
H264   O277    0.991   .     S
H265   C389    1.088   .     S
H266   N273    1.029   .     S
H268   C680    1.084   .     S
H270   C154    1.082   1_655 S
N273   N274    1.283   .     D
N273   Zn288   2.038   .     S
N274   S286    1.735   .     S
N274   Zn287   2.038   .     S
O275   Zn287   1.960   .     S
O275   C145    1.286   1_655 S
O276   S286    1.497   .     D
O277   S286    1.680   .     S
O278   Zn288   1.975   .     S
O279   Zn287   1.943   .     S
O279   C148    1.295   1_655 S
O280   Zn288   1.900   .     S
O281   Zn287   1.975   .     S
O282   Zn288   1.960   .     S
O283   Zn287   1.900   .     S
O284   Zn288   1.943   .     S
O285   S286    1.495   .     D
C289   O326    1.294   .     A
C289   C291    1.402   .     S
C289   O419    1.286   1_455 S
C290   C292    1.455   .     S
C290   C302    1.405   .     A
C290   C298    1.404   .     A
C291   C101    1.334   1_465 S
C291   H23     1.088   1_565 S
C292   O328    1.309   .     A
C292   O423    1.295   1_455 S
C293   C294    1.402   .     S
C294   O329    1.293   .     A
C294   O378    1.287   .     S
C295   O331    1.303   .     A
C295   C297    1.450   .     S
C295   O380    1.301   .     S
C296   C308    1.397   .     A
C296   C736    1.405   1_554 S
C296   H748    1.084   1_554 S
C297   C308    1.401   .     A
C297   C307    1.385   .     A
C298   C731    1.388   .     S
C298   H414    1.082   1_455 S
C299   C301    1.391   .     A
C299   H320    1.083   .     S
C299   C730    1.388   1_554 S
C300   C302    1.404   .     A
C300   C733    1.418   .     S
C300   C735    1.409   .     S
C301   H319    1.080   .     S
C301   C732    1.418   1_554 S
C302   C306    1.413   .     A
C303   C307    1.388   .     A
C303   C732    1.409   1_554 S
C303   C736    1.419   1_554 S
C304   C305    1.396   .     A
C304   C728    1.405   .     S
C304   C735    1.419   .     S
C305   C306    1.393   .     A
C305   H315    1.084   .     S
C306   H310    1.083   .     S
C307   H317    1.081   .     S
C308   H357    1.083   .     S
H309   C404    1.083   1_455 S
H312   O325    0.991   .     S
H313   C5      1.088   1_565 S
H314   N321    1.029   .     S
H316   C728    1.084   .     S
H318   C346    1.082   .     S
N321   N322    1.283   .     D
N321   Zn336   2.038   .     S
N322   S334    1.735   .     S
N322   Zn335   2.038   .     S
O323   Zn335   1.960   .     S
O323   C337    1.286   .     S
O324   S334    1.497   .     D
O325   S334    1.680   .     S
O326   Zn336   1.975   .     S
O327   Zn335   1.943   .     S
O327   C340    1.295   .     S
O328   Zn336   1.900   .     S
O329   Zn335   1.975   .     S
O330   Zn336   1.960   .     S
O330   C390    1.287   1_455 S
O331   Zn335   1.900   .     S
O332   Zn336   1.943   .     S
O332   C391    1.301   1_455 S
O333   S334    1.495   .     D
C337   O374    1.294   .     A
C337   C339    1.402   .     S
C338   C340    1.455   .     S
C338   C350    1.405   .     A
C338   C346    1.404   .     A
C339   C5      1.334   1_565 S
C339   H71     1.088   1_565 S
C340   O376    1.309   .     A
C341   C342    1.402   .     S
C342   O377    1.293   .     A
C342   O426    1.287   .     S
C343   O379    1.303   .     A
C343   C345    1.450   .     S
C343   O428    1.301   .     S
C344   C356    1.397   .     A
C344   C784    1.405   1_554 S
C344   H796    1.084   1_554 S
C345   C356    1.401   .     A
C345   C355    1.385   .     A
C346   C779    1.388   .     S
C347   C349    1.391   .     A
C347   H368    1.083   .     S
C347   C778    1.388   1_554 S
C348   C350    1.404   .     A
C348   C781    1.418   .     S
C348   C783    1.409   .     S
C349   H367    1.080   .     S
C349   C780    1.418   1_554 S
C350   C354    1.413   .     A
C351   C355    1.388   .     A
C351   C780    1.409   1_554 S
C351   C784    1.419   1_554 S
C352   C353    1.396   .     A
C352   C776    1.405   .     S
C352   C783    1.419   .     S
C353   C354    1.393   .     A
C353   H363    1.084   .     S
C354   H358    1.083   .     S
C355   H365    1.081   .     S
C356   H405    1.083   .     S
H360   O373    0.991   .     S
H361   C53     1.088   1_565 S
H362   N369    1.029   .     S
H364   C776    1.084   .     S
H366   C394    1.082   .     S
N369   N370    1.283   .     D
N369   Zn384   2.038   .     S
N370   S382    1.735   .     S
N370   Zn383   2.038   .     S
O371   Zn383   1.960   .     S
O371   C385    1.286   .     S
O372   S382    1.497   .     D
O373   S382    1.680   .     S
O374   Zn384   1.975   .     S
O375   Zn383   1.943   .     S
O375   C388    1.295   .     S
O376   Zn384   1.900   .     S
O377   Zn383   1.975   .     S
O378   Zn384   1.960   .     S
O379   Zn383   1.900   .     S
O380   Zn384   1.943   .     S
O381   S382    1.495   .     D
C385   O422    1.294   .     A
C385   C387    1.402   .     S
C386   C388    1.455   .     S
C386   C398    1.405   .     A
C386   C394    1.404   .     A
C387   C53     1.334   1_565 S
C387   H119    1.088   1_565 S
C388   O424    1.309   .     A
C389   C390    1.402   .     S
C389   C147    1.334   1_655 S
C390   O425    1.293   .     A
C390   O330    1.287   1_655 S
C391   O427    1.303   .     A
C391   C393    1.450   .     S
C391   O332    1.301   1_655 S
C392   C404    1.397   .     A
C392   C832    1.405   1_554 S
C392   H844    1.084   1_554 S
C393   C404    1.401   .     A
C393   C403    1.385   .     A
C394   C827    1.388   .     S
C395   C397    1.391   .     A
C395   H416    1.083   .     S
C395   C826    1.388   1_554 S
C396   C398    1.404   .     A
C396   C829    1.418   .     S
C396   C831    1.409   .     S
C397   H415    1.080   .     S
C397   C828    1.418   1_554 S
C398   C402    1.413   .     A
C399   C403    1.388   .     A
C399   C828    1.409   1_554 S
C399   C832    1.419   1_554 S
C400   C401    1.396   .     A
C400   C824    1.405   .     S
C400   C831    1.419   .     S
C401   C402    1.393   .     A
C401   H411    1.084   .     S
C402   H406    1.083   .     S
C403   H413    1.081   .     S
C404   H309    1.083   1_655 S
H408   O421    0.991   .     S
H409   C101    1.088   1_565 S
H410   N417    1.029   .     S
H412   C824    1.084   .     S
H414   C298    1.082   1_655 S
N417   N418    1.283   .     D
N417   Zn432   2.038   .     S
N418   S430    1.735   .     S
N418   Zn431   2.038   .     S
O419   Zn431   1.960   .     S
O419   C289    1.286   1_655 S
O420   S430    1.497   .     D
O421   S430    1.680   .     S
O422   Zn432   1.975   .     S
O423   Zn431   1.943   .     S
O423   C292    1.295   1_655 S
O424   Zn432   1.900   .     S
O425   Zn431   1.975   .     S
O426   Zn432   1.960   .     S
O427   Zn431   1.900   .     S
O428   Zn432   1.943   .     S
O429   S430    1.495   .     D
C433   O470    1.294   .     A
C433   C435    1.402   .     S
C433   O563    1.286   1_455 S
C434   C436    1.455   .     S
C434   C446    1.405   .     A
C434   C442    1.404   .     A
C435   C677    1.334   1_455 S
C435   H599    1.088   .     S
C436   O472    1.309   .     A
C436   O567    1.295   1_455 S
C437   C438    1.402   .     S
C437   C771    1.334   1_545 S
C437   H745    1.088   1_545 S
C438   O473    1.293   .     A
C438   O522    1.287   .     S
C439   O475    1.303   .     A
C439   C441    1.450   .     S
C439   O524    1.301   .     S
C440   C452    1.397   .     A
C441   C452    1.401   .     A
C441   C451    1.385   .     A
C442   C11     1.388   1_556 S
C442   H558    1.082   1_455 S
C443   C445    1.391   .     A
C443   H464    1.083   .     S
C444   C446    1.404   .     A
C444   C13     1.418   1_556 S
C444   C15     1.409   1_556 S
C445   H463    1.080   .     S
C446   C450    1.413   .     A
C447   C451    1.388   .     A
C448   C449    1.396   .     A
C448   C8      1.405   1_556 S
C448   C15     1.419   1_556 S
C449   C450    1.393   .     A
C449   H459    1.084   .     S
C450   H454    1.083   .     S
C451   H461    1.081   .     S
C452   H501    1.083   .     S
H453   C548    1.083   1_455 S
H455   C723    1.088   1_545 S
H456   O469    0.991   .     S
H457   C581    1.088   .     S
H458   N465    1.029   .     S
H460   C8      1.084   1_556 S
H462   C490    1.082   .     S
N465   N466    1.283   .     D
N465   Zn480   2.038   .     S
N466   S478    1.735   .     S
N466   Zn479   2.038   .     S
O467   Zn479   1.960   .     S
O467   C481    1.286   .     S
O468   S478    1.497   .     D
O469   S478    1.680   .     S
O470   Zn480   1.975   .     S
O471   Zn479   1.943   .     S
O471   C484    1.295   .     S
O472   Zn480   1.900   .     S
O473   Zn479   1.975   .     S
O474   Zn480   1.960   .     S
O474   C534    1.287   1_455 S
O475   Zn479   1.900   .     S
O476   Zn480   1.943   .     S
O476   C535    1.301   1_455 S
O477   S478    1.495   .     D
C481   O518    1.294   .     A
C481   C483    1.402   .     S
C482   C484    1.455   .     S
C482   C494    1.405   .     A
C482   C490    1.404   .     A
C483   C581    1.334   .     S
C483   H647    1.088   .     S
C484   O520    1.309   .     A
C485   C486    1.402   .     S
C485   C819    1.334   1_545 S
C485   H793    1.088   1_545 S
C486   O521    1.293   .     A
C486   O570    1.287   .     S
C487   O523    1.303   .     A
C487   C489    1.450   .     S
C487   O572    1.301   .     S
C488   C500    1.397   .     A
C489   C500    1.401   .     A
C489   C499    1.385   .     A
C490   C59     1.388   1_556 S
C491   C493    1.391   .     A
C491   H512    1.083   .     S
C492   C494    1.404   .     A
C492   C61     1.418   1_556 S
C492   C63     1.409   1_556 S
C493   H511    1.080   .     S
C494   C498    1.413   .     A
C495   C499    1.388   .     A
C496   C497    1.396   .     A
C496   C56     1.405   1_556 S
C496   C63     1.419   1_556 S
C497   C498    1.393   .     A
C497   H507    1.084   .     S
C498   H502    1.083   .     S
C499   H509    1.081   .     S
C500   H549    1.083   .     S
H503   C771    1.088   1_545 S
H504   O517    0.991   .     S
H505   C629    1.088   .     S
H506   N513    1.029   .     S
H508   C56     1.084   1_556 S
H510   C538    1.082   .     S
N513   N514    1.283   .     D
N513   Zn528   2.038   .     S
N514   S526    1.735   .     S
N514   Zn527   2.038   .     S
O515   Zn527   1.960   .     S
O515   C529    1.286   .     S
O516   S526    1.497   .     D
O517   S526    1.680   .     S
O518   Zn528   1.975   .     S
O519   Zn527   1.943   .     S
O519   C532    1.295   .     S
O520   Zn528   1.900   .     S
O521   Zn527   1.975   .     S
O522   Zn528   1.960   .     S
O523   Zn527   1.900   .     S
O524   Zn528   1.943   .     S
O525   S526    1.495   .     D
C529   O566    1.294   .     A
C529   C531    1.402   .     S
C530   C532    1.455   .     S
C530   C542    1.405   .     A
C530   C538    1.404   .     A
C531   C629    1.334   .     S
C531   H695    1.088   .     S
C532   O568    1.309   .     A
C533   C534    1.402   .     S
C533   C723    1.334   1_645 S
C533   H841    1.088   1_545 S
C534   O569    1.293   .     A
C534   O474    1.287   1_655 S
C535   O571    1.303   .     A
C535   C537    1.450   .     S
C535   O476    1.301   1_655 S
C536   C548    1.397   .     A
C537   C548    1.401   .     A
C537   C547    1.385   .     A
C538   C107    1.388   1_556 S
C539   C541    1.391   .     A
C539   H560    1.083   .     S
C540   C542    1.404   .     A
C540   C109    1.418   1_556 S
C540   C111    1.409   1_556 S
C541   H559    1.080   .     S
C542   C546    1.413   .     A
C543   C547    1.388   .     A
C544   C545    1.396   .     A
C544   C104    1.405   1_556 S
C544   C111    1.419   1_556 S
C545   C546    1.393   .     A
C545   H555    1.084   .     S
C546   H550    1.083   .     S
C547   H557    1.081   .     S
C548   H453    1.083   1_655 S
H551   C819    1.088   1_545 S
H552   O565    0.991   .     S
H553   C677    1.088   .     S
H554   N561    1.029   .     S
H556   C104    1.084   1_556 S
H558   C442    1.082   1_655 S
N561   N562    1.283   .     D
N561   Zn576   2.038   .     S
N562   S574    1.735   .     S
N562   Zn575   2.038   .     S
O563   Zn575   1.960   .     S
O563   C433    1.286   1_655 S
O564   S574    1.497   .     D
O565   S574    1.680   .     S
O566   Zn576   1.975   .     S
O567   Zn575   1.943   .     S
O567   C436    1.295   1_655 S
O568   Zn576   1.900   .     S
O569   Zn575   1.975   .     S
O570   Zn576   1.960   .     S
O571   Zn575   1.900   .     S
O572   Zn576   1.943   .     S
O573   S574    1.495   .     D
C577   O614    1.294   .     A
C577   C579    1.402   .     S
C577   O707    1.286   1_455 S
C578   C580    1.455   .     S
C578   C590    1.405   .     A
C578   C586    1.404   .     A
C579   C821    1.334   1_455 S
C579   H743    1.088   .     S
C580   O616    1.309   .     A
C580   O711    1.295   1_455 S
C581   C582    1.402   .     S
C582   O617    1.293   .     A
C582   O666    1.287   .     S
C583   O619    1.303   .     A
C583   C585    1.450   .     S
C583   O668    1.301   .     S
C584   C596    1.397   .     A
C585   C596    1.401   .     A
C585   C595    1.385   .     A
C586   C155    1.388   1_556 S
C586   H702    1.082   1_455 S
C587   C589    1.391   .     A
C587   H608    1.083   .     S
C588   C590    1.404   .     A
C588   C157    1.418   1_556 S
C588   C159    1.409   1_556 S
C589   H607    1.080   .     S
C590   C594    1.413   .     A
C591   C595    1.388   .     A
C592   C593    1.396   .     A
C592   C152    1.405   1_556 S
C592   C159    1.419   1_556 S
C593   C594    1.393   .     A
C593   H603    1.084   .     S
C594   H598    1.083   .     S
C595   H605    1.081   .     S
C596   H645    1.083   .     S
H597   C692    1.083   1_455 S
H600   O613    0.991   .     S
H601   C725    1.088   .     S
H602   N609    1.029   .     S
H604   C152    1.084   1_556 S
H606   C634    1.082   .     S
N609   N610    1.283   .     D
N609   Zn624   2.038   .     S
N610   S622    1.735   .     S
N610   Zn623   2.038   .     S
O611   Zn623   1.960   .     S
O611   C625    1.286   .     S
O612   S622    1.497   .     D
O613   S622    1.680   .     S
O614   Zn624   1.975   .     S
O615   Zn623   1.943   .     S
O615   C628    1.295   .     S
O616   Zn624   1.900   .     S
O617   Zn623   1.975   .     S
O618   Zn624   1.960   .     S
O618   C678    1.287   1_455 S
O619   Zn623   1.900   .     S
O620   Zn624   1.943   .     S
O620   C679    1.301   1_455 S
O621   S622    1.495   .     D
C625   O662    1.294   .     A
C625   C627    1.402   .     S
C626   C628    1.455   .     S
C626   C638    1.405   .     A
C626   C634    1.404   .     A
C627   C725    1.334   .     S
C627   H791    1.088   .     S
C628   O664    1.309   .     A
C629   C630    1.402   .     S
C630   O665    1.293   .     A
C630   O714    1.287   .     S
C631   O667    1.303   .     A
C631   C633    1.450   .     S
C631   O716    1.301   .     S
C632   C644    1.397   .     A
C633   C644    1.401   .     A
C633   C643    1.385   .     A
C634   C203    1.388   1_556 S
C635   C637    1.391   .     A
C635   H656    1.083   .     S
C636   C638    1.404   .     A
C636   C205    1.418   1_556 S
C636   C207    1.409   1_556 S
C637   H655    1.080   .     S
C638   C642    1.413   .     A
C639   C643    1.388   .     A
C640   C641    1.396   .     A
C640   C200    1.405   1_556 S
C640   C207    1.419   1_556 S
C641   C642    1.393   .     A
C641   H651    1.084   .     S
C642   H646    1.083   .     S
C643   H653    1.081   .     S
C644   H693    1.083   .     S
H648   O661    0.991   .     S
H649   C773    1.088   .     S
H650   N657    1.029   .     S
H652   C200    1.084   1_556 S
H654   C682    1.082   .     S
N657   N658    1.283   .     D
N657   Zn672   2.038   .     S
N658   S670    1.735   .     S
N658   Zn671   2.038   .     S
O659   Zn671   1.960   .     S
O659   C673    1.286   .     S
O660   S670    1.497   .     D
O661   S670    1.680   .     S
O662   Zn672   1.975   .     S
O663   Zn671   1.943   .     S
O663   C676    1.295   .     S
O664   Zn672   1.900   .     S
O665   Zn671   1.975   .     S
O666   Zn672   1.960   .     S
O667   Zn671   1.900   .     S
O668   Zn672   1.943   .     S
O669   S670    1.495   .     D
C673   O710    1.294   .     A
C673   C675    1.402   .     S
C674   C676    1.455   .     S
C674   C686    1.405   .     A
C674   C682    1.404   .     A
C675   C773    1.334   .     S
C675   H839    1.088   .     S
C676   O712    1.309   .     A
C677   C678    1.402   .     S
C677   C435    1.334   1_655 S
C678   O713    1.293   .     A
C678   O618    1.287   1_655 S
C679   O715    1.303   .     A
C679   C681    1.450   .     S
C679   O620    1.301   1_655 S
C680   C692    1.397   .     A
C681   C692    1.401   .     A
C681   C691    1.385   .     A
C682   C251    1.388   1_556 S
C683   C685    1.391   .     A
C683   H704    1.083   .     S
C684   C686    1.404   .     A
C684   C253    1.418   1_556 S
C684   C255    1.409   1_556 S
C685   H703    1.080   .     S
C686   C690    1.413   .     A
C687   C691    1.388   .     A
C688   C689    1.396   .     A
C688   C248    1.405   1_556 S
C688   C255    1.419   1_556 S
C689   C690    1.393   .     A
C689   H699    1.084   .     S
C690   H694    1.083   .     S
C691   H701    1.081   .     S
C692   H597    1.083   1_655 S
H696   O709    0.991   .     S
H697   C821    1.088   .     S
H698   N705    1.029   .     S
H700   C248    1.084   1_556 S
H702   C586    1.082   1_655 S
N705   N706    1.283   .     D
N705   Zn720   2.038   .     S
N706   S718    1.735   .     S
N706   Zn719   2.038   .     S
O707   Zn719   1.960   .     S
O707   C577    1.286   1_655 S
O708   S718    1.497   .     D
O709   S718    1.680   .     S
O710   Zn720   1.975   .     S
O711   Zn719   1.943   .     S
O711   C580    1.295   1_655 S
O712   Zn720   1.900   .     S
O713   Zn719   1.975   .     S
O714   Zn720   1.960   .     S
O715   Zn719   1.900   .     S
O716   Zn720   1.943   .     S
O717   S718    1.495   .     D
C721   O758    1.294   .     A
C721   C723    1.402   .     S
C721   O851    1.286   1_455 S
C722   C724    1.455   .     S
C722   C734    1.405   .     A
C722   C730    1.404   .     A
C723   C533    1.334   1_465 S
C723   H455    1.088   1_565 S
C724   O760    1.309   .     A
C724   O855    1.295   1_455 S
C725   C726    1.402   .     S
C726   O761    1.293   .     A
C726   O810    1.287   .     S
C727   O763    1.303   .     A
C727   C729    1.450   .     S
C727   O812    1.301   .     S
C728   C740    1.397   .     A
C729   C740    1.401   .     A
C729   C739    1.385   .     A
C730   C299    1.388   1_556 S
C730   H846    1.082   1_455 S
C731   C733    1.391   .     A
C731   H752    1.083   .     S
C732   C734    1.404   .     A
C732   C301    1.418   1_556 S
C732   C303    1.409   1_556 S
C733   H751    1.080   .     S
C734   C738    1.413   .     A
C735   C739    1.388   .     A
C736   C737    1.396   .     A
C736   C296    1.405   1_556 S
C736   C303    1.419   1_556 S
C737   C738    1.393   .     A
C737   H747    1.084   .     S
C738   H742    1.083   .     S
C739   H749    1.081   .     S
C740   H789    1.083   .     S
H741   C836    1.083   1_455 S
H744   O757    0.991   .     S
H745   C437    1.088   1_565 S
H746   N753    1.029   .     S
H748   C296    1.084   1_556 S
H750   C778    1.082   .     S
N753   N754    1.283   .     D
N753   Zn768   2.038   .     S
N754   S766    1.735   .     S
N754   Zn767   2.038   .     S
O755   Zn767   1.960   .     S
O755   C769    1.286   .     S
O756   S766    1.497   .     D
O757   S766    1.680   .     S
O758   Zn768   1.975   .     S
O759   Zn767   1.943   .     S
O759   C772    1.295   .     S
O760   Zn768   1.900   .     S
O761   Zn767   1.975   .     S
O762   Zn768   1.960   .     S
O762   C822    1.287   1_455 S
O763   Zn767   1.900   .     S
O764   Zn768   1.943   .     S
O764   C823    1.301   1_455 S
O765   S766    1.495   .     D
C769   O806    1.294   .     A
C769   C771    1.402   .     S
C770   C772    1.455   .     S
C770   C782    1.405   .     A
C770   C778    1.404   .     A
C771   C437    1.334   1_565 S
C771   H503    1.088   1_565 S
C772   O808    1.309   .     A
C773   C774    1.402   .     S
C774   O809    1.293   .     A
C774   O858    1.287   .     S
C775   O811    1.303   .     A
C775   C777    1.450   .     S
C775   O860    1.301   .     S
C776   C788    1.397   .     A
C777   C788    1.401   .     A
C777   C787    1.385   .     A
C778   C347    1.388   1_556 S
C779   C781    1.391   .     A
C779   H800    1.083   .     S
C780   C782    1.404   .     A
C780   C349    1.418   1_556 S
C780   C351    1.409   1_556 S
C781   H799    1.080   .     S
C782   C786    1.413   .     A
C783   C787    1.388   .     A
C784   C785    1.396   .     A
C784   C344    1.405   1_556 S
C784   C351    1.419   1_556 S
C785   C786    1.393   .     A
C785   H795    1.084   .     S
C786   H790    1.083   .     S
C787   H797    1.081   .     S
C788   H837    1.083   .     S
H792   O805    0.991   .     S
H793   C485    1.088   1_565 S
H794   N801    1.029   .     S
H796   C344    1.084   1_556 S
H798   C826    1.082   .     S
N801   N802    1.283   .     D
N801   Zn816   2.038   .     S
N802   S814    1.735   .     S
N802   Zn815   2.038   .     S
O803   Zn815   1.960   .     S
O803   C817    1.286   .     S
O804   S814    1.497   .     D
O805   S814    1.680   .     S
O806   Zn816   1.975   .     S
O807   Zn815   1.943   .     S
O807   C820    1.295   .     S
O808   Zn816   1.900   .     S
O809   Zn815   1.975   .     S
O810   Zn816   1.960   .     S
O811   Zn815   1.900   .     S
O812   Zn816   1.943   .     S
O813   S814    1.495   .     D
C817   O854    1.294   .     A
C817   C819    1.402   .     S
C818   C820    1.455   .     S
C818   C830    1.405   .     A
C818   C826    1.404   .     A
C819   C485    1.334   1_565 S
C819   H551    1.088   1_565 S
C820   O856    1.309   .     A
C821   C822    1.402   .     S
C821   C579    1.334   1_655 S
C822   O857    1.293   .     A
C822   O762    1.287   1_655 S
C823   O859    1.303   .     A
C823   C825    1.450   .     S
C823   O764    1.301   1_655 S
C824   C836    1.397   .     A
C825   C836    1.401   .     A
C825   C835    1.385   .     A
C826   C395    1.388   1_556 S
C827   C829    1.391   .     A
C827   H848    1.083   .     S
C828   C830    1.404   .     A
C828   C397    1.418   1_556 S
C828   C399    1.409   1_556 S
C829   H847    1.080   .     S
C830   C834    1.413   .     A
C831   C835    1.388   .     A
C832   C833    1.396   .     A
C832   C392    1.405   1_556 S
C832   C399    1.419   1_556 S
C833   C834    1.393   .     A
C833   H843    1.084   .     S
C834   H838    1.083   .     S
C835   H845    1.081   .     S
C836   H741    1.083   1_655 S
H840   O853    0.991   .     S
H841   C533    1.088   1_565 S
H842   N849    1.029   .     S
H844   C392    1.084   1_556 S
H846   C730    1.082   1_655 S
N849   N850    1.283   .     D
N849   Zn864   2.038   .     S
N850   S862    1.735   .     S
N850   Zn863   2.038   .     S
O851   Zn863   1.960   .     S
O851   C721    1.286   1_655 S
O852   S862    1.497   .     D
O853   S862    1.680   .     S
O854   Zn864   1.975   .     S
O855   Zn863   1.943   .     S
O855   C724    1.295   1_655 S
O856   Zn864   1.900   .     S
O857   Zn863   1.975   .     S
O858   Zn864   1.960   .     S
O859   Zn863   1.900   .     S
O860   Zn864   1.943   .     S
O861   S862    1.495   .     D
