data_str_m3_o2_o10_pcu_sym.214
_audit_creation_date              2020-01-03
_audit_creation_method            'Materials Studio'
_symmetry_space_group_name_H-M    'P1'
_symmetry_Int_Tables_number       1
_symmetry_cell_setting            triclinic
loop_
_symmetry_equiv_pos_as_xyz
  x,y,z
_cell_length_a                    25.7396
_cell_length_b                    30.0224
_cell_length_c                    28.3156
_cell_angle_alpha                 90.0099
_cell_angle_beta                  98.7838
_cell_angle_gamma                 89.9195
loop_
_atom_site_label
_atom_site_type_symbol
_atom_site_fract_x
_atom_site_fract_y
_atom_site_fract_z
_atom_site_U_iso_or_equiv
_atom_site_adp_type
_atom_site_occupancy
C1     C     0.16669   0.16387   0.25000   0.00000  Uiso   1.00
C2     C     0.16670   0.33612   0.25001   0.00000  Uiso   1.00
C3     C     0.15148   0.21084   0.05069   0.00000  Uiso   1.00
C4     C     0.13866   0.28385   0.44312   0.00000  Uiso   1.00
C5     C     0.15377   0.21199   0.10077   0.00000  Uiso   1.00
C6     C     0.14134   0.28332   0.39375   0.00000  Uiso   1.00
C7     C     0.17889   0.28765   0.10343   0.00000  Uiso   1.00
C8     C     0.19128   0.21693   0.40160   0.00000  Uiso   1.00
C9     C     0.17821   0.28809   0.05369   0.00000  Uiso   1.00
C10    C     0.19087   0.21646   0.45117   0.00000  Uiso   1.00
C11    C     0.16463   0.24955   0.02627   0.00000  Uiso   1.00
C12    C     0.16470   0.25012   0.47300   0.00000  Uiso   1.00
C13    C     0.06698   0.25003   0.23750   0.00000  Uiso   1.00
C14    C     0.26636   0.25006   0.26251   0.00000  Uiso   1.00
C15    C     0.01193   0.25007   0.23077   0.00000  Uiso   1.00
C16    C     0.32141   0.25020   0.26928   0.00000  Uiso   1.00
C17    C     0.14904   0.04703   0.28736   0.00000  Uiso   1.00
C18    C     0.14867   0.45299   0.20784   0.00000  Uiso   1.00
C19    C     0.14916   0.09301   0.28748   0.00000  Uiso   1.00
C20    C     0.14881   0.40701   0.20775   0.00000  Uiso   1.00
C21    C     0.16682   0.11600   0.25001   0.00000  Uiso   1.00
C22    C     0.16687   0.38399   0.25003   0.00000  Uiso   1.00
C23    C     0.18469   0.09304   0.21258   0.00000  Uiso   1.00
C24    C     0.18514   0.40690   0.29233   0.00000  Uiso   1.00
C25    C     0.18520   0.04706   0.21279   0.00000  Uiso   1.00
C26    C     0.18563   0.45288   0.29226   0.00000  Uiso   1.00
C27    C     0.16721   0.02404   0.25009   0.00000  Uiso   1.00
C28    C     0.16722   0.47594   0.25006   0.00000  Uiso   1.00
H29    H     0.32452   0.24991   0.19429   0.00000  Uiso   1.00
H30    H     0.00881   0.25039   0.30578   0.00000  Uiso   1.00
H31    H     0.13432   0.02944   0.31598   0.00000  Uiso   1.00
H32    H     0.13364   0.47061   0.17521   0.00000  Uiso   1.00
H33    H     0.13483   0.11052   0.31639   0.00000  Uiso   1.00
H34    H     0.13418   0.38953   0.17493   0.00000  Uiso   1.00
H35    H     0.19887   0.11057   0.18363   0.00000  Uiso   1.00
H36    H     0.19966   0.38932   0.32513   0.00000  Uiso   1.00
H37    H     0.20001   0.02949   0.18418   0.00000  Uiso   1.00
H38    H     0.20075   0.47042   0.32490   0.00000  Uiso   1.00
H39    H     0.14440   0.18221   0.11918   0.00000  Uiso   1.00
H40    H     0.12230   0.30947   0.37112   0.00000  Uiso   1.00
H41    H     0.18954   0.31761   0.12379   0.00000  Uiso   1.00
H42    H     0.21159   0.19084   0.38539   0.00000  Uiso   1.00
H43    H     0.18904   0.31834   0.03682   0.00000  Uiso   1.00
H44    H     0.21144   0.19009   0.47243   0.00000  Uiso   1.00
N45    N     0.16667   0.24999   0.12624   0.00000  Uiso   1.00
N46    N     0.16667   0.25001   0.37377   0.00000  Uiso   1.00
O47    O     0.16667   0.18454   0.28974   0.00000  Uiso   1.00
O48    O     0.16666   0.31547   0.21026   0.00000  Uiso   1.00
O49    O     0.16667   0.18453   0.21026   0.00000  Uiso   1.00
O50    O     0.16666   0.31547   0.28974   0.00000  Uiso   1.00
O51    O     0.09058   0.25000   0.28045   0.00000  Uiso   1.00
O52    O     0.24275   0.25000   0.21956   0.00000  Uiso   1.00
O53    O     0.09058   0.25000   0.20097   0.00000  Uiso   1.00
O54    O     0.24275   0.25001   0.29904   0.00000  Uiso   1.00
Zn55   Zn    0.16667   0.25001   0.30307   0.00000  Uiso   1.00
Zn56   Zn    0.16667   0.25000   0.19693   0.00000  Uiso   1.00
O57    O     0.14016   0.17062   0.02740   0.00000  Uiso   1.00
C58    C     0.08808   0.17066   0.00250   0.00000  Uiso   1.00
H59    H     0.08451   0.14177   0.47770   0.00000  Uiso   1.00
H60    H     0.07930   0.20056   0.47961   0.00000  Uiso   1.00
C61    C     0.04734   0.16528   0.03648   0.00000  Uiso   1.00
H62    H     0.05715   0.13543   0.05933   0.00000  Uiso   1.00
H63    H     0.04794   0.19501   0.05992   0.00000  Uiso   1.00
C64    C     0.32532   0.16022   0.00875   0.00000  Uiso   1.00
H65    H     0.31484   0.18979   0.48569   0.00000  Uiso   1.00
H66    H     0.29663   0.15728   0.03417   0.00000  Uiso   1.00
H67    H     0.32274   0.12984   0.48613   0.00000  Uiso   1.00
O68    O     0.11359   0.31927   0.46150   0.00000  Uiso   1.00
C69    C     0.06276   0.30652   0.46970   0.00000  Uiso   1.00
H70    H     0.04944   0.33184   0.49385   0.00000  Uiso   1.00
H71    H     0.06281   0.27423   0.48886   0.00000  Uiso   1.00
C72    C     0.02331   0.30562   0.42313   0.00000  Uiso   1.00
H73    H     0.02529   0.33760   0.40373   0.00000  Uiso   1.00
H74    H     0.03334   0.27808   0.39990   0.00000  Uiso   1.00
C75    C     0.30056   0.29857   0.43298   0.00000  Uiso   1.00
H76    H     0.29760   0.26661   0.45210   0.00000  Uiso   1.00
H77    H     0.27321   0.29749   0.39863   0.00000  Uiso   1.00
H78    H     0.28853   0.32631   0.45492   0.00000  Uiso   1.00
C79    C     0.50002   0.16387   0.25000   0.00000  Uiso   1.00
C80    C     0.50003   0.33612   0.25001   0.00000  Uiso   1.00
C81    C     0.48481   0.21084   0.05069   0.00000  Uiso   1.00
C82    C     0.47199   0.28385   0.44312   0.00000  Uiso   1.00
C83    C     0.48711   0.21199   0.10077   0.00000  Uiso   1.00
C84    C     0.47468   0.28332   0.39375   0.00000  Uiso   1.00
C85    C     0.51223   0.28765   0.10343   0.00000  Uiso   1.00
C86    C     0.52461   0.21693   0.40160   0.00000  Uiso   1.00
C87    C     0.51154   0.28809   0.05369   0.00000  Uiso   1.00
C88    C     0.52420   0.21646   0.45117   0.00000  Uiso   1.00
C89    C     0.49796   0.24955   0.02627   0.00000  Uiso   1.00
C90    C     0.49803   0.25012   0.47300   0.00000  Uiso   1.00
C91    C     0.40031   0.25003   0.23750   0.00000  Uiso   1.00
C92    C     0.59969   0.25006   0.26251   0.00000  Uiso   1.00
C93    C     0.34526   0.25007   0.23077   0.00000  Uiso   1.00
C94    C     0.65475   0.25020   0.26928   0.00000  Uiso   1.00
C95    C     0.48237   0.04703   0.28736   0.00000  Uiso   1.00
C96    C     0.48201   0.45299   0.20784   0.00000  Uiso   1.00
C97    C     0.48249   0.09301   0.28748   0.00000  Uiso   1.00
C98    C     0.48215   0.40701   0.20775   0.00000  Uiso   1.00
C99    C     0.50016   0.11600   0.25001   0.00000  Uiso   1.00
C100   C     0.50020   0.38399   0.25003   0.00000  Uiso   1.00
C101   C     0.51802   0.09304   0.21258   0.00000  Uiso   1.00
C102   C     0.51848   0.40690   0.29233   0.00000  Uiso   1.00
C103   C     0.51853   0.04706   0.21279   0.00000  Uiso   1.00
C104   C     0.51897   0.45288   0.29226   0.00000  Uiso   1.00
C105   C     0.50054   0.02404   0.25009   0.00000  Uiso   1.00
C106   C     0.50055   0.47594   0.25006   0.00000  Uiso   1.00
H107   H     0.65786   0.24991   0.19429   0.00000  Uiso   1.00
H108   H     0.34214   0.25039   0.30578   0.00000  Uiso   1.00
H109   H     0.46766   0.02944   0.31598   0.00000  Uiso   1.00
H110   H     0.46698   0.47061   0.17521   0.00000  Uiso   1.00
H111   H     0.46817   0.11052   0.31639   0.00000  Uiso   1.00
H112   H     0.46751   0.38953   0.17493   0.00000  Uiso   1.00
H113   H     0.53220   0.11057   0.18363   0.00000  Uiso   1.00
H114   H     0.53299   0.38932   0.32513   0.00000  Uiso   1.00
H115   H     0.53334   0.02949   0.18418   0.00000  Uiso   1.00
H116   H     0.53409   0.47042   0.32490   0.00000  Uiso   1.00
H117   H     0.47773   0.18221   0.11918   0.00000  Uiso   1.00
H118   H     0.45564   0.30947   0.37112   0.00000  Uiso   1.00
H119   H     0.52288   0.31761   0.12379   0.00000  Uiso   1.00
H120   H     0.54493   0.19084   0.38539   0.00000  Uiso   1.00
H121   H     0.52238   0.31834   0.03682   0.00000  Uiso   1.00
H122   H     0.54477   0.19009   0.47243   0.00000  Uiso   1.00
N123   N     0.50000   0.24999   0.12624   0.00000  Uiso   1.00
N124   N     0.50000   0.25001   0.37377   0.00000  Uiso   1.00
O125   O     0.50000   0.18454   0.28974   0.00000  Uiso   1.00
O126   O     0.50000   0.31547   0.21026   0.00000  Uiso   1.00
O127   O     0.50000   0.18453   0.21026   0.00000  Uiso   1.00
O128   O     0.50000   0.31547   0.28974   0.00000  Uiso   1.00
O129   O     0.42392   0.25000   0.28045   0.00000  Uiso   1.00
O130   O     0.57608   0.25000   0.21956   0.00000  Uiso   1.00
O131   O     0.42392   0.25000   0.20097   0.00000  Uiso   1.00
O132   O     0.57608   0.25001   0.29904   0.00000  Uiso   1.00
Zn133  Zn    0.50000   0.25001   0.30307   0.00000  Uiso   1.00
Zn134  Zn    0.50000   0.25000   0.19693   0.00000  Uiso   1.00
O135   O     0.47350   0.17062   0.02740   0.00000  Uiso   1.00
C136   C     0.42142   0.17066   0.00250   0.00000  Uiso   1.00
H137   H     0.41784   0.14177   0.47770   0.00000  Uiso   1.00
H138   H     0.41263   0.20056   0.47961   0.00000  Uiso   1.00
C139   C     0.38068   0.16528   0.03648   0.00000  Uiso   1.00
H140   H     0.39048   0.13543   0.05933   0.00000  Uiso   1.00
H141   H     0.38128   0.19501   0.05992   0.00000  Uiso   1.00
C142   C     0.65865   0.16022   0.00875   0.00000  Uiso   1.00
H143   H     0.64817   0.18979   0.48569   0.00000  Uiso   1.00
H144   H     0.62997   0.15728   0.03417   0.00000  Uiso   1.00
H145   H     0.65607   0.12984   0.48613   0.00000  Uiso   1.00
O146   O     0.44692   0.31927   0.46150   0.00000  Uiso   1.00
C147   C     0.39610   0.30652   0.46970   0.00000  Uiso   1.00
H148   H     0.38277   0.33184   0.49385   0.00000  Uiso   1.00
H149   H     0.39614   0.27423   0.48886   0.00000  Uiso   1.00
C150   C     0.35665   0.30562   0.42313   0.00000  Uiso   1.00
H151   H     0.35862   0.33760   0.40373   0.00000  Uiso   1.00
H152   H     0.36667   0.27808   0.39990   0.00000  Uiso   1.00
C153   C     0.63389   0.29857   0.43298   0.00000  Uiso   1.00
H154   H     0.63093   0.26661   0.45210   0.00000  Uiso   1.00
H155   H     0.60654   0.29749   0.39863   0.00000  Uiso   1.00
H156   H     0.62186   0.32631   0.45492   0.00000  Uiso   1.00
C157   C     0.83336   0.16387   0.25000   0.00000  Uiso   1.00
C158   C     0.83336   0.33612   0.25001   0.00000  Uiso   1.00
C159   C     0.81815   0.21084   0.05069   0.00000  Uiso   1.00
C160   C     0.80532   0.28385   0.44312   0.00000  Uiso   1.00
C161   C     0.82044   0.21199   0.10077   0.00000  Uiso   1.00
C162   C     0.80801   0.28332   0.39375   0.00000  Uiso   1.00
C163   C     0.84556   0.28765   0.10343   0.00000  Uiso   1.00
C164   C     0.85794   0.21693   0.40160   0.00000  Uiso   1.00
C165   C     0.84488   0.28809   0.05369   0.00000  Uiso   1.00
C166   C     0.85754   0.21646   0.45117   0.00000  Uiso   1.00
C167   C     0.83129   0.24955   0.02627   0.00000  Uiso   1.00
C168   C     0.83136   0.25012   0.47300   0.00000  Uiso   1.00
C169   C     0.73364   0.25003   0.23750   0.00000  Uiso   1.00
C170   C     0.93303   0.25006   0.26251   0.00000  Uiso   1.00
C171   C     0.67860   0.25007   0.23077   0.00000  Uiso   1.00
C172   C     0.98808   0.25020   0.26928   0.00000  Uiso   1.00
C173   C     0.81571   0.04703   0.28736   0.00000  Uiso   1.00
C174   C     0.81534   0.45299   0.20784   0.00000  Uiso   1.00
C175   C     0.81583   0.09301   0.28748   0.00000  Uiso   1.00
C176   C     0.81548   0.40701   0.20775   0.00000  Uiso   1.00
C177   C     0.83349   0.11600   0.25001   0.00000  Uiso   1.00
C178   C     0.83353   0.38399   0.25003   0.00000  Uiso   1.00
C179   C     0.85135   0.09304   0.21258   0.00000  Uiso   1.00
C180   C     0.85181   0.40690   0.29233   0.00000  Uiso   1.00
C181   C     0.85186   0.04706   0.21279   0.00000  Uiso   1.00
C182   C     0.85230   0.45288   0.29226   0.00000  Uiso   1.00
C183   C     0.83387   0.02404   0.25009   0.00000  Uiso   1.00
C184   C     0.83389   0.47594   0.25006   0.00000  Uiso   1.00
H185   H     0.99119   0.24991   0.19429   0.00000  Uiso   1.00
H186   H     0.67548   0.25039   0.30578   0.00000  Uiso   1.00
H187   H     0.80099   0.02944   0.31598   0.00000  Uiso   1.00
H188   H     0.80031   0.47061   0.17521   0.00000  Uiso   1.00
H189   H     0.80150   0.11052   0.31639   0.00000  Uiso   1.00
H190   H     0.80085   0.38953   0.17493   0.00000  Uiso   1.00
H191   H     0.86553   0.11057   0.18363   0.00000  Uiso   1.00
H192   H     0.86632   0.38932   0.32513   0.00000  Uiso   1.00
H193   H     0.86667   0.02949   0.18418   0.00000  Uiso   1.00
H194   H     0.86742   0.47042   0.32490   0.00000  Uiso   1.00
H195   H     0.81107   0.18221   0.11918   0.00000  Uiso   1.00
H196   H     0.78897   0.30947   0.37112   0.00000  Uiso   1.00
H197   H     0.85621   0.31761   0.12379   0.00000  Uiso   1.00
H198   H     0.87826   0.19084   0.38539   0.00000  Uiso   1.00
H199   H     0.85571   0.31834   0.03682   0.00000  Uiso   1.00
H200   H     0.87810   0.19009   0.47243   0.00000  Uiso   1.00
N201   N     0.83333   0.24999   0.12624   0.00000  Uiso   1.00
N202   N     0.83333   0.25001   0.37377   0.00000  Uiso   1.00
O203   O     0.83334   0.18454   0.28974   0.00000  Uiso   1.00
O204   O     0.83333   0.31547   0.21026   0.00000  Uiso   1.00
O205   O     0.83334   0.18453   0.21026   0.00000  Uiso   1.00
O206   O     0.83333   0.31547   0.28974   0.00000  Uiso   1.00
O207   O     0.75725   0.25000   0.28045   0.00000  Uiso   1.00
O208   O     0.90942   0.25000   0.21956   0.00000  Uiso   1.00
O209   O     0.75725   0.25000   0.20097   0.00000  Uiso   1.00
O210   O     0.90942   0.25001   0.29904   0.00000  Uiso   1.00
Zn211  Zn    0.83333   0.25001   0.30307   0.00000  Uiso   1.00
Zn212  Zn    0.83333   0.25000   0.19693   0.00000  Uiso   1.00
O213   O     0.80683   0.17062   0.02740   0.00000  Uiso   1.00
C214   C     0.75475   0.17066   0.00250   0.00000  Uiso   1.00
H215   H     0.75118   0.14177   0.47770   0.00000  Uiso   1.00
H216   H     0.74596   0.20056   0.47961   0.00000  Uiso   1.00
C217   C     0.71401   0.16528   0.03648   0.00000  Uiso   1.00
H218   H     0.72381   0.13543   0.05933   0.00000  Uiso   1.00
H219   H     0.71461   0.19501   0.05992   0.00000  Uiso   1.00
C220   C     0.99199   0.16022   0.00875   0.00000  Uiso   1.00
H221   H     0.98151   0.18979   0.48569   0.00000  Uiso   1.00
H222   H     0.96330   0.15728   0.03417   0.00000  Uiso   1.00
H223   H     0.98940   0.12984   0.48613   0.00000  Uiso   1.00
O224   O     0.78026   0.31927   0.46150   0.00000  Uiso   1.00
C225   C     0.72943   0.30652   0.46970   0.00000  Uiso   1.00
H226   H     0.71610   0.33184   0.49385   0.00000  Uiso   1.00
H227   H     0.72948   0.27423   0.48886   0.00000  Uiso   1.00
C228   C     0.68998   0.30562   0.42313   0.00000  Uiso   1.00
H229   H     0.69195   0.33760   0.40373   0.00000  Uiso   1.00
H230   H     0.70001   0.27808   0.39990   0.00000  Uiso   1.00
C231   C     0.96722   0.29857   0.43298   0.00000  Uiso   1.00
H232   H     0.96427   0.26661   0.45210   0.00000  Uiso   1.00
H233   H     0.93988   0.29749   0.39863   0.00000  Uiso   1.00
H234   H     0.95520   0.32631   0.45492   0.00000  Uiso   1.00
C235   C     0.16669   0.66387   0.25000   0.00000  Uiso   1.00
C236   C     0.16670   0.83612   0.25001   0.00000  Uiso   1.00
C237   C     0.15148   0.71084   0.05069   0.00000  Uiso   1.00
C238   C     0.13866   0.78385   0.44312   0.00000  Uiso   1.00
C239   C     0.15377   0.71199   0.10077   0.00000  Uiso   1.00
C240   C     0.14134   0.78332   0.39375   0.00000  Uiso   1.00
C241   C     0.17889   0.78765   0.10343   0.00000  Uiso   1.00
C242   C     0.19128   0.71693   0.40160   0.00000  Uiso   1.00
C243   C     0.17821   0.78809   0.05369   0.00000  Uiso   1.00
C244   C     0.19087   0.71646   0.45117   0.00000  Uiso   1.00
C245   C     0.16463   0.74955   0.02627   0.00000  Uiso   1.00
C246   C     0.16470   0.75012   0.47300   0.00000  Uiso   1.00
C247   C     0.06698   0.75003   0.23750   0.00000  Uiso   1.00
C248   C     0.26636   0.75006   0.26251   0.00000  Uiso   1.00
C249   C     0.01193   0.75007   0.23077   0.00000  Uiso   1.00
C250   C     0.32141   0.75020   0.26928   0.00000  Uiso   1.00
C251   C     0.14904   0.54703   0.28736   0.00000  Uiso   1.00
C252   C     0.14867   0.95299   0.20784   0.00000  Uiso   1.00
C253   C     0.14916   0.59301   0.28748   0.00000  Uiso   1.00
C254   C     0.14881   0.90701   0.20775   0.00000  Uiso   1.00
C255   C     0.16682   0.61600   0.25001   0.00000  Uiso   1.00
C256   C     0.16687   0.88399   0.25003   0.00000  Uiso   1.00
C257   C     0.18469   0.59304   0.21258   0.00000  Uiso   1.00
C258   C     0.18514   0.90690   0.29233   0.00000  Uiso   1.00
C259   C     0.18520   0.54706   0.21279   0.00000  Uiso   1.00
C260   C     0.18563   0.95288   0.29226   0.00000  Uiso   1.00
C261   C     0.16721   0.52404   0.25009   0.00000  Uiso   1.00
C262   C     0.16722   0.97594   0.25006   0.00000  Uiso   1.00
H263   H     0.32452   0.74991   0.19429   0.00000  Uiso   1.00
H264   H     0.00881   0.75039   0.30578   0.00000  Uiso   1.00
H265   H     0.13432   0.52944   0.31598   0.00000  Uiso   1.00
H266   H     0.13364   0.97061   0.17521   0.00000  Uiso   1.00
H267   H     0.13483   0.61052   0.31639   0.00000  Uiso   1.00
H268   H     0.13418   0.88953   0.17493   0.00000  Uiso   1.00
H269   H     0.19887   0.61057   0.18363   0.00000  Uiso   1.00
H270   H     0.19966   0.88932   0.32513   0.00000  Uiso   1.00
H271   H     0.20001   0.52949   0.18418   0.00000  Uiso   1.00
H272   H     0.20075   0.97042   0.32490   0.00000  Uiso   1.00
H273   H     0.14440   0.68221   0.11918   0.00000  Uiso   1.00
H274   H     0.12230   0.80947   0.37112   0.00000  Uiso   1.00
H275   H     0.18954   0.81761   0.12379   0.00000  Uiso   1.00
H276   H     0.21159   0.69084   0.38539   0.00000  Uiso   1.00
H277   H     0.18904   0.81834   0.03682   0.00000  Uiso   1.00
H278   H     0.21144   0.69009   0.47243   0.00000  Uiso   1.00
N279   N     0.16667   0.74999   0.12624   0.00000  Uiso   1.00
N280   N     0.16667   0.75001   0.37377   0.00000  Uiso   1.00
O281   O     0.16667   0.68454   0.28974   0.00000  Uiso   1.00
O282   O     0.16666   0.81547   0.21026   0.00000  Uiso   1.00
O283   O     0.16667   0.68453   0.21026   0.00000  Uiso   1.00
O284   O     0.16666   0.81547   0.28974   0.00000  Uiso   1.00
O285   O     0.09058   0.75000   0.28045   0.00000  Uiso   1.00
O286   O     0.24275   0.75000   0.21956   0.00000  Uiso   1.00
O287   O     0.09058   0.75000   0.20097   0.00000  Uiso   1.00
O288   O     0.24275   0.75001   0.29904   0.00000  Uiso   1.00
Zn289  Zn    0.16667   0.75001   0.30307   0.00000  Uiso   1.00
Zn290  Zn    0.16667   0.75000   0.19693   0.00000  Uiso   1.00
O291   O     0.14016   0.67062   0.02740   0.00000  Uiso   1.00
C292   C     0.08808   0.67066   0.00250   0.00000  Uiso   1.00
H293   H     0.08451   0.64177   0.47770   0.00000  Uiso   1.00
H294   H     0.07930   0.70056   0.47961   0.00000  Uiso   1.00
C295   C     0.04734   0.66528   0.03648   0.00000  Uiso   1.00
H296   H     0.05715   0.63543   0.05933   0.00000  Uiso   1.00
H297   H     0.04794   0.69501   0.05992   0.00000  Uiso   1.00
C298   C     0.32532   0.66022   0.00875   0.00000  Uiso   1.00
H299   H     0.31484   0.68979   0.48569   0.00000  Uiso   1.00
H300   H     0.29663   0.65728   0.03417   0.00000  Uiso   1.00
H301   H     0.32274   0.62984   0.48613   0.00000  Uiso   1.00
O302   O     0.11359   0.81927   0.46150   0.00000  Uiso   1.00
C303   C     0.06276   0.80652   0.46970   0.00000  Uiso   1.00
H304   H     0.04944   0.83184   0.49385   0.00000  Uiso   1.00
H305   H     0.06281   0.77423   0.48886   0.00000  Uiso   1.00
C306   C     0.02331   0.80562   0.42313   0.00000  Uiso   1.00
H307   H     0.02529   0.83760   0.40373   0.00000  Uiso   1.00
H308   H     0.03334   0.77808   0.39990   0.00000  Uiso   1.00
C309   C     0.30056   0.79857   0.43298   0.00000  Uiso   1.00
H310   H     0.29760   0.76661   0.45210   0.00000  Uiso   1.00
H311   H     0.27321   0.79749   0.39863   0.00000  Uiso   1.00
H312   H     0.28853   0.82631   0.45492   0.00000  Uiso   1.00
C313   C     0.50002   0.66387   0.25000   0.00000  Uiso   1.00
C314   C     0.50003   0.83612   0.25001   0.00000  Uiso   1.00
C315   C     0.48481   0.71084   0.05069   0.00000  Uiso   1.00
C316   C     0.47199   0.78385   0.44312   0.00000  Uiso   1.00
C317   C     0.48711   0.71199   0.10077   0.00000  Uiso   1.00
C318   C     0.47468   0.78332   0.39375   0.00000  Uiso   1.00
C319   C     0.51223   0.78765   0.10343   0.00000  Uiso   1.00
C320   C     0.52461   0.71693   0.40160   0.00000  Uiso   1.00
C321   C     0.51154   0.78809   0.05369   0.00000  Uiso   1.00
C322   C     0.52420   0.71646   0.45117   0.00000  Uiso   1.00
C323   C     0.49796   0.74955   0.02627   0.00000  Uiso   1.00
C324   C     0.49803   0.75012   0.47300   0.00000  Uiso   1.00
C325   C     0.40031   0.75003   0.23750   0.00000  Uiso   1.00
C326   C     0.59969   0.75006   0.26251   0.00000  Uiso   1.00
C327   C     0.34526   0.75007   0.23077   0.00000  Uiso   1.00
C328   C     0.65475   0.75020   0.26928   0.00000  Uiso   1.00
C329   C     0.48237   0.54703   0.28736   0.00000  Uiso   1.00
C330   C     0.48201   0.95299   0.20784   0.00000  Uiso   1.00
C331   C     0.48249   0.59301   0.28748   0.00000  Uiso   1.00
C332   C     0.48215   0.90701   0.20775   0.00000  Uiso   1.00
C333   C     0.50016   0.61600   0.25001   0.00000  Uiso   1.00
C334   C     0.50020   0.88399   0.25003   0.00000  Uiso   1.00
C335   C     0.51802   0.59304   0.21258   0.00000  Uiso   1.00
C336   C     0.51848   0.90690   0.29233   0.00000  Uiso   1.00
C337   C     0.51853   0.54706   0.21279   0.00000  Uiso   1.00
C338   C     0.51897   0.95288   0.29226   0.00000  Uiso   1.00
C339   C     0.50054   0.52404   0.25009   0.00000  Uiso   1.00
C340   C     0.50055   0.97594   0.25006   0.00000  Uiso   1.00
H341   H     0.65786   0.74991   0.19429   0.00000  Uiso   1.00
H342   H     0.34214   0.75039   0.30578   0.00000  Uiso   1.00
H343   H     0.46766   0.52944   0.31598   0.00000  Uiso   1.00
H344   H     0.46698   0.97061   0.17521   0.00000  Uiso   1.00
H345   H     0.46817   0.61052   0.31639   0.00000  Uiso   1.00
H346   H     0.46751   0.88953   0.17493   0.00000  Uiso   1.00
H347   H     0.53220   0.61057   0.18363   0.00000  Uiso   1.00
H348   H     0.53299   0.88932   0.32513   0.00000  Uiso   1.00
H349   H     0.53334   0.52949   0.18418   0.00000  Uiso   1.00
H350   H     0.53409   0.97042   0.32490   0.00000  Uiso   1.00
H351   H     0.47773   0.68221   0.11918   0.00000  Uiso   1.00
H352   H     0.45564   0.80947   0.37112   0.00000  Uiso   1.00
H353   H     0.52288   0.81761   0.12379   0.00000  Uiso   1.00
H354   H     0.54493   0.69084   0.38539   0.00000  Uiso   1.00
H355   H     0.52238   0.81834   0.03682   0.00000  Uiso   1.00
H356   H     0.54477   0.69009   0.47243   0.00000  Uiso   1.00
N357   N     0.50000   0.74999   0.12624   0.00000  Uiso   1.00
N358   N     0.50000   0.75001   0.37377   0.00000  Uiso   1.00
O359   O     0.50000   0.68454   0.28974   0.00000  Uiso   1.00
O360   O     0.50000   0.81547   0.21026   0.00000  Uiso   1.00
O361   O     0.50000   0.68453   0.21026   0.00000  Uiso   1.00
O362   O     0.50000   0.81547   0.28974   0.00000  Uiso   1.00
O363   O     0.42392   0.75000   0.28045   0.00000  Uiso   1.00
O364   O     0.57608   0.75000   0.21956   0.00000  Uiso   1.00
O365   O     0.42392   0.75000   0.20097   0.00000  Uiso   1.00
O366   O     0.57608   0.75001   0.29904   0.00000  Uiso   1.00
Zn367  Zn    0.50000   0.75001   0.30307   0.00000  Uiso   1.00
Zn368  Zn    0.50000   0.75000   0.19693   0.00000  Uiso   1.00
O369   O     0.47350   0.67062   0.02740   0.00000  Uiso   1.00
C370   C     0.42142   0.67066   0.00250   0.00000  Uiso   1.00
H371   H     0.41784   0.64177   0.47770   0.00000  Uiso   1.00
H372   H     0.41263   0.70056   0.47961   0.00000  Uiso   1.00
C373   C     0.38068   0.66528   0.03648   0.00000  Uiso   1.00
H374   H     0.39048   0.63543   0.05933   0.00000  Uiso   1.00
H375   H     0.38128   0.69501   0.05992   0.00000  Uiso   1.00
C376   C     0.65865   0.66022   0.00875   0.00000  Uiso   1.00
H377   H     0.64817   0.68979   0.48569   0.00000  Uiso   1.00
H378   H     0.62997   0.65728   0.03417   0.00000  Uiso   1.00
H379   H     0.65607   0.62984   0.48613   0.00000  Uiso   1.00
O380   O     0.44692   0.81927   0.46150   0.00000  Uiso   1.00
C381   C     0.39610   0.80652   0.46970   0.00000  Uiso   1.00
H382   H     0.38277   0.83184   0.49385   0.00000  Uiso   1.00
H383   H     0.39614   0.77423   0.48886   0.00000  Uiso   1.00
C384   C     0.35665   0.80562   0.42313   0.00000  Uiso   1.00
H385   H     0.35862   0.83760   0.40373   0.00000  Uiso   1.00
H386   H     0.36667   0.77808   0.39990   0.00000  Uiso   1.00
C387   C     0.63389   0.79857   0.43298   0.00000  Uiso   1.00
H388   H     0.63093   0.76661   0.45210   0.00000  Uiso   1.00
H389   H     0.60654   0.79749   0.39863   0.00000  Uiso   1.00
H390   H     0.62186   0.82631   0.45492   0.00000  Uiso   1.00
C391   C     0.83336   0.66387   0.25000   0.00000  Uiso   1.00
C392   C     0.83336   0.83612   0.25001   0.00000  Uiso   1.00
C393   C     0.81815   0.71084   0.05069   0.00000  Uiso   1.00
C394   C     0.80532   0.78385   0.44312   0.00000  Uiso   1.00
C395   C     0.82044   0.71199   0.10077   0.00000  Uiso   1.00
C396   C     0.80801   0.78332   0.39375   0.00000  Uiso   1.00
C397   C     0.84556   0.78765   0.10343   0.00000  Uiso   1.00
C398   C     0.85794   0.71693   0.40160   0.00000  Uiso   1.00
C399   C     0.84488   0.78809   0.05369   0.00000  Uiso   1.00
C400   C     0.85754   0.71646   0.45117   0.00000  Uiso   1.00
C401   C     0.83129   0.74955   0.02627   0.00000  Uiso   1.00
C402   C     0.83136   0.75012   0.47300   0.00000  Uiso   1.00
C403   C     0.73364   0.75003   0.23750   0.00000  Uiso   1.00
C404   C     0.93303   0.75006   0.26251   0.00000  Uiso   1.00
C405   C     0.67860   0.75007   0.23077   0.00000  Uiso   1.00
C406   C     0.98808   0.75020   0.26928   0.00000  Uiso   1.00
C407   C     0.81571   0.54703   0.28736   0.00000  Uiso   1.00
C408   C     0.81534   0.95299   0.20784   0.00000  Uiso   1.00
C409   C     0.81583   0.59301   0.28748   0.00000  Uiso   1.00
C410   C     0.81548   0.90701   0.20775   0.00000  Uiso   1.00
C411   C     0.83349   0.61600   0.25001   0.00000  Uiso   1.00
C412   C     0.83353   0.88399   0.25003   0.00000  Uiso   1.00
C413   C     0.85135   0.59304   0.21258   0.00000  Uiso   1.00
C414   C     0.85181   0.90690   0.29233   0.00000  Uiso   1.00
C415   C     0.85186   0.54706   0.21279   0.00000  Uiso   1.00
C416   C     0.85230   0.95288   0.29226   0.00000  Uiso   1.00
C417   C     0.83387   0.52404   0.25009   0.00000  Uiso   1.00
C418   C     0.83389   0.97594   0.25006   0.00000  Uiso   1.00
H419   H     0.99119   0.74991   0.19429   0.00000  Uiso   1.00
H420   H     0.67548   0.75039   0.30578   0.00000  Uiso   1.00
H421   H     0.80099   0.52944   0.31598   0.00000  Uiso   1.00
H422   H     0.80031   0.97061   0.17521   0.00000  Uiso   1.00
H423   H     0.80150   0.61052   0.31639   0.00000  Uiso   1.00
H424   H     0.80085   0.88953   0.17493   0.00000  Uiso   1.00
H425   H     0.86553   0.61057   0.18363   0.00000  Uiso   1.00
H426   H     0.86632   0.88932   0.32513   0.00000  Uiso   1.00
H427   H     0.86667   0.52949   0.18418   0.00000  Uiso   1.00
H428   H     0.86742   0.97042   0.32490   0.00000  Uiso   1.00
H429   H     0.81107   0.68221   0.11918   0.00000  Uiso   1.00
H430   H     0.78897   0.80947   0.37112   0.00000  Uiso   1.00
H431   H     0.85621   0.81761   0.12379   0.00000  Uiso   1.00
H432   H     0.87826   0.69084   0.38539   0.00000  Uiso   1.00
H433   H     0.85571   0.81834   0.03682   0.00000  Uiso   1.00
H434   H     0.87810   0.69009   0.47243   0.00000  Uiso   1.00
N435   N     0.83333   0.74999   0.12624   0.00000  Uiso   1.00
N436   N     0.83333   0.75001   0.37377   0.00000  Uiso   1.00
O437   O     0.83334   0.68454   0.28974   0.00000  Uiso   1.00
O438   O     0.83333   0.81547   0.21026   0.00000  Uiso   1.00
O439   O     0.83334   0.68453   0.21026   0.00000  Uiso   1.00
O440   O     0.83333   0.81547   0.28974   0.00000  Uiso   1.00
O441   O     0.75725   0.75000   0.28045   0.00000  Uiso   1.00
O442   O     0.90942   0.75000   0.21956   0.00000  Uiso   1.00
O443   O     0.75725   0.75000   0.20097   0.00000  Uiso   1.00
O444   O     0.90942   0.75001   0.29904   0.00000  Uiso   1.00
Zn445  Zn    0.83333   0.75001   0.30307   0.00000  Uiso   1.00
Zn446  Zn    0.83333   0.75000   0.19693   0.00000  Uiso   1.00
O447   O     0.80683   0.67062   0.02740   0.00000  Uiso   1.00
C448   C     0.75475   0.67066   0.00250   0.00000  Uiso   1.00
H449   H     0.75118   0.64177   0.47770   0.00000  Uiso   1.00
H450   H     0.74596   0.70056   0.47961   0.00000  Uiso   1.00
C451   C     0.71401   0.66528   0.03648   0.00000  Uiso   1.00
H452   H     0.72381   0.63543   0.05933   0.00000  Uiso   1.00
H453   H     0.71461   0.69501   0.05992   0.00000  Uiso   1.00
C454   C     0.99199   0.66022   0.00875   0.00000  Uiso   1.00
H455   H     0.98151   0.68979   0.48569   0.00000  Uiso   1.00
H456   H     0.96330   0.65728   0.03417   0.00000  Uiso   1.00
H457   H     0.98940   0.62984   0.48613   0.00000  Uiso   1.00
O458   O     0.78026   0.81927   0.46150   0.00000  Uiso   1.00
C459   C     0.72943   0.80652   0.46970   0.00000  Uiso   1.00
H460   H     0.71610   0.83184   0.49385   0.00000  Uiso   1.00
H461   H     0.72948   0.77423   0.48886   0.00000  Uiso   1.00
C462   C     0.68998   0.80562   0.42313   0.00000  Uiso   1.00
H463   H     0.69195   0.83760   0.40373   0.00000  Uiso   1.00
H464   H     0.70001   0.77808   0.39990   0.00000  Uiso   1.00
C465   C     0.96722   0.79857   0.43298   0.00000  Uiso   1.00
H466   H     0.96427   0.76661   0.45210   0.00000  Uiso   1.00
H467   H     0.93988   0.79749   0.39863   0.00000  Uiso   1.00
H468   H     0.95520   0.82631   0.45492   0.00000  Uiso   1.00
C469   C     0.16669   0.16387   0.75000   0.00000  Uiso   1.00
C470   C     0.16670   0.33612   0.75001   0.00000  Uiso   1.00
C471   C     0.15148   0.21084   0.55069   0.00000  Uiso   1.00
C472   C     0.13866   0.28385   0.94312   0.00000  Uiso   1.00
C473   C     0.15377   0.21199   0.60077   0.00000  Uiso   1.00
C474   C     0.14134   0.28332   0.89375   0.00000  Uiso   1.00
C475   C     0.17889   0.28765   0.60343   0.00000  Uiso   1.00
C476   C     0.19128   0.21693   0.90160   0.00000  Uiso   1.00
C477   C     0.17821   0.28809   0.55369   0.00000  Uiso   1.00
C478   C     0.19087   0.21646   0.95117   0.00000  Uiso   1.00
C479   C     0.16463   0.24955   0.52627   0.00000  Uiso   1.00
C480   C     0.16470   0.25012   0.97300   0.00000  Uiso   1.00
C481   C     0.06698   0.25003   0.73750   0.00000  Uiso   1.00
C482   C     0.26636   0.25006   0.76251   0.00000  Uiso   1.00
C483   C     0.01193   0.25007   0.73077   0.00000  Uiso   1.00
C484   C     0.32141   0.25020   0.76928   0.00000  Uiso   1.00
C485   C     0.14904   0.04703   0.78736   0.00000  Uiso   1.00
C486   C     0.14867   0.45299   0.70784   0.00000  Uiso   1.00
C487   C     0.14916   0.09301   0.78748   0.00000  Uiso   1.00
C488   C     0.14881   0.40701   0.70775   0.00000  Uiso   1.00
C489   C     0.16682   0.11600   0.75001   0.00000  Uiso   1.00
C490   C     0.16687   0.38399   0.75003   0.00000  Uiso   1.00
C491   C     0.18469   0.09304   0.71258   0.00000  Uiso   1.00
C492   C     0.18514   0.40690   0.79233   0.00000  Uiso   1.00
C493   C     0.18520   0.04706   0.71279   0.00000  Uiso   1.00
C494   C     0.18563   0.45288   0.79226   0.00000  Uiso   1.00
C495   C     0.16721   0.02404   0.75009   0.00000  Uiso   1.00
C496   C     0.16722   0.47594   0.75006   0.00000  Uiso   1.00
H497   H     0.32452   0.24991   0.69429   0.00000  Uiso   1.00
H498   H     0.00881   0.25039   0.80578   0.00000  Uiso   1.00
H499   H     0.13432   0.02944   0.81598   0.00000  Uiso   1.00
H500   H     0.13364   0.47061   0.67521   0.00000  Uiso   1.00
H501   H     0.13483   0.11052   0.81639   0.00000  Uiso   1.00
H502   H     0.13418   0.38953   0.67493   0.00000  Uiso   1.00
H503   H     0.19887   0.11057   0.68363   0.00000  Uiso   1.00
H504   H     0.19966   0.38932   0.82513   0.00000  Uiso   1.00
H505   H     0.20001   0.02949   0.68418   0.00000  Uiso   1.00
H506   H     0.20075   0.47042   0.82490   0.00000  Uiso   1.00
H507   H     0.14440   0.18221   0.61918   0.00000  Uiso   1.00
H508   H     0.12230   0.30947   0.87112   0.00000  Uiso   1.00
H509   H     0.18954   0.31761   0.62379   0.00000  Uiso   1.00
H510   H     0.21159   0.19084   0.88539   0.00000  Uiso   1.00
H511   H     0.18904   0.31834   0.53682   0.00000  Uiso   1.00
H512   H     0.21144   0.19009   0.97243   0.00000  Uiso   1.00
N513   N     0.16667   0.24999   0.62624   0.00000  Uiso   1.00
N514   N     0.16667   0.25001   0.87377   0.00000  Uiso   1.00
O515   O     0.16667   0.18454   0.78974   0.00000  Uiso   1.00
O516   O     0.16666   0.31547   0.71026   0.00000  Uiso   1.00
O517   O     0.16667   0.18453   0.71026   0.00000  Uiso   1.00
O518   O     0.16666   0.31547   0.78974   0.00000  Uiso   1.00
O519   O     0.09058   0.25000   0.78045   0.00000  Uiso   1.00
O520   O     0.24275   0.25000   0.71956   0.00000  Uiso   1.00
O521   O     0.09058   0.25000   0.70097   0.00000  Uiso   1.00
O522   O     0.24275   0.25001   0.79904   0.00000  Uiso   1.00
Zn523  Zn    0.16667   0.25001   0.80307   0.00000  Uiso   1.00
Zn524  Zn    0.16667   0.25000   0.69693   0.00000  Uiso   1.00
O525   O     0.14016   0.17062   0.52740   0.00000  Uiso   1.00
C526   C     0.08808   0.17066   0.50250   0.00000  Uiso   1.00
H527   H     0.08451   0.14177   0.97770   0.00000  Uiso   1.00
H528   H     0.07930   0.20056   0.97961   0.00000  Uiso   1.00
C529   C     0.04734   0.16528   0.53648   0.00000  Uiso   1.00
H530   H     0.05715   0.13543   0.55933   0.00000  Uiso   1.00
H531   H     0.04794   0.19501   0.55992   0.00000  Uiso   1.00
C532   C     0.32532   0.16022   0.50875   0.00000  Uiso   1.00
H533   H     0.31484   0.18979   0.98569   0.00000  Uiso   1.00
H534   H     0.29663   0.15728   0.53417   0.00000  Uiso   1.00
H535   H     0.32274   0.12984   0.98613   0.00000  Uiso   1.00
O536   O     0.11359   0.31927   0.96150   0.00000  Uiso   1.00
C537   C     0.06276   0.30652   0.96970   0.00000  Uiso   1.00
H538   H     0.04944   0.33184   0.99385   0.00000  Uiso   1.00
H539   H     0.06281   0.27423   0.98886   0.00000  Uiso   1.00
C540   C     0.02331   0.30562   0.92313   0.00000  Uiso   1.00
H541   H     0.02529   0.33760   0.90373   0.00000  Uiso   1.00
H542   H     0.03334   0.27808   0.89990   0.00000  Uiso   1.00
C543   C     0.30056   0.29857   0.93298   0.00000  Uiso   1.00
H544   H     0.29760   0.26661   0.95210   0.00000  Uiso   1.00
H545   H     0.27321   0.29749   0.89863   0.00000  Uiso   1.00
H546   H     0.28853   0.32631   0.95492   0.00000  Uiso   1.00
C547   C     0.50002   0.16387   0.75000   0.00000  Uiso   1.00
C548   C     0.50003   0.33612   0.75001   0.00000  Uiso   1.00
C549   C     0.48481   0.21084   0.55069   0.00000  Uiso   1.00
C550   C     0.47199   0.28385   0.94312   0.00000  Uiso   1.00
C551   C     0.48711   0.21199   0.60077   0.00000  Uiso   1.00
C552   C     0.47468   0.28332   0.89375   0.00000  Uiso   1.00
C553   C     0.51223   0.28765   0.60343   0.00000  Uiso   1.00
C554   C     0.52461   0.21693   0.90160   0.00000  Uiso   1.00
C555   C     0.51154   0.28809   0.55369   0.00000  Uiso   1.00
C556   C     0.52420   0.21646   0.95117   0.00000  Uiso   1.00
C557   C     0.49796   0.24955   0.52627   0.00000  Uiso   1.00
C558   C     0.49803   0.25012   0.97300   0.00000  Uiso   1.00
C559   C     0.40031   0.25003   0.73750   0.00000  Uiso   1.00
C560   C     0.59969   0.25006   0.76251   0.00000  Uiso   1.00
C561   C     0.34526   0.25007   0.73077   0.00000  Uiso   1.00
C562   C     0.65475   0.25020   0.76928   0.00000  Uiso   1.00
C563   C     0.48237   0.04703   0.78736   0.00000  Uiso   1.00
C564   C     0.48201   0.45299   0.70784   0.00000  Uiso   1.00
C565   C     0.48249   0.09301   0.78748   0.00000  Uiso   1.00
C566   C     0.48215   0.40701   0.70775   0.00000  Uiso   1.00
C567   C     0.50016   0.11600   0.75001   0.00000  Uiso   1.00
C568   C     0.50020   0.38399   0.75003   0.00000  Uiso   1.00
C569   C     0.51802   0.09304   0.71258   0.00000  Uiso   1.00
C570   C     0.51848   0.40690   0.79233   0.00000  Uiso   1.00
C571   C     0.51853   0.04706   0.71279   0.00000  Uiso   1.00
C572   C     0.51897   0.45288   0.79226   0.00000  Uiso   1.00
C573   C     0.50054   0.02404   0.75009   0.00000  Uiso   1.00
C574   C     0.50055   0.47594   0.75006   0.00000  Uiso   1.00
H575   H     0.65786   0.24991   0.69429   0.00000  Uiso   1.00
H576   H     0.34214   0.25039   0.80578   0.00000  Uiso   1.00
H577   H     0.46766   0.02944   0.81598   0.00000  Uiso   1.00
H578   H     0.46698   0.47061   0.67521   0.00000  Uiso   1.00
H579   H     0.46817   0.11052   0.81639   0.00000  Uiso   1.00
H580   H     0.46751   0.38953   0.67493   0.00000  Uiso   1.00
H581   H     0.53220   0.11057   0.68363   0.00000  Uiso   1.00
H582   H     0.53299   0.38932   0.82513   0.00000  Uiso   1.00
H583   H     0.53334   0.02949   0.68418   0.00000  Uiso   1.00
H584   H     0.53409   0.47042   0.82490   0.00000  Uiso   1.00
H585   H     0.47773   0.18221   0.61918   0.00000  Uiso   1.00
H586   H     0.45564   0.30947   0.87112   0.00000  Uiso   1.00
H587   H     0.52288   0.31761   0.62379   0.00000  Uiso   1.00
H588   H     0.54493   0.19084   0.88539   0.00000  Uiso   1.00
H589   H     0.52238   0.31834   0.53682   0.00000  Uiso   1.00
H590   H     0.54477   0.19009   0.97243   0.00000  Uiso   1.00
N591   N     0.50000   0.24999   0.62624   0.00000  Uiso   1.00
N592   N     0.50000   0.25001   0.87377   0.00000  Uiso   1.00
O593   O     0.50000   0.18454   0.78974   0.00000  Uiso   1.00
O594   O     0.50000   0.31547   0.71026   0.00000  Uiso   1.00
O595   O     0.50000   0.18453   0.71026   0.00000  Uiso   1.00
O596   O     0.50000   0.31547   0.78974   0.00000  Uiso   1.00
O597   O     0.42392   0.25000   0.78045   0.00000  Uiso   1.00
O598   O     0.57608   0.25000   0.71956   0.00000  Uiso   1.00
O599   O     0.42392   0.25000   0.70097   0.00000  Uiso   1.00
O600   O     0.57608   0.25001   0.79904   0.00000  Uiso   1.00
Zn601  Zn    0.50000   0.25001   0.80307   0.00000  Uiso   1.00
Zn602  Zn    0.50000   0.25000   0.69693   0.00000  Uiso   1.00
O603   O     0.47350   0.17062   0.52740   0.00000  Uiso   1.00
C604   C     0.42142   0.17066   0.50250   0.00000  Uiso   1.00
H605   H     0.41784   0.14177   0.97770   0.00000  Uiso   1.00
H606   H     0.41263   0.20056   0.97961   0.00000  Uiso   1.00
C607   C     0.38068   0.16528   0.53648   0.00000  Uiso   1.00
H608   H     0.39048   0.13543   0.55933   0.00000  Uiso   1.00
H609   H     0.38128   0.19501   0.55992   0.00000  Uiso   1.00
C610   C     0.65865   0.16022   0.50875   0.00000  Uiso   1.00
H611   H     0.64817   0.18979   0.98569   0.00000  Uiso   1.00
H612   H     0.62997   0.15728   0.53417   0.00000  Uiso   1.00
H613   H     0.65607   0.12984   0.98613   0.00000  Uiso   1.00
O614   O     0.44692   0.31927   0.96150   0.00000  Uiso   1.00
C615   C     0.39610   0.30652   0.96970   0.00000  Uiso   1.00
H616   H     0.38277   0.33184   0.99385   0.00000  Uiso   1.00
H617   H     0.39614   0.27423   0.98886   0.00000  Uiso   1.00
C618   C     0.35665   0.30562   0.92313   0.00000  Uiso   1.00
H619   H     0.35862   0.33760   0.90373   0.00000  Uiso   1.00
H620   H     0.36667   0.27808   0.89990   0.00000  Uiso   1.00
C621   C     0.63389   0.29857   0.93298   0.00000  Uiso   1.00
H622   H     0.63093   0.26661   0.95210   0.00000  Uiso   1.00
H623   H     0.60654   0.29749   0.89863   0.00000  Uiso   1.00
H624   H     0.62186   0.32631   0.95492   0.00000  Uiso   1.00
C625   C     0.83336   0.16387   0.75000   0.00000  Uiso   1.00
C626   C     0.83336   0.33612   0.75001   0.00000  Uiso   1.00
C627   C     0.81815   0.21084   0.55069   0.00000  Uiso   1.00
C628   C     0.80532   0.28385   0.94312   0.00000  Uiso   1.00
C629   C     0.82044   0.21199   0.60077   0.00000  Uiso   1.00
C630   C     0.80801   0.28332   0.89375   0.00000  Uiso   1.00
C631   C     0.84556   0.28765   0.60343   0.00000  Uiso   1.00
C632   C     0.85794   0.21693   0.90160   0.00000  Uiso   1.00
C633   C     0.84488   0.28809   0.55369   0.00000  Uiso   1.00
C634   C     0.85754   0.21646   0.95117   0.00000  Uiso   1.00
C635   C     0.83129   0.24955   0.52627   0.00000  Uiso   1.00
C636   C     0.83136   0.25012   0.97300   0.00000  Uiso   1.00
C637   C     0.73364   0.25003   0.73750   0.00000  Uiso   1.00
C638   C     0.93303   0.25006   0.76251   0.00000  Uiso   1.00
C639   C     0.67860   0.25007   0.73077   0.00000  Uiso   1.00
C640   C     0.98808   0.25020   0.76928   0.00000  Uiso   1.00
C641   C     0.81571   0.04703   0.78736   0.00000  Uiso   1.00
C642   C     0.81534   0.45299   0.70784   0.00000  Uiso   1.00
C643   C     0.81583   0.09301   0.78748   0.00000  Uiso   1.00
C644   C     0.81548   0.40701   0.70775   0.00000  Uiso   1.00
C645   C     0.83349   0.11600   0.75001   0.00000  Uiso   1.00
C646   C     0.83353   0.38399   0.75003   0.00000  Uiso   1.00
C647   C     0.85135   0.09304   0.71258   0.00000  Uiso   1.00
C648   C     0.85181   0.40690   0.79233   0.00000  Uiso   1.00
C649   C     0.85186   0.04706   0.71279   0.00000  Uiso   1.00
C650   C     0.85230   0.45288   0.79226   0.00000  Uiso   1.00
C651   C     0.83387   0.02404   0.75009   0.00000  Uiso   1.00
C652   C     0.83389   0.47594   0.75006   0.00000  Uiso   1.00
H653   H     0.99119   0.24991   0.69429   0.00000  Uiso   1.00
H654   H     0.67548   0.25039   0.80578   0.00000  Uiso   1.00
H655   H     0.80099   0.02944   0.81598   0.00000  Uiso   1.00
H656   H     0.80031   0.47061   0.67521   0.00000  Uiso   1.00
H657   H     0.80150   0.11052   0.81639   0.00000  Uiso   1.00
H658   H     0.80085   0.38953   0.67493   0.00000  Uiso   1.00
H659   H     0.86553   0.11057   0.68363   0.00000  Uiso   1.00
H660   H     0.86632   0.38932   0.82513   0.00000  Uiso   1.00
H661   H     0.86667   0.02949   0.68418   0.00000  Uiso   1.00
H662   H     0.86742   0.47042   0.82490   0.00000  Uiso   1.00
H663   H     0.81107   0.18221   0.61918   0.00000  Uiso   1.00
H664   H     0.78897   0.30947   0.87112   0.00000  Uiso   1.00
H665   H     0.85621   0.31761   0.62379   0.00000  Uiso   1.00
H666   H     0.87826   0.19084   0.88539   0.00000  Uiso   1.00
H667   H     0.85571   0.31834   0.53682   0.00000  Uiso   1.00
H668   H     0.87810   0.19009   0.97243   0.00000  Uiso   1.00
N669   N     0.83333   0.24999   0.62624   0.00000  Uiso   1.00
N670   N     0.83333   0.25001   0.87377   0.00000  Uiso   1.00
O671   O     0.83334   0.18454   0.78974   0.00000  Uiso   1.00
O672   O     0.83333   0.31547   0.71026   0.00000  Uiso   1.00
O673   O     0.83334   0.18453   0.71026   0.00000  Uiso   1.00
O674   O     0.83333   0.31547   0.78974   0.00000  Uiso   1.00
O675   O     0.75725   0.25000   0.78045   0.00000  Uiso   1.00
O676   O     0.90942   0.25000   0.71956   0.00000  Uiso   1.00
O677   O     0.75725   0.25000   0.70097   0.00000  Uiso   1.00
O678   O     0.90942   0.25001   0.79904   0.00000  Uiso   1.00
Zn679  Zn    0.83333   0.25001   0.80307   0.00000  Uiso   1.00
Zn680  Zn    0.83333   0.25000   0.69693   0.00000  Uiso   1.00
O681   O     0.80683   0.17062   0.52740   0.00000  Uiso   1.00
C682   C     0.75475   0.17066   0.50250   0.00000  Uiso   1.00
H683   H     0.75118   0.14177   0.97770   0.00000  Uiso   1.00
H684   H     0.74596   0.20056   0.97961   0.00000  Uiso   1.00
C685   C     0.71401   0.16528   0.53648   0.00000  Uiso   1.00
H686   H     0.72381   0.13543   0.55933   0.00000  Uiso   1.00
H687   H     0.71461   0.19501   0.55992   0.00000  Uiso   1.00
C688   C     0.99199   0.16022   0.50875   0.00000  Uiso   1.00
H689   H     0.98151   0.18979   0.98569   0.00000  Uiso   1.00
H690   H     0.96330   0.15728   0.53417   0.00000  Uiso   1.00
H691   H     0.98940   0.12984   0.98613   0.00000  Uiso   1.00
O692   O     0.78026   0.31927   0.96150   0.00000  Uiso   1.00
C693   C     0.72943   0.30652   0.96970   0.00000  Uiso   1.00
H694   H     0.71610   0.33184   0.99385   0.00000  Uiso   1.00
H695   H     0.72948   0.27423   0.98886   0.00000  Uiso   1.00
C696   C     0.68998   0.30562   0.92313   0.00000  Uiso   1.00
H697   H     0.69195   0.33760   0.90373   0.00000  Uiso   1.00
H698   H     0.70001   0.27808   0.89990   0.00000  Uiso   1.00
C699   C     0.96722   0.29857   0.93298   0.00000  Uiso   1.00
H700   H     0.96427   0.26661   0.95210   0.00000  Uiso   1.00
H701   H     0.93988   0.29749   0.89863   0.00000  Uiso   1.00
H702   H     0.95520   0.32631   0.95492   0.00000  Uiso   1.00
C703   C     0.16669   0.66387   0.75000   0.00000  Uiso   1.00
C704   C     0.16670   0.83612   0.75001   0.00000  Uiso   1.00
C705   C     0.15148   0.71084   0.55069   0.00000  Uiso   1.00
C706   C     0.13866   0.78385   0.94312   0.00000  Uiso   1.00
C707   C     0.15377   0.71199   0.60077   0.00000  Uiso   1.00
C708   C     0.14134   0.78332   0.89375   0.00000  Uiso   1.00
C709   C     0.17889   0.78765   0.60343   0.00000  Uiso   1.00
C710   C     0.19128   0.71693   0.90160   0.00000  Uiso   1.00
C711   C     0.17821   0.78809   0.55369   0.00000  Uiso   1.00
C712   C     0.19087   0.71646   0.95117   0.00000  Uiso   1.00
C713   C     0.16463   0.74955   0.52627   0.00000  Uiso   1.00
C714   C     0.16470   0.75012   0.97300   0.00000  Uiso   1.00
C715   C     0.06698   0.75003   0.73750   0.00000  Uiso   1.00
C716   C     0.26636   0.75006   0.76251   0.00000  Uiso   1.00
C717   C     0.01193   0.75007   0.73077   0.00000  Uiso   1.00
C718   C     0.32141   0.75020   0.76928   0.00000  Uiso   1.00
C719   C     0.14904   0.54703   0.78736   0.00000  Uiso   1.00
C720   C     0.14867   0.95299   0.70784   0.00000  Uiso   1.00
C721   C     0.14916   0.59301   0.78748   0.00000  Uiso   1.00
C722   C     0.14881   0.90701   0.70775   0.00000  Uiso   1.00
C723   C     0.16682   0.61600   0.75001   0.00000  Uiso   1.00
C724   C     0.16687   0.88399   0.75003   0.00000  Uiso   1.00
C725   C     0.18469   0.59304   0.71258   0.00000  Uiso   1.00
C726   C     0.18514   0.90690   0.79233   0.00000  Uiso   1.00
C727   C     0.18520   0.54706   0.71279   0.00000  Uiso   1.00
C728   C     0.18563   0.95288   0.79226   0.00000  Uiso   1.00
C729   C     0.16721   0.52404   0.75009   0.00000  Uiso   1.00
C730   C     0.16722   0.97594   0.75006   0.00000  Uiso   1.00
H731   H     0.32452   0.74991   0.69429   0.00000  Uiso   1.00
H732   H     0.00881   0.75039   0.80578   0.00000  Uiso   1.00
H733   H     0.13432   0.52944   0.81598   0.00000  Uiso   1.00
H734   H     0.13364   0.97061   0.67521   0.00000  Uiso   1.00
H735   H     0.13483   0.61052   0.81639   0.00000  Uiso   1.00
H736   H     0.13418   0.88953   0.67493   0.00000  Uiso   1.00
H737   H     0.19887   0.61057   0.68363   0.00000  Uiso   1.00
H738   H     0.19966   0.88932   0.82513   0.00000  Uiso   1.00
H739   H     0.20001   0.52949   0.68418   0.00000  Uiso   1.00
H740   H     0.20075   0.97042   0.82490   0.00000  Uiso   1.00
H741   H     0.14440   0.68221   0.61918   0.00000  Uiso   1.00
H742   H     0.12230   0.80947   0.87112   0.00000  Uiso   1.00
H743   H     0.18954   0.81761   0.62379   0.00000  Uiso   1.00
H744   H     0.21159   0.69084   0.88539   0.00000  Uiso   1.00
H745   H     0.18904   0.81834   0.53682   0.00000  Uiso   1.00
H746   H     0.21144   0.69009   0.97243   0.00000  Uiso   1.00
N747   N     0.16667   0.74999   0.62624   0.00000  Uiso   1.00
N748   N     0.16667   0.75001   0.87377   0.00000  Uiso   1.00
O749   O     0.16667   0.68454   0.78974   0.00000  Uiso   1.00
O750   O     0.16666   0.81547   0.71026   0.00000  Uiso   1.00
O751   O     0.16667   0.68453   0.71026   0.00000  Uiso   1.00
O752   O     0.16666   0.81547   0.78974   0.00000  Uiso   1.00
O753   O     0.09058   0.75000   0.78045   0.00000  Uiso   1.00
O754   O     0.24275   0.75000   0.71956   0.00000  Uiso   1.00
O755   O     0.09058   0.75000   0.70097   0.00000  Uiso   1.00
O756   O     0.24275   0.75001   0.79904   0.00000  Uiso   1.00
Zn757  Zn    0.16667   0.75001   0.80307   0.00000  Uiso   1.00
Zn758  Zn    0.16667   0.75000   0.69693   0.00000  Uiso   1.00
O759   O     0.14016   0.67062   0.52740   0.00000  Uiso   1.00
C760   C     0.08808   0.67066   0.50250   0.00000  Uiso   1.00
H761   H     0.08451   0.64177   0.97770   0.00000  Uiso   1.00
H762   H     0.07930   0.70056   0.97961   0.00000  Uiso   1.00
C763   C     0.04734   0.66528   0.53648   0.00000  Uiso   1.00
H764   H     0.05715   0.63543   0.55933   0.00000  Uiso   1.00
H765   H     0.04794   0.69501   0.55992   0.00000  Uiso   1.00
C766   C     0.32532   0.66022   0.50875   0.00000  Uiso   1.00
H767   H     0.31484   0.68979   0.98569   0.00000  Uiso   1.00
H768   H     0.29663   0.65728   0.53417   0.00000  Uiso   1.00
H769   H     0.32274   0.62984   0.98613   0.00000  Uiso   1.00
O770   O     0.11359   0.81927   0.96150   0.00000  Uiso   1.00
C771   C     0.06276   0.80652   0.96970   0.00000  Uiso   1.00
H772   H     0.04944   0.83184   0.99385   0.00000  Uiso   1.00
H773   H     0.06281   0.77423   0.98886   0.00000  Uiso   1.00
C774   C     0.02331   0.80562   0.92313   0.00000  Uiso   1.00
H775   H     0.02529   0.83760   0.90373   0.00000  Uiso   1.00
H776   H     0.03334   0.77808   0.89990   0.00000  Uiso   1.00
C777   C     0.30056   0.79857   0.93298   0.00000  Uiso   1.00
H778   H     0.29760   0.76661   0.95210   0.00000  Uiso   1.00
H779   H     0.27321   0.79749   0.89863   0.00000  Uiso   1.00
H780   H     0.28853   0.82631   0.95492   0.00000  Uiso   1.00
C781   C     0.50002   0.66387   0.75000   0.00000  Uiso   1.00
C782   C     0.50003   0.83612   0.75001   0.00000  Uiso   1.00
C783   C     0.48481   0.71084   0.55069   0.00000  Uiso   1.00
C784   C     0.47199   0.78385   0.94312   0.00000  Uiso   1.00
C785   C     0.48711   0.71199   0.60077   0.00000  Uiso   1.00
C786   C     0.47468   0.78332   0.89375   0.00000  Uiso   1.00
C787   C     0.51223   0.78765   0.60343   0.00000  Uiso   1.00
C788   C     0.52461   0.71693   0.90160   0.00000  Uiso   1.00
C789   C     0.51154   0.78809   0.55369   0.00000  Uiso   1.00
C790   C     0.52420   0.71646   0.95117   0.00000  Uiso   1.00
C791   C     0.49796   0.74955   0.52627   0.00000  Uiso   1.00
C792   C     0.49803   0.75012   0.97300   0.00000  Uiso   1.00
C793   C     0.40031   0.75003   0.73750   0.00000  Uiso   1.00
C794   C     0.59969   0.75006   0.76251   0.00000  Uiso   1.00
C795   C     0.34526   0.75007   0.73077   0.00000  Uiso   1.00
C796   C     0.65475   0.75020   0.76928   0.00000  Uiso   1.00
C797   C     0.48237   0.54703   0.78736   0.00000  Uiso   1.00
C798   C     0.48201   0.95299   0.70784   0.00000  Uiso   1.00
C799   C     0.48249   0.59301   0.78748   0.00000  Uiso   1.00
C800   C     0.48215   0.90701   0.70775   0.00000  Uiso   1.00
C801   C     0.50016   0.61600   0.75001   0.00000  Uiso   1.00
C802   C     0.50020   0.88399   0.75003   0.00000  Uiso   1.00
C803   C     0.51802   0.59304   0.71258   0.00000  Uiso   1.00
C804   C     0.51848   0.90690   0.79233   0.00000  Uiso   1.00
C805   C     0.51853   0.54706   0.71279   0.00000  Uiso   1.00
C806   C     0.51897   0.95288   0.79226   0.00000  Uiso   1.00
C807   C     0.50054   0.52404   0.75009   0.00000  Uiso   1.00
C808   C     0.50055   0.97594   0.75006   0.00000  Uiso   1.00
H809   H     0.65786   0.74991   0.69429   0.00000  Uiso   1.00
H810   H     0.34214   0.75039   0.80578   0.00000  Uiso   1.00
H811   H     0.46766   0.52944   0.81598   0.00000  Uiso   1.00
H812   H     0.46698   0.97061   0.67521   0.00000  Uiso   1.00
H813   H     0.46817   0.61052   0.81639   0.00000  Uiso   1.00
H814   H     0.46751   0.88953   0.67493   0.00000  Uiso   1.00
H815   H     0.53220   0.61057   0.68363   0.00000  Uiso   1.00
H816   H     0.53299   0.88932   0.82513   0.00000  Uiso   1.00
H817   H     0.53334   0.52949   0.68418   0.00000  Uiso   1.00
H818   H     0.53409   0.97042   0.82490   0.00000  Uiso   1.00
H819   H     0.47773   0.68221   0.61918   0.00000  Uiso   1.00
H820   H     0.45564   0.80947   0.87112   0.00000  Uiso   1.00
H821   H     0.52288   0.81761   0.62379   0.00000  Uiso   1.00
H822   H     0.54493   0.69084   0.88539   0.00000  Uiso   1.00
H823   H     0.52238   0.81834   0.53682   0.00000  Uiso   1.00
H824   H     0.54477   0.69009   0.97243   0.00000  Uiso   1.00
N825   N     0.50000   0.74999   0.62624   0.00000  Uiso   1.00
N826   N     0.50000   0.75001   0.87377   0.00000  Uiso   1.00
O827   O     0.50000   0.68454   0.78974   0.00000  Uiso   1.00
O828   O     0.50000   0.81547   0.71026   0.00000  Uiso   1.00
O829   O     0.50000   0.68453   0.71026   0.00000  Uiso   1.00
O830   O     0.50000   0.81547   0.78974   0.00000  Uiso   1.00
O831   O     0.42392   0.75000   0.78045   0.00000  Uiso   1.00
O832   O     0.57608   0.75000   0.71956   0.00000  Uiso   1.00
O833   O     0.42392   0.75000   0.70097   0.00000  Uiso   1.00
O834   O     0.57608   0.75001   0.79904   0.00000  Uiso   1.00
Zn835  Zn    0.50000   0.75001   0.80307   0.00000  Uiso   1.00
Zn836  Zn    0.50000   0.75000   0.69693   0.00000  Uiso   1.00
O837   O     0.47350   0.67062   0.52740   0.00000  Uiso   1.00
C838   C     0.42142   0.67066   0.50250   0.00000  Uiso   1.00
H839   H     0.41784   0.64177   0.97770   0.00000  Uiso   1.00
H840   H     0.41263   0.70056   0.97961   0.00000  Uiso   1.00
C841   C     0.38068   0.66528   0.53648   0.00000  Uiso   1.00
H842   H     0.39048   0.63543   0.55933   0.00000  Uiso   1.00
H843   H     0.38128   0.69501   0.55992   0.00000  Uiso   1.00
C844   C     0.65865   0.66022   0.50875   0.00000  Uiso   1.00
H845   H     0.64817   0.68979   0.98569   0.00000  Uiso   1.00
H846   H     0.62997   0.65728   0.53417   0.00000  Uiso   1.00
H847   H     0.65607   0.62984   0.98613   0.00000  Uiso   1.00
O848   O     0.44692   0.81927   0.96150   0.00000  Uiso   1.00
C849   C     0.39610   0.80652   0.96970   0.00000  Uiso   1.00
H850   H     0.38277   0.83184   0.99385   0.00000  Uiso   1.00
H851   H     0.39614   0.77423   0.98886   0.00000  Uiso   1.00
C852   C     0.35665   0.80562   0.92313   0.00000  Uiso   1.00
H853   H     0.35862   0.83760   0.90373   0.00000  Uiso   1.00
H854   H     0.36667   0.77808   0.89990   0.00000  Uiso   1.00
C855   C     0.63389   0.79857   0.93298   0.00000  Uiso   1.00
H856   H     0.63093   0.76661   0.95210   0.00000  Uiso   1.00
H857   H     0.60654   0.79749   0.89863   0.00000  Uiso   1.00
H858   H     0.62186   0.82631   0.95492   0.00000  Uiso   1.00
C859   C     0.83336   0.66387   0.75000   0.00000  Uiso   1.00
C860   C     0.83336   0.83612   0.75001   0.00000  Uiso   1.00
C861   C     0.81815   0.71084   0.55069   0.00000  Uiso   1.00
C862   C     0.80532   0.78385   0.94312   0.00000  Uiso   1.00
C863   C     0.82044   0.71199   0.60077   0.00000  Uiso   1.00
C864   C     0.80801   0.78332   0.89375   0.00000  Uiso   1.00
C865   C     0.84556   0.78765   0.60343   0.00000  Uiso   1.00
C866   C     0.85794   0.71693   0.90160   0.00000  Uiso   1.00
C867   C     0.84488   0.78809   0.55369   0.00000  Uiso   1.00
C868   C     0.85754   0.71646   0.95117   0.00000  Uiso   1.00
C869   C     0.83129   0.74955   0.52627   0.00000  Uiso   1.00
C870   C     0.83136   0.75012   0.97300   0.00000  Uiso   1.00
C871   C     0.73364   0.75003   0.73750   0.00000  Uiso   1.00
C872   C     0.93303   0.75006   0.76251   0.00000  Uiso   1.00
C873   C     0.67860   0.75007   0.73077   0.00000  Uiso   1.00
C874   C     0.98808   0.75020   0.76928   0.00000  Uiso   1.00
C875   C     0.81571   0.54703   0.78736   0.00000  Uiso   1.00
C876   C     0.81534   0.95299   0.70784   0.00000  Uiso   1.00
C877   C     0.81583   0.59301   0.78748   0.00000  Uiso   1.00
C878   C     0.81548   0.90701   0.70775   0.00000  Uiso   1.00
C879   C     0.83349   0.61600   0.75001   0.00000  Uiso   1.00
C880   C     0.83353   0.88399   0.75003   0.00000  Uiso   1.00
C881   C     0.85135   0.59304   0.71258   0.00000  Uiso   1.00
C882   C     0.85181   0.90690   0.79233   0.00000  Uiso   1.00
C883   C     0.85186   0.54706   0.71279   0.00000  Uiso   1.00
C884   C     0.85230   0.95288   0.79226   0.00000  Uiso   1.00
C885   C     0.83387   0.52404   0.75009   0.00000  Uiso   1.00
C886   C     0.83389   0.97594   0.75006   0.00000  Uiso   1.00
H887   H     0.99119   0.74991   0.69429   0.00000  Uiso   1.00
H888   H     0.67548   0.75039   0.80578   0.00000  Uiso   1.00
H889   H     0.80099   0.52944   0.81598   0.00000  Uiso   1.00
H890   H     0.80031   0.97061   0.67521   0.00000  Uiso   1.00
H891   H     0.80150   0.61052   0.81639   0.00000  Uiso   1.00
H892   H     0.80085   0.88953   0.67493   0.00000  Uiso   1.00
H893   H     0.86553   0.61057   0.68363   0.00000  Uiso   1.00
H894   H     0.86632   0.88932   0.82513   0.00000  Uiso   1.00
H895   H     0.86667   0.52949   0.68418   0.00000  Uiso   1.00
H896   H     0.86742   0.97042   0.82490   0.00000  Uiso   1.00
H897   H     0.81107   0.68221   0.61918   0.00000  Uiso   1.00
H898   H     0.78897   0.80947   0.87112   0.00000  Uiso   1.00
H899   H     0.85621   0.81761   0.62379   0.00000  Uiso   1.00
H900   H     0.87826   0.69084   0.88539   0.00000  Uiso   1.00
H901   H     0.85571   0.81834   0.53682   0.00000  Uiso   1.00
H902   H     0.87810   0.69009   0.97243   0.00000  Uiso   1.00
N903   N     0.83333   0.74999   0.62624   0.00000  Uiso   1.00
N904   N     0.83333   0.75001   0.87377   0.00000  Uiso   1.00
O905   O     0.83334   0.68454   0.78974   0.00000  Uiso   1.00
O906   O     0.83333   0.81547   0.71026   0.00000  Uiso   1.00
O907   O     0.83334   0.68453   0.71026   0.00000  Uiso   1.00
O908   O     0.83333   0.81547   0.78974   0.00000  Uiso   1.00
O909   O     0.75725   0.75000   0.78045   0.00000  Uiso   1.00
O910   O     0.90942   0.75000   0.71956   0.00000  Uiso   1.00
O911   O     0.75725   0.75000   0.70097   0.00000  Uiso   1.00
O912   O     0.90942   0.75001   0.79904   0.00000  Uiso   1.00
Zn913  Zn    0.83333   0.75001   0.80307   0.00000  Uiso   1.00
Zn914  Zn    0.83333   0.75000   0.69693   0.00000  Uiso   1.00
O915   O     0.80683   0.67062   0.52740   0.00000  Uiso   1.00
C916   C     0.75475   0.67066   0.50250   0.00000  Uiso   1.00
H917   H     0.75118   0.64177   0.97770   0.00000  Uiso   1.00
H918   H     0.74596   0.70056   0.97961   0.00000  Uiso   1.00
C919   C     0.71401   0.66528   0.53648   0.00000  Uiso   1.00
H920   H     0.72381   0.63543   0.55933   0.00000  Uiso   1.00
H921   H     0.71461   0.69501   0.55992   0.00000  Uiso   1.00
C922   C     0.99199   0.66022   0.50875   0.00000  Uiso   1.00
H923   H     0.98151   0.68979   0.98569   0.00000  Uiso   1.00
H924   H     0.96330   0.65728   0.53417   0.00000  Uiso   1.00
H925   H     0.98940   0.62984   0.98613   0.00000  Uiso   1.00
O926   O     0.78026   0.81927   0.96150   0.00000  Uiso   1.00
C927   C     0.72943   0.80652   0.96970   0.00000  Uiso   1.00
H928   H     0.71610   0.83184   0.99385   0.00000  Uiso   1.00
H929   H     0.72948   0.77423   0.98886   0.00000  Uiso   1.00
C930   C     0.68998   0.80562   0.92313   0.00000  Uiso   1.00
H931   H     0.69195   0.83760   0.90373   0.00000  Uiso   1.00
H932   H     0.70001   0.77808   0.89990   0.00000  Uiso   1.00
C933   C     0.96722   0.79857   0.93298   0.00000  Uiso   1.00
H934   H     0.96427   0.76661   0.95210   0.00000  Uiso   1.00
H935   H     0.93988   0.79749   0.89863   0.00000  Uiso   1.00
H936   H     0.95520   0.82631   0.95492   0.00000  Uiso   1.00
loop_
_geom_bond_atom_site_label_1
_geom_bond_atom_site_label_2
_geom_bond_distance
_geom_bond_site_symmetry_2
_ccdc_geom_bond_type
C1     C21     1.437   .     S
C1     O47     1.285   .     A
C1     O49     1.285   .     A
C2     O50     1.285   .     A
C2     C22     1.437   .     S
C2     O48     1.285   .     A
C3     O57     1.386   .     S
C3     C5      1.411   .     A
C3     C11     1.420   .     A
C4     C12     1.420   .     A
C4     O68     1.385   .     S
C4     C6      1.410   .     A
C5     N45     1.364   .     A
C5     H39     1.081   .     S
C6     H40     1.082   .     S
C6     N46     1.362   .     A
C7     N45     1.363   .     A
C7     H41     1.081   .     S
C7     C9      1.406   .     A
C8     H42     1.082   .     S
C8     N46     1.362   .     A
C8     C10     1.405   .     A
C9     H43     1.083   .     S
C9     C11     1.408   .     A
C10    H44     1.082   .     S
C10    C12     1.408   .     A
C11    C480    1.509   1_554 S
C12    C479    1.509   .     S
C13    O51     1.274   .     A
C13    O53     1.277   .     A
C13    C15     1.401   .     S
C14    O52     1.274   .     A
C14    O54     1.277   .     A
C14    C16     1.401   .     S
C15    C172    1.330   1_455 S
C15    H185    1.088   1_455 S
C16    C93     1.330   .     S
C16    H108    1.088   .     S
C17    C27     1.399   .     A
C17    H31     1.083   .     S
C17    C19     1.380   .     A
C18    C20     1.380   .     A
C18    C28     1.399   .     A
C18    H32     1.083   .     S
C19    C21     1.399   .     A
C19    H33     1.084   .     S
C20    H34     1.084   .     S
C20    C22     1.399   .     A
C21    C23     1.399   .     A
C22    C24     1.399   .     A
C23    H35     1.084   .     S
C23    C25     1.380   .     A
C24    H36     1.084   .     S
C24    C26     1.381   .     A
C25    H37     1.083   .     S
C25    C27     1.399   .     A
C26    H38     1.083   .     S
C26    C28     1.399   .     A
C27    C262    1.444   1_545 S
C28    C261    1.444   .     S
H29    C93     1.088   .     S
H30    C172    1.088   1_455 S
N45    Zn56    2.002   .     S
N46    Zn55    2.002   .     S
O47    Zn55    2.001   .     S
O48    Zn56    2.001   .     S
O49    Zn56    2.001   .     S
O50    Zn55    2.001   .     S
O51    Zn55    1.965   .     S
O52    Zn56    1.965   .     S
O53    Zn56    1.979   .     S
O54    Zn55    1.979   .     S
O57    C58     1.416   .     S
C58    C61     1.536   .     S
C58    H527    1.111   1_554 S
C58    H528    1.110   1_554 S
H59    C526    1.111   .     S
H60    C526    1.110   .     S
C61    H63     1.111   .     S
C61    H62     1.111   .     S
C61    C220    1.526   1_455 S
C64    H66     1.111   .     S
C64    C139    1.526   .     S
C64    H533    1.110   1_554 S
C64    H535    1.111   1_554 S
H65    C532    1.110   .     S
H67    C532    1.111   .     S
O68    C69     1.416   .     S
C69    C72     1.537   .     S
C69    H71     1.111   .     S
C69    H70     1.111   .     S
C72    H74     1.111   .     S
C72    H73     1.111   .     S
C72    C231    1.527   1_455 S
C75    H76     1.110   .     S
C75    H77     1.111   .     S
C75    H78     1.111   .     S
C75    C150    1.527   .     S
C79    C99     1.437   .     S
C79    O125    1.285   .     A
C79    O127    1.285   .     A
C80    O128    1.285   .     A
C80    C100    1.437   .     S
C80    O126    1.285   .     A
C81    O135    1.386   .     S
C81    C83     1.411   .     A
C81    C89     1.420   .     A
C82    C90     1.420   .     A
C82    O146    1.385   .     S
C82    C84     1.410   .     A
C83    N123    1.364   .     A
C83    H117    1.081   .     S
C84    H118    1.082   .     S
C84    N124    1.362   .     A
C85    N123    1.363   .     A
C85    H119    1.081   .     S
C85    C87     1.406   .     A
C86    H120    1.082   .     S
C86    N124    1.362   .     A
C86    C88     1.405   .     A
C87    H121    1.083   .     S
C87    C89     1.408   .     A
C88    H122    1.082   .     S
C88    C90     1.408   .     A
C89    C558    1.509   1_554 S
C90    C557    1.509   .     S
C91    O129    1.274   .     A
C91    O131    1.277   .     A
C91    C93     1.401   .     S
C92    O130    1.274   .     A
C92    O132    1.277   .     A
C92    C94     1.401   .     S
C94    C171    1.330   .     S
C94    H186    1.088   .     S
C95    C105    1.399   .     A
C95    H109    1.083   .     S
C95    C97     1.380   .     A
C96    C98     1.380   .     A
C96    C106    1.399   .     A
C96    H110    1.083   .     S
C97    C99     1.399   .     A
C97    H111    1.084   .     S
C98    H112    1.084   .     S
C98    C100    1.399   .     A
C99    C101    1.399   .     A
C100   C102    1.399   .     A
C101   H113    1.084   .     S
C101   C103    1.380   .     A
C102   H114    1.084   .     S
C102   C104    1.381   .     A
C103   H115    1.083   .     S
C103   C105    1.399   .     A
C104   H116    1.083   .     S
C104   C106    1.399   .     A
C105   C340    1.444   1_545 S
C106   C339    1.444   .     S
H107   C171    1.088   .     S
N123   Zn134   2.002   .     S
N124   Zn133   2.002   .     S
O125   Zn133   2.001   .     S
O126   Zn134   2.001   .     S
O127   Zn134   2.001   .     S
O128   Zn133   2.001   .     S
O129   Zn133   1.965   .     S
O130   Zn134   1.965   .     S
O131   Zn134   1.979   .     S
O132   Zn133   1.979   .     S
O135   C136    1.416   .     S
C136   C139    1.536   .     S
C136   H605    1.111   1_554 S
C136   H606    1.110   1_554 S
H137   C604    1.111   .     S
H138   C604    1.110   .     S
C139   H141    1.111   .     S
C139   H140    1.111   .     S
C142   H144    1.111   .     S
C142   C217    1.526   .     S
C142   H611    1.110   1_554 S
C142   H613    1.111   1_554 S
H143   C610    1.110   .     S
H145   C610    1.111   .     S
O146   C147    1.416   .     S
C147   C150    1.537   .     S
C147   H149    1.111   .     S
C147   H148    1.111   .     S
C150   H152    1.111   .     S
C150   H151    1.111   .     S
C153   H154    1.110   .     S
C153   H155    1.111   .     S
C153   H156    1.111   .     S
C153   C228    1.527   .     S
C157   C177    1.437   .     S
C157   O203    1.285   .     A
C157   O205    1.285   .     A
C158   O206    1.285   .     A
C158   C178    1.437   .     S
C158   O204    1.285   .     A
C159   O213    1.386   .     S
C159   C161    1.411   .     A
C159   C167    1.420   .     A
C160   C168    1.420   .     A
C160   O224    1.385   .     S
C160   C162    1.410   .     A
C161   N201    1.364   .     A
C161   H195    1.081   .     S
C162   H196    1.082   .     S
C162   N202    1.362   .     A
C163   N201    1.363   .     A
C163   H197    1.081   .     S
C163   C165    1.406   .     A
C164   H198    1.082   .     S
C164   N202    1.362   .     A
C164   C166    1.405   .     A
C165   H199    1.083   .     S
C165   C167    1.408   .     A
C166   H200    1.082   .     S
C166   C168    1.408   .     A
C167   C636    1.509   1_554 S
C168   C635    1.509   .     S
C169   O207    1.274   .     A
C169   O209    1.277   .     A
C169   C171    1.401   .     S
C170   O208    1.274   .     A
C170   O210    1.277   .     A
C170   C172    1.401   .     S
C172   C15     1.330   1_655 S
C172   H30     1.088   1_655 S
C173   C183    1.399   .     A
C173   H187    1.083   .     S
C173   C175    1.380   .     A
C174   C176    1.380   .     A
C174   C184    1.399   .     A
C174   H188    1.083   .     S
C175   C177    1.399   .     A
C175   H189    1.084   .     S
C176   H190    1.084   .     S
C176   C178    1.399   .     A
C177   C179    1.399   .     A
C178   C180    1.399   .     A
C179   H191    1.084   .     S
C179   C181    1.380   .     A
C180   H192    1.084   .     S
C180   C182    1.381   .     A
C181   H193    1.083   .     S
C181   C183    1.399   .     A
C182   H194    1.083   .     S
C182   C184    1.399   .     A
C183   C418    1.444   1_545 S
C184   C417    1.444   .     S
H185   C15     1.088   1_655 S
N201   Zn212   2.002   .     S
N202   Zn211   2.002   .     S
O203   Zn211   2.001   .     S
O204   Zn212   2.001   .     S
O205   Zn212   2.001   .     S
O206   Zn211   2.001   .     S
O207   Zn211   1.965   .     S
O208   Zn212   1.965   .     S
O209   Zn212   1.979   .     S
O210   Zn211   1.979   .     S
O213   C214    1.416   .     S
C214   C217    1.536   .     S
C214   H683    1.111   1_554 S
C214   H684    1.110   1_554 S
H215   C682    1.111   .     S
H216   C682    1.110   .     S
C217   H219    1.111   .     S
C217   H218    1.111   .     S
C220   H222    1.111   .     S
C220   C61     1.526   1_655 S
C220   H689    1.110   1_554 S
C220   H691    1.111   1_554 S
H221   C688    1.110   .     S
H223   C688    1.111   .     S
O224   C225    1.416   .     S
C225   C228    1.537   .     S
C225   H227    1.111   .     S
C225   H226    1.111   .     S
C228   H230    1.111   .     S
C228   H229    1.111   .     S
C231   H232    1.110   .     S
C231   H233    1.111   .     S
C231   H234    1.111   .     S
C231   C72     1.527   1_655 S
C235   C255    1.437   .     S
C235   O281    1.285   .     A
C235   O283    1.285   .     A
C236   O284    1.285   .     A
C236   C256    1.437   .     S
C236   O282    1.285   .     A
C237   O291    1.386   .     S
C237   C239    1.411   .     A
C237   C245    1.420   .     A
C238   C246    1.420   .     A
C238   O302    1.385   .     S
C238   C240    1.410   .     A
C239   N279    1.364   .     A
C239   H273    1.081   .     S
C240   H274    1.082   .     S
C240   N280    1.362   .     A
C241   N279    1.363   .     A
C241   H275    1.081   .     S
C241   C243    1.406   .     A
C242   H276    1.082   .     S
C242   N280    1.362   .     A
C242   C244    1.405   .     A
C243   H277    1.083   .     S
C243   C245    1.408   .     A
C244   H278    1.082   .     S
C244   C246    1.408   .     A
C245   C714    1.509   1_554 S
C246   C713    1.509   .     S
C247   O285    1.274   .     A
C247   O287    1.277   .     A
C247   C249    1.401   .     S
C248   O286    1.274   .     A
C248   O288    1.277   .     A
C248   C250    1.401   .     S
C249   C406    1.330   1_455 S
C249   H419    1.088   1_455 S
C250   C327    1.330   .     S
C250   H342    1.088   .     S
C251   C261    1.399   .     A
C251   H265    1.083   .     S
C251   C253    1.380   .     A
C252   C254    1.380   .     A
C252   C262    1.399   .     A
C252   H266    1.083   .     S
C253   C255    1.399   .     A
C253   H267    1.084   .     S
C254   H268    1.084   .     S
C254   C256    1.399   .     A
C255   C257    1.399   .     A
C256   C258    1.399   .     A
C257   H269    1.084   .     S
C257   C259    1.380   .     A
C258   H270    1.084   .     S
C258   C260    1.381   .     A
C259   H271    1.083   .     S
C259   C261    1.399   .     A
C260   H272    1.083   .     S
C260   C262    1.399   .     A
C262   C27     1.444   1_565 S
H263   C327    1.088   .     S
H264   C406    1.088   1_455 S
N279   Zn290   2.002   .     S
N280   Zn289   2.002   .     S
O281   Zn289   2.001   .     S
O282   Zn290   2.001   .     S
O283   Zn290   2.001   .     S
O284   Zn289   2.001   .     S
O285   Zn289   1.965   .     S
O286   Zn290   1.965   .     S
O287   Zn290   1.979   .     S
O288   Zn289   1.979   .     S
O291   C292    1.416   .     S
C292   C295    1.536   .     S
C292   H761    1.111   1_554 S
C292   H762    1.110   1_554 S
H293   C760    1.111   .     S
H294   C760    1.110   .     S
C295   H297    1.111   .     S
C295   H296    1.111   .     S
C295   C454    1.526   1_455 S
C298   H300    1.111   .     S
C298   C373    1.526   .     S
C298   H767    1.110   1_554 S
C298   H769    1.111   1_554 S
H299   C766    1.110   .     S
H301   C766    1.111   .     S
O302   C303    1.416   .     S
C303   C306    1.537   .     S
C303   H305    1.111   .     S
C303   H304    1.111   .     S
C306   H308    1.111   .     S
C306   H307    1.111   .     S
C306   C465    1.527   1_455 S
C309   H310    1.110   .     S
C309   H311    1.111   .     S
C309   H312    1.111   .     S
C309   C384    1.527   .     S
C313   C333    1.437   .     S
C313   O359    1.285   .     A
C313   O361    1.285   .     A
C314   O362    1.285   .     A
C314   C334    1.437   .     S
C314   O360    1.285   .     A
C315   O369    1.386   .     S
C315   C317    1.411   .     A
C315   C323    1.420   .     A
C316   C324    1.420   .     A
C316   O380    1.385   .     S
C316   C318    1.410   .     A
C317   N357    1.364   .     A
C317   H351    1.081   .     S
C318   H352    1.082   .     S
C318   N358    1.362   .     A
C319   N357    1.363   .     A
C319   H353    1.081   .     S
C319   C321    1.406   .     A
C320   H354    1.082   .     S
C320   N358    1.362   .     A
C320   C322    1.405   .     A
C321   H355    1.083   .     S
C321   C323    1.408   .     A
C322   H356    1.082   .     S
C322   C324    1.408   .     A
C323   C792    1.509   1_554 S
C324   C791    1.509   .     S
C325   O363    1.274   .     A
C325   O365    1.277   .     A
C325   C327    1.401   .     S
C326   O364    1.274   .     A
C326   O366    1.277   .     A
C326   C328    1.401   .     S
C328   C405    1.330   .     S
C328   H420    1.088   .     S
C329   C339    1.399   .     A
C329   H343    1.083   .     S
C329   C331    1.380   .     A
C330   C332    1.380   .     A
C330   C340    1.399   .     A
C330   H344    1.083   .     S
C331   C333    1.399   .     A
C331   H345    1.084   .     S
C332   H346    1.084   .     S
C332   C334    1.399   .     A
C333   C335    1.399   .     A
C334   C336    1.399   .     A
C335   H347    1.084   .     S
C335   C337    1.380   .     A
C336   H348    1.084   .     S
C336   C338    1.381   .     A
C337   H349    1.083   .     S
C337   C339    1.399   .     A
C338   H350    1.083   .     S
C338   C340    1.399   .     A
C340   C105    1.444   1_565 S
H341   C405    1.088   .     S
N357   Zn368   2.002   .     S
N358   Zn367   2.002   .     S
O359   Zn367   2.001   .     S
O360   Zn368   2.001   .     S
O361   Zn368   2.001   .     S
O362   Zn367   2.001   .     S
O363   Zn367   1.965   .     S
O364   Zn368   1.965   .     S
O365   Zn368   1.979   .     S
O366   Zn367   1.979   .     S
O369   C370    1.416   .     S
C370   C373    1.536   .     S
C370   H839    1.111   1_554 S
C370   H840    1.110   1_554 S
H371   C838    1.111   .     S
H372   C838    1.110   .     S
C373   H375    1.111   .     S
C373   H374    1.111   .     S
C376   H378    1.111   .     S
C376   C451    1.526   .     S
C376   H845    1.110   1_554 S
C376   H847    1.111   1_554 S
H377   C844    1.110   .     S
H379   C844    1.111   .     S
O380   C381    1.416   .     S
C381   C384    1.537   .     S
C381   H383    1.111   .     S
C381   H382    1.111   .     S
C384   H386    1.111   .     S
C384   H385    1.111   .     S
C387   H388    1.110   .     S
C387   H389    1.111   .     S
C387   H390    1.111   .     S
C387   C462    1.527   .     S
C391   C411    1.437   .     S
C391   O437    1.285   .     A
C391   O439    1.285   .     A
C392   O440    1.285   .     A
C392   C412    1.437   .     S
C392   O438    1.285   .     A
C393   O447    1.386   .     S
C393   C395    1.411   .     A
C393   C401    1.420   .     A
C394   C402    1.420   .     A
C394   O458    1.385   .     S
C394   C396    1.410   .     A
C395   N435    1.364   .     A
C395   H429    1.081   .     S
C396   H430    1.082   .     S
C396   N436    1.362   .     A
C397   N435    1.363   .     A
C397   H431    1.081   .     S
C397   C399    1.406   .     A
C398   H432    1.082   .     S
C398   N436    1.362   .     A
C398   C400    1.405   .     A
C399   H433    1.083   .     S
C399   C401    1.408   .     A
C400   H434    1.082   .     S
C400   C402    1.408   .     A
C401   C870    1.509   1_554 S
C402   C869    1.509   .     S
C403   O441    1.274   .     A
C403   O443    1.277   .     A
C403   C405    1.401   .     S
C404   O442    1.274   .     A
C404   O444    1.277   .     A
C404   C406    1.401   .     S
C406   C249    1.330   1_655 S
C406   H264    1.088   1_655 S
C407   C417    1.399   .     A
C407   H421    1.083   .     S
C407   C409    1.380   .     A
C408   C410    1.380   .     A
C408   C418    1.399   .     A
C408   H422    1.083   .     S
C409   C411    1.399   .     A
C409   H423    1.084   .     S
C410   H424    1.084   .     S
C410   C412    1.399   .     A
C411   C413    1.399   .     A
C412   C414    1.399   .     A
C413   H425    1.084   .     S
C413   C415    1.380   .     A
C414   H426    1.084   .     S
C414   C416    1.381   .     A
C415   H427    1.083   .     S
C415   C417    1.399   .     A
C416   H428    1.083   .     S
C416   C418    1.399   .     A
C418   C183    1.444   1_565 S
H419   C249    1.088   1_655 S
N435   Zn446   2.002   .     S
N436   Zn445   2.002   .     S
O437   Zn445   2.001   .     S
O438   Zn446   2.001   .     S
O439   Zn446   2.001   .     S
O440   Zn445   2.001   .     S
O441   Zn445   1.965   .     S
O442   Zn446   1.965   .     S
O443   Zn446   1.979   .     S
O444   Zn445   1.979   .     S
O447   C448    1.416   .     S
C448   C451    1.536   .     S
C448   H917    1.111   1_554 S
C448   H918    1.110   1_554 S
H449   C916    1.111   .     S
H450   C916    1.110   .     S
C451   H453    1.111   .     S
C451   H452    1.111   .     S
C454   H456    1.111   .     S
C454   C295    1.526   1_655 S
C454   H923    1.110   1_554 S
C454   H925    1.111   1_554 S
H455   C922    1.110   .     S
H457   C922    1.111   .     S
O458   C459    1.416   .     S
C459   C462    1.537   .     S
C459   H461    1.111   .     S
C459   H460    1.111   .     S
C462   H464    1.111   .     S
C462   H463    1.111   .     S
C465   H466    1.110   .     S
C465   H467    1.111   .     S
C465   H468    1.111   .     S
C465   C306    1.527   1_655 S
C469   C489    1.437   .     S
C469   O515    1.285   .     A
C469   O517    1.285   .     A
C470   O518    1.285   .     A
C470   C490    1.437   .     S
C470   O516    1.285   .     A
C471   O525    1.386   .     S
C471   C473    1.411   .     A
C471   C479    1.420   .     A
C472   C480    1.420   .     A
C472   O536    1.385   .     S
C472   C474    1.410   .     A
C473   N513    1.364   .     A
C473   H507    1.081   .     S
C474   H508    1.082   .     S
C474   N514    1.362   .     A
C475   N513    1.363   .     A
C475   H509    1.081   .     S
C475   C477    1.406   .     A
C476   H510    1.082   .     S
C476   N514    1.362   .     A
C476   C478    1.405   .     A
C477   H511    1.083   .     S
C477   C479    1.408   .     A
C478   H512    1.082   .     S
C478   C480    1.408   .     A
C480   C11     1.509   1_556 S
C481   O519    1.274   .     A
C481   O521    1.277   .     A
C481   C483    1.401   .     S
C482   O520    1.274   .     A
C482   O522    1.277   .     A
C482   C484    1.401   .     S
C483   C640    1.330   1_455 S
C483   H653    1.088   1_455 S
C484   C561    1.330   .     S
C484   H576    1.088   .     S
C485   C495    1.399   .     A
C485   H499    1.083   .     S
C485   C487    1.380   .     A
C486   C488    1.380   .     A
C486   C496    1.399   .     A
C486   H500    1.083   .     S
C487   C489    1.399   .     A
C487   H501    1.084   .     S
C488   H502    1.084   .     S
C488   C490    1.399   .     A
C489   C491    1.399   .     A
C490   C492    1.399   .     A
C491   H503    1.084   .     S
C491   C493    1.380   .     A
C492   H504    1.084   .     S
C492   C494    1.381   .     A
C493   H505    1.083   .     S
C493   C495    1.399   .     A
C494   H506    1.083   .     S
C494   C496    1.399   .     A
C495   C730    1.444   1_545 S
C496   C729    1.444   .     S
H497   C561    1.088   .     S
H498   C640    1.088   1_455 S
N513   Zn524   2.002   .     S
N514   Zn523   2.002   .     S
O515   Zn523   2.001   .     S
O516   Zn524   2.001   .     S
O517   Zn524   2.001   .     S
O518   Zn523   2.001   .     S
O519   Zn523   1.965   .     S
O520   Zn524   1.965   .     S
O521   Zn524   1.979   .     S
O522   Zn523   1.979   .     S
O525   C526    1.416   .     S
C526   C529    1.536   .     S
H527   C58     1.111   1_556 S
H528   C58     1.110   1_556 S
C529   H531    1.111   .     S
C529   H530    1.111   .     S
C529   C688    1.526   1_455 S
C532   H534    1.111   .     S
C532   C607    1.526   .     S
H533   C64     1.110   1_556 S
H535   C64     1.111   1_556 S
O536   C537    1.416   .     S
C537   C540    1.537   .     S
C537   H539    1.111   .     S
C537   H538    1.111   .     S
C540   H542    1.111   .     S
C540   H541    1.111   .     S
C540   C699    1.527   1_455 S
C543   H544    1.110   .     S
C543   H545    1.111   .     S
C543   H546    1.111   .     S
C543   C618    1.527   .     S
C547   C567    1.437   .     S
C547   O593    1.285   .     A
C547   O595    1.285   .     A
C548   O596    1.285   .     A
C548   C568    1.437   .     S
C548   O594    1.285   .     A
C549   O603    1.386   .     S
C549   C551    1.411   .     A
C549   C557    1.420   .     A
C550   C558    1.420   .     A
C550   O614    1.385   .     S
C550   C552    1.410   .     A
C551   N591    1.364   .     A
C551   H585    1.081   .     S
C552   H586    1.082   .     S
C552   N592    1.362   .     A
C553   N591    1.363   .     A
C553   H587    1.081   .     S
C553   C555    1.406   .     A
C554   H588    1.082   .     S
C554   N592    1.362   .     A
C554   C556    1.405   .     A
C555   H589    1.083   .     S
C555   C557    1.408   .     A
C556   H590    1.082   .     S
C556   C558    1.408   .     A
C558   C89     1.509   1_556 S
C559   O597    1.274   .     A
C559   O599    1.277   .     A
C559   C561    1.401   .     S
C560   O598    1.274   .     A
C560   O600    1.277   .     A
C560   C562    1.401   .     S
C562   C639    1.330   .     S
C562   H654    1.088   .     S
C563   C573    1.399   .     A
C563   H577    1.083   .     S
C563   C565    1.380   .     A
C564   C566    1.380   .     A
C564   C574    1.399   .     A
C564   H578    1.083   .     S
C565   C567    1.399   .     A
C565   H579    1.084   .     S
C566   H580    1.084   .     S
C566   C568    1.399   .     A
C567   C569    1.399   .     A
C568   C570    1.399   .     A
C569   H581    1.084   .     S
C569   C571    1.380   .     A
C570   H582    1.084   .     S
C570   C572    1.381   .     A
C571   H583    1.083   .     S
C571   C573    1.399   .     A
C572   H584    1.083   .     S
C572   C574    1.399   .     A
C573   C808    1.444   1_545 S
C574   C807    1.444   .     S
H575   C639    1.088   .     S
N591   Zn602   2.002   .     S
N592   Zn601   2.002   .     S
O593   Zn601   2.001   .     S
O594   Zn602   2.001   .     S
O595   Zn602   2.001   .     S
O596   Zn601   2.001   .     S
O597   Zn601   1.965   .     S
O598   Zn602   1.965   .     S
O599   Zn602   1.979   .     S
O600   Zn601   1.979   .     S
O603   C604    1.416   .     S
C604   C607    1.536   .     S
H605   C136    1.111   1_556 S
H606   C136    1.110   1_556 S
C607   H609    1.111   .     S
C607   H608    1.111   .     S
C610   H612    1.111   .     S
C610   C685    1.526   .     S
H611   C142    1.110   1_556 S
H613   C142    1.111   1_556 S
O614   C615    1.416   .     S
C615   C618    1.537   .     S
C615   H617    1.111   .     S
C615   H616    1.111   .     S
C618   H620    1.111   .     S
C618   H619    1.111   .     S
C621   H622    1.110   .     S
C621   H623    1.111   .     S
C621   H624    1.111   .     S
C621   C696    1.527   .     S
C625   C645    1.437   .     S
C625   O671    1.285   .     A
C625   O673    1.285   .     A
C626   O674    1.285   .     A
C626   C646    1.437   .     S
C626   O672    1.285   .     A
C627   O681    1.386   .     S
C627   C629    1.411   .     A
C627   C635    1.420   .     A
C628   C636    1.420   .     A
C628   O692    1.385   .     S
C628   C630    1.410   .     A
C629   N669    1.364   .     A
C629   H663    1.081   .     S
C630   H664    1.082   .     S
C630   N670    1.362   .     A
C631   N669    1.363   .     A
C631   H665    1.081   .     S
C631   C633    1.406   .     A
C632   H666    1.082   .     S
C632   N670    1.362   .     A
C632   C634    1.405   .     A
C633   H667    1.083   .     S
C633   C635    1.408   .     A
C634   H668    1.082   .     S
C634   C636    1.408   .     A
C636   C167    1.509   1_556 S
C637   O675    1.274   .     A
C637   O677    1.277   .     A
C637   C639    1.401   .     S
C638   O676    1.274   .     A
C638   O678    1.277   .     A
C638   C640    1.401   .     S
C640   C483    1.330   1_655 S
C640   H498    1.088   1_655 S
C641   C651    1.399   .     A
C641   H655    1.083   .     S
C641   C643    1.380   .     A
C642   C644    1.380   .     A
C642   C652    1.399   .     A
C642   H656    1.083   .     S
C643   C645    1.399   .     A
C643   H657    1.084   .     S
C644   H658    1.084   .     S
C644   C646    1.399   .     A
C645   C647    1.399   .     A
C646   C648    1.399   .     A
C647   H659    1.084   .     S
C647   C649    1.380   .     A
C648   H660    1.084   .     S
C648   C650    1.381   .     A
C649   H661    1.083   .     S
C649   C651    1.399   .     A
C650   H662    1.083   .     S
C650   C652    1.399   .     A
C651   C886    1.444   1_545 S
C652   C885    1.444   .     S
H653   C483    1.088   1_655 S
N669   Zn680   2.002   .     S
N670   Zn679   2.002   .     S
O671   Zn679   2.001   .     S
O672   Zn680   2.001   .     S
O673   Zn680   2.001   .     S
O674   Zn679   2.001   .     S
O675   Zn679   1.965   .     S
O676   Zn680   1.965   .     S
O677   Zn680   1.979   .     S
O678   Zn679   1.979   .     S
O681   C682    1.416   .     S
C682   C685    1.536   .     S
H683   C214    1.111   1_556 S
H684   C214    1.110   1_556 S
C685   H687    1.111   .     S
C685   H686    1.111   .     S
C688   H690    1.111   .     S
C688   C529    1.526   1_655 S
H689   C220    1.110   1_556 S
H691   C220    1.111   1_556 S
O692   C693    1.416   .     S
C693   C696    1.537   .     S
C693   H695    1.111   .     S
C693   H694    1.111   .     S
C696   H698    1.111   .     S
C696   H697    1.111   .     S
C699   H700    1.110   .     S
C699   H701    1.111   .     S
C699   H702    1.111   .     S
C699   C540    1.527   1_655 S
C703   C723    1.437   .     S
C703   O749    1.285   .     A
C703   O751    1.285   .     A
C704   O752    1.285   .     A
C704   C724    1.437   .     S
C704   O750    1.285   .     A
C705   O759    1.386   .     S
C705   C707    1.411   .     A
C705   C713    1.420   .     A
C706   C714    1.420   .     A
C706   O770    1.385   .     S
C706   C708    1.410   .     A
C707   N747    1.364   .     A
C707   H741    1.081   .     S
C708   H742    1.082   .     S
C708   N748    1.362   .     A
C709   N747    1.363   .     A
C709   H743    1.081   .     S
C709   C711    1.406   .     A
C710   H744    1.082   .     S
C710   N748    1.362   .     A
C710   C712    1.405   .     A
C711   H745    1.083   .     S
C711   C713    1.408   .     A
C712   H746    1.082   .     S
C712   C714    1.408   .     A
C714   C245    1.509   1_556 S
C715   O753    1.274   .     A
C715   O755    1.277   .     A
C715   C717    1.401   .     S
C716   O754    1.274   .     A
C716   O756    1.277   .     A
C716   C718    1.401   .     S
C717   C874    1.330   1_455 S
C717   H887    1.088   1_455 S
C718   C795    1.330   .     S
C718   H810    1.088   .     S
C719   C729    1.399   .     A
C719   H733    1.083   .     S
C719   C721    1.380   .     A
C720   C722    1.380   .     A
C720   C730    1.399   .     A
C720   H734    1.083   .     S
C721   C723    1.399   .     A
C721   H735    1.084   .     S
C722   H736    1.084   .     S
C722   C724    1.399   .     A
C723   C725    1.399   .     A
C724   C726    1.399   .     A
C725   H737    1.084   .     S
C725   C727    1.380   .     A
C726   H738    1.084   .     S
C726   C728    1.381   .     A
C727   H739    1.083   .     S
C727   C729    1.399   .     A
C728   H740    1.083   .     S
C728   C730    1.399   .     A
C730   C495    1.444   1_565 S
H731   C795    1.088   .     S
H732   C874    1.088   1_455 S
N747   Zn758   2.002   .     S
N748   Zn757   2.002   .     S
O749   Zn757   2.001   .     S
O750   Zn758   2.001   .     S
O751   Zn758   2.001   .     S
O752   Zn757   2.001   .     S
O753   Zn757   1.965   .     S
O754   Zn758   1.965   .     S
O755   Zn758   1.979   .     S
O756   Zn757   1.979   .     S
O759   C760    1.416   .     S
C760   C763    1.536   .     S
H761   C292    1.111   1_556 S
H762   C292    1.110   1_556 S
C763   H765    1.111   .     S
C763   H764    1.111   .     S
C763   C922    1.526   1_455 S
C766   H768    1.111   .     S
C766   C841    1.526   .     S
H767   C298    1.110   1_556 S
H769   C298    1.111   1_556 S
O770   C771    1.416   .     S
C771   C774    1.537   .     S
C771   H773    1.111   .     S
C771   H772    1.111   .     S
C774   H776    1.111   .     S
C774   H775    1.111   .     S
C774   C933    1.527   1_455 S
C777   H778    1.110   .     S
C777   H779    1.111   .     S
C777   H780    1.111   .     S
C777   C852    1.527   .     S
C781   C801    1.437   .     S
C781   O827    1.285   .     A
C781   O829    1.285   .     A
C782   O830    1.285   .     A
C782   C802    1.437   .     S
C782   O828    1.285   .     A
C783   O837    1.386   .     S
C783   C785    1.411   .     A
C783   C791    1.420   .     A
C784   C792    1.420   .     A
C784   O848    1.385   .     S
C784   C786    1.410   .     A
C785   N825    1.364   .     A
C785   H819    1.081   .     S
C786   H820    1.082   .     S
C786   N826    1.362   .     A
C787   N825    1.363   .     A
C787   H821    1.081   .     S
C787   C789    1.406   .     A
C788   H822    1.082   .     S
C788   N826    1.362   .     A
C788   C790    1.405   .     A
C789   H823    1.083   .     S
C789   C791    1.408   .     A
C790   H824    1.082   .     S
C790   C792    1.408   .     A
C792   C323    1.509   1_556 S
C793   O831    1.274   .     A
C793   O833    1.277   .     A
C793   C795    1.401   .     S
C794   O832    1.274   .     A
C794   O834    1.277   .     A
C794   C796    1.401   .     S
C796   C873    1.330   .     S
C796   H888    1.088   .     S
C797   C807    1.399   .     A
C797   H811    1.083   .     S
C797   C799    1.380   .     A
C798   C800    1.380   .     A
C798   C808    1.399   .     A
C798   H812    1.083   .     S
C799   C801    1.399   .     A
C799   H813    1.084   .     S
C800   H814    1.084   .     S
C800   C802    1.399   .     A
C801   C803    1.399   .     A
C802   C804    1.399   .     A
C803   H815    1.084   .     S
C803   C805    1.380   .     A
C804   H816    1.084   .     S
C804   C806    1.381   .     A
C805   H817    1.083   .     S
C805   C807    1.399   .     A
C806   H818    1.083   .     S
C806   C808    1.399   .     A
C808   C573    1.444   1_565 S
H809   C873    1.088   .     S
N825   Zn836   2.002   .     S
N826   Zn835   2.002   .     S
O827   Zn835   2.001   .     S
O828   Zn836   2.001   .     S
O829   Zn836   2.001   .     S
O830   Zn835   2.001   .     S
O831   Zn835   1.965   .     S
O832   Zn836   1.965   .     S
O833   Zn836   1.979   .     S
O834   Zn835   1.979   .     S
O837   C838    1.416   .     S
C838   C841    1.536   .     S
H839   C370    1.111   1_556 S
H840   C370    1.110   1_556 S
C841   H843    1.111   .     S
C841   H842    1.111   .     S
C844   H846    1.111   .     S
C844   C919    1.526   .     S
H845   C376    1.110   1_556 S
H847   C376    1.111   1_556 S
O848   C849    1.416   .     S
C849   C852    1.537   .     S
C849   H851    1.111   .     S
C849   H850    1.111   .     S
C852   H854    1.111   .     S
C852   H853    1.111   .     S
C855   H856    1.110   .     S
C855   H857    1.111   .     S
C855   H858    1.111   .     S
C855   C930    1.527   .     S
C859   C879    1.437   .     S
C859   O905    1.285   .     A
C859   O907    1.285   .     A
C860   O908    1.285   .     A
C860   C880    1.437   .     S
C860   O906    1.285   .     A
C861   O915    1.386   .     S
C861   C863    1.411   .     A
C861   C869    1.420   .     A
C862   C870    1.420   .     A
C862   O926    1.385   .     S
C862   C864    1.410   .     A
C863   N903    1.364   .     A
C863   H897    1.081   .     S
C864   H898    1.082   .     S
C864   N904    1.362   .     A
C865   N903    1.363   .     A
C865   H899    1.081   .     S
C865   C867    1.406   .     A
C866   H900    1.082   .     S
C866   N904    1.362   .     A
C866   C868    1.405   .     A
C867   H901    1.083   .     S
C867   C869    1.408   .     A
C868   H902    1.082   .     S
C868   C870    1.408   .     A
C870   C401    1.509   1_556 S
C871   O909    1.274   .     A
C871   O911    1.277   .     A
C871   C873    1.401   .     S
C872   O910    1.274   .     A
C872   O912    1.277   .     A
C872   C874    1.401   .     S
C874   C717    1.330   1_655 S
C874   H732    1.088   1_655 S
C875   C885    1.399   .     A
C875   H889    1.083   .     S
C875   C877    1.380   .     A
C876   C878    1.380   .     A
C876   C886    1.399   .     A
C876   H890    1.083   .     S
C877   C879    1.399   .     A
C877   H891    1.084   .     S
C878   H892    1.084   .     S
C878   C880    1.399   .     A
C879   C881    1.399   .     A
C880   C882    1.399   .     A
C881   H893    1.084   .     S
C881   C883    1.380   .     A
C882   H894    1.084   .     S
C882   C884    1.381   .     A
C883   H895    1.083   .     S
C883   C885    1.399   .     A
C884   H896    1.083   .     S
C884   C886    1.399   .     A
C886   C651    1.444   1_565 S
H887   C717    1.088   1_655 S
N903   Zn914   2.002   .     S
N904   Zn913   2.002   .     S
O905   Zn913   2.001   .     S
O906   Zn914   2.001   .     S
O907   Zn914   2.001   .     S
O908   Zn913   2.001   .     S
O909   Zn913   1.965   .     S
O910   Zn914   1.965   .     S
O911   Zn914   1.979   .     S
O912   Zn913   1.979   .     S
O915   C916    1.416   .     S
C916   C919    1.536   .     S
H917   C448    1.111   1_556 S
H918   C448    1.110   1_556 S
C919   H921    1.111   .     S
C919   H920    1.111   .     S
C922   H924    1.111   .     S
C922   C763    1.526   1_655 S
H923   C454    1.110   1_556 S
H925   C454    1.111   1_556 S
O926   C927    1.416   .     S
C927   C930    1.537   .     S
C927   H929    1.111   .     S
C927   H928    1.111   .     S
C930   H932    1.111   .     S
C930   H931    1.111   .     S
C933   H934    1.110   .     S
C933   H935    1.111   .     S
C933   H936    1.111   .     S
C933   C774    1.527   1_655 S
