data_str_m3_o1_o10_pcu_sym.154
_audit_creation_date              2020-01-03
_audit_creation_method            'Materials Studio'
_symmetry_space_group_name_H-M    'P1'
_symmetry_Int_Tables_number       1
_symmetry_cell_setting            triclinic
loop_
_symmetry_equiv_pos_as_xyz
  x,y,z
_cell_length_a                    25.7392
_cell_length_b                    31.9506
_cell_length_c                    29.8231
_cell_angle_alpha                 91.0236
_cell_angle_beta                  99.0948
_cell_angle_gamma                 91.1365
loop_
_atom_site_label
_atom_site_type_symbol
_atom_site_fract_x
_atom_site_fract_y
_atom_site_fract_z
_atom_site_U_iso_or_equiv
_atom_site_adp_type
_atom_site_occupancy
C1     C     0.16645   0.08676   0.16635   0.00000  Uiso   1.00
C2     C     0.16715   0.24656   0.16706   0.00000  Uiso   1.00
C3     C     0.06712   0.16641   0.15470   0.00000  Uiso   1.00
C4     C     0.26624   0.16658   0.17871   0.00000  Uiso   1.00
C5     C     0.01193   0.16590   0.14859   0.00000  Uiso   1.00
C6     C     0.32149   0.16638   0.18518   0.00000  Uiso   1.00
C7     C     0.19481   0.02137   0.13714   0.00000  Uiso   1.00
C8     C     0.14029   0.31198   0.19729   0.00000  Uiso   1.00
C9     C     0.19514   0.31177   0.13754   0.00000  Uiso   1.00
C10    C     0.13924   0.02153   0.19630   0.00000  Uiso   1.00
C11    C     0.16784   0.29075   0.16760   0.00000  Uiso   1.00
C12    C     0.16641   0.04257   0.16617   0.00000  Uiso   1.00
C13    C     0.20001   0.19240   0.02954   0.00000  Uiso   1.00
C14    C     0.13256   0.14163   0.30368   0.00000  Uiso   1.00
C15    C     0.20215   0.19130   0.31551   0.00000  Uiso   1.00
C16    C     0.13403   0.13970   0.01807   0.00000  Uiso   1.00
H17    H     0.32426   0.16512   0.11416   0.00000  Uiso   1.00
H18    H     0.00911   0.16681   0.21983   0.00000  Uiso   1.00
H19    H     0.21726   0.03794   0.11497   0.00000  Uiso   1.00
H20    H     0.11883   0.29542   0.22026   0.00000  Uiso   1.00
H21    H     0.21706   0.29504   0.11500   0.00000  Uiso   1.00
H22    H     0.11694   0.03825   0.21853   0.00000  Uiso   1.00
H23    H     0.22635   0.21300   0.05221   0.00000  Uiso   1.00
H24    H     0.10519   0.12191   0.28087   0.00000  Uiso   1.00
N25    N     0.16665   0.16666   0.28573   0.00000  Uiso   1.00
N26    N     0.16668   0.16668   0.04760   0.00000  Uiso   1.00
O27    O     0.16666   0.10558   0.20487   0.00000  Uiso   1.00
O28    O     0.16667   0.22775   0.12846   0.00000  Uiso   1.00
O29    O     0.16666   0.10559   0.12843   0.00000  Uiso   1.00
O30    O     0.16667   0.22774   0.20490   0.00000  Uiso   1.00
O31    O     0.09058   0.16666   0.19595   0.00000  Uiso   1.00
O32    O     0.24275   0.16667   0.13739   0.00000  Uiso   1.00
O33    O     0.09058   0.16667   0.11950   0.00000  Uiso   1.00
O34    O     0.24275   0.16666   0.21383   0.00000  Uiso   1.00
Zn35   Zn    0.16667   0.16666   0.21771   0.00000  Uiso   1.00
Zn36   Zn    0.16667   0.16667   0.11563   0.00000  Uiso   1.00
C37    C     0.24486   0.21794   0.29992   0.00000  Uiso   1.00
C38    C     0.29852   0.19651   0.30565   0.00000  Uiso   1.00
C39    C     0.32487   0.19407   0.02164   0.00000  Uiso   1.00
H40    H     0.32441   0.22479   0.03958   0.00000  Uiso   1.00
H41    H     0.30429   0.16983   0.03881   0.00000  Uiso   1.00
H42    H     0.03306   0.18476   0.02298   0.00000  Uiso   1.00
H43    H     0.29421   0.16424   0.29090   0.00000  Uiso   1.00
H44    H     0.32508   0.21469   0.28685   0.00000  Uiso   1.00
H45    H     0.23427   0.22608   0.26424   0.00000  Uiso   1.00
H46    H     0.24883   0.24854   0.31868   0.00000  Uiso   1.00
C47    C     0.09999   0.10597   0.03438   0.00000  Uiso   1.00
C48    C     0.12548   0.06274   0.03519   0.00000  Uiso   1.00
C49    C     0.12018   0.04121   0.32180   0.00000  Uiso   1.00
H50    H     0.07885   0.04164   0.30411   0.00000  Uiso   1.00
H51    H     0.14658   0.05665   0.30079   0.00000  Uiso   1.00
H52    H     0.13209   0.00810   0.32587   0.00000  Uiso   1.00
H53    H     0.16786   0.06575   0.04968   0.00000  Uiso   1.00
H54    H     0.10614   0.04217   0.05765   0.00000  Uiso   1.00
H55    H     0.09222   0.11315   0.06861   0.00000  Uiso   1.00
H56    H     0.06055   0.10463   0.01279   0.00000  Uiso   1.00
C57    C     0.49979   0.08676   0.16635   0.00000  Uiso   1.00
C58    C     0.50048   0.24656   0.16706   0.00000  Uiso   1.00
C59    C     0.40045   0.16641   0.15470   0.00000  Uiso   1.00
C60    C     0.59957   0.16658   0.17871   0.00000  Uiso   1.00
C61    C     0.34527   0.16590   0.14859   0.00000  Uiso   1.00
C62    C     0.65482   0.16638   0.18518   0.00000  Uiso   1.00
C63    C     0.52815   0.02137   0.13714   0.00000  Uiso   1.00
C64    C     0.47362   0.31198   0.19729   0.00000  Uiso   1.00
C65    C     0.52847   0.31177   0.13754   0.00000  Uiso   1.00
C66    C     0.47257   0.02153   0.19630   0.00000  Uiso   1.00
C67    C     0.50117   0.29075   0.16760   0.00000  Uiso   1.00
C68    C     0.49975   0.04257   0.16617   0.00000  Uiso   1.00
C69    C     0.53334   0.19240   0.02954   0.00000  Uiso   1.00
C70    C     0.46590   0.14163   0.30368   0.00000  Uiso   1.00
C71    C     0.53548   0.19130   0.31551   0.00000  Uiso   1.00
C72    C     0.46736   0.13970   0.01807   0.00000  Uiso   1.00
H73    H     0.65759   0.16512   0.11416   0.00000  Uiso   1.00
H74    H     0.34244   0.16681   0.21983   0.00000  Uiso   1.00
H75    H     0.55060   0.03794   0.11497   0.00000  Uiso   1.00
H76    H     0.45216   0.29542   0.22026   0.00000  Uiso   1.00
H77    H     0.55040   0.29504   0.11500   0.00000  Uiso   1.00
H78    H     0.45028   0.03825   0.21853   0.00000  Uiso   1.00
H79    H     0.55969   0.21300   0.05221   0.00000  Uiso   1.00
H80    H     0.43852   0.12191   0.28087   0.00000  Uiso   1.00
N81    N     0.49999   0.16666   0.28573   0.00000  Uiso   1.00
N82    N     0.50001   0.16668   0.04760   0.00000  Uiso   1.00
O83    O     0.50000   0.10558   0.20487   0.00000  Uiso   1.00
O84    O     0.50000   0.22775   0.12846   0.00000  Uiso   1.00
O85    O     0.50000   0.10559   0.12843   0.00000  Uiso   1.00
O86    O     0.50000   0.22774   0.20490   0.00000  Uiso   1.00
O87    O     0.42392   0.16666   0.19595   0.00000  Uiso   1.00
O88    O     0.57608   0.16667   0.13739   0.00000  Uiso   1.00
O89    O     0.42392   0.16667   0.11950   0.00000  Uiso   1.00
O90    O     0.57608   0.16666   0.21383   0.00000  Uiso   1.00
Zn91   Zn    0.50000   0.16666   0.21771   0.00000  Uiso   1.00
Zn92   Zn    0.50000   0.16667   0.11563   0.00000  Uiso   1.00
C93    C     0.57819   0.21794   0.29992   0.00000  Uiso   1.00
C94    C     0.63186   0.19651   0.30565   0.00000  Uiso   1.00
C95    C     0.65820   0.19407   0.02164   0.00000  Uiso   1.00
H96    H     0.65774   0.22479   0.03958   0.00000  Uiso   1.00
H97    H     0.63762   0.16983   0.03881   0.00000  Uiso   1.00
H98    H     0.36639   0.18476   0.02298   0.00000  Uiso   1.00
H99    H     0.62754   0.16424   0.29090   0.00000  Uiso   1.00
H100   H     0.65842   0.21469   0.28685   0.00000  Uiso   1.00
H101   H     0.56761   0.22608   0.26424   0.00000  Uiso   1.00
H102   H     0.58216   0.24854   0.31868   0.00000  Uiso   1.00
C103   C     0.43332   0.10597   0.03438   0.00000  Uiso   1.00
C104   C     0.45881   0.06274   0.03519   0.00000  Uiso   1.00
C105   C     0.45351   0.04121   0.32180   0.00000  Uiso   1.00
H106   H     0.41218   0.04164   0.30411   0.00000  Uiso   1.00
H107   H     0.47991   0.05665   0.30079   0.00000  Uiso   1.00
H108   H     0.46542   0.00810   0.32587   0.00000  Uiso   1.00
H109   H     0.50119   0.06575   0.04968   0.00000  Uiso   1.00
H110   H     0.43947   0.04217   0.05765   0.00000  Uiso   1.00
H111   H     0.42555   0.11315   0.06861   0.00000  Uiso   1.00
H112   H     0.39388   0.10463   0.01279   0.00000  Uiso   1.00
C113   C     0.83312   0.08676   0.16635   0.00000  Uiso   1.00
C114   C     0.83382   0.24656   0.16706   0.00000  Uiso   1.00
C115   C     0.73378   0.16641   0.15470   0.00000  Uiso   1.00
C116   C     0.93291   0.16658   0.17871   0.00000  Uiso   1.00
C117   C     0.67860   0.16590   0.14859   0.00000  Uiso   1.00
C118   C     0.98816   0.16638   0.18518   0.00000  Uiso   1.00
C119   C     0.86148   0.02137   0.13714   0.00000  Uiso   1.00
C120   C     0.80696   0.31198   0.19729   0.00000  Uiso   1.00
C121   C     0.86181   0.31177   0.13754   0.00000  Uiso   1.00
C122   C     0.80590   0.02153   0.19630   0.00000  Uiso   1.00
C123   C     0.83450   0.29075   0.16760   0.00000  Uiso   1.00
C124   C     0.83308   0.04257   0.16617   0.00000  Uiso   1.00
C125   C     0.86667   0.19240   0.02954   0.00000  Uiso   1.00
C126   C     0.79923   0.14163   0.30368   0.00000  Uiso   1.00
C127   C     0.86881   0.19130   0.31551   0.00000  Uiso   1.00
C128   C     0.80069   0.13970   0.01807   0.00000  Uiso   1.00
H129   H     0.99093   0.16512   0.11416   0.00000  Uiso   1.00
H130   H     0.67577   0.16681   0.21983   0.00000  Uiso   1.00
H131   H     0.88393   0.03794   0.11497   0.00000  Uiso   1.00
H132   H     0.78550   0.29542   0.22026   0.00000  Uiso   1.00
H133   H     0.88373   0.29504   0.11500   0.00000  Uiso   1.00
H134   H     0.78361   0.03825   0.21853   0.00000  Uiso   1.00
H135   H     0.89302   0.21300   0.05221   0.00000  Uiso   1.00
H136   H     0.77185   0.12191   0.28087   0.00000  Uiso   1.00
N137   N     0.83332   0.16666   0.28573   0.00000  Uiso   1.00
N138   N     0.83335   0.16668   0.04760   0.00000  Uiso   1.00
O139   O     0.83333   0.10558   0.20487   0.00000  Uiso   1.00
O140   O     0.83334   0.22775   0.12846   0.00000  Uiso   1.00
O141   O     0.83333   0.10559   0.12843   0.00000  Uiso   1.00
O142   O     0.83334   0.22774   0.20490   0.00000  Uiso   1.00
O143   O     0.75725   0.16666   0.19595   0.00000  Uiso   1.00
O144   O     0.90942   0.16667   0.13739   0.00000  Uiso   1.00
O145   O     0.75725   0.16667   0.11950   0.00000  Uiso   1.00
O146   O     0.90942   0.16666   0.21383   0.00000  Uiso   1.00
Zn147  Zn    0.83333   0.16666   0.21771   0.00000  Uiso   1.00
Zn148  Zn    0.83333   0.16667   0.11563   0.00000  Uiso   1.00
C149   C     0.91152   0.21794   0.29992   0.00000  Uiso   1.00
C150   C     0.96519   0.19651   0.30565   0.00000  Uiso   1.00
C151   C     0.99154   0.19407   0.02164   0.00000  Uiso   1.00
H152   H     0.99108   0.22479   0.03958   0.00000  Uiso   1.00
H153   H     0.97096   0.16983   0.03881   0.00000  Uiso   1.00
H154   H     0.69972   0.18476   0.02298   0.00000  Uiso   1.00
H155   H     0.96088   0.16424   0.29090   0.00000  Uiso   1.00
H156   H     0.99175   0.21469   0.28685   0.00000  Uiso   1.00
H157   H     0.90094   0.22608   0.26424   0.00000  Uiso   1.00
H158   H     0.91550   0.24854   0.31868   0.00000  Uiso   1.00
C159   C     0.76666   0.10597   0.03438   0.00000  Uiso   1.00
C160   C     0.79214   0.06274   0.03519   0.00000  Uiso   1.00
C161   C     0.78685   0.04121   0.32180   0.00000  Uiso   1.00
H162   H     0.74552   0.04164   0.30411   0.00000  Uiso   1.00
H163   H     0.81324   0.05665   0.30079   0.00000  Uiso   1.00
H164   H     0.79876   0.00810   0.32587   0.00000  Uiso   1.00
H165   H     0.83453   0.06575   0.04968   0.00000  Uiso   1.00
H166   H     0.77281   0.04217   0.05765   0.00000  Uiso   1.00
H167   H     0.75889   0.11315   0.06861   0.00000  Uiso   1.00
H168   H     0.72722   0.10463   0.01279   0.00000  Uiso   1.00
C169   C     0.16645   0.42009   0.16635   0.00000  Uiso   1.00
C170   C     0.16715   0.57990   0.16706   0.00000  Uiso   1.00
C171   C     0.06712   0.49975   0.15470   0.00000  Uiso   1.00
C172   C     0.26624   0.49992   0.17871   0.00000  Uiso   1.00
C173   C     0.01193   0.49923   0.14859   0.00000  Uiso   1.00
C174   C     0.32149   0.49972   0.18518   0.00000  Uiso   1.00
C175   C     0.19481   0.35470   0.13714   0.00000  Uiso   1.00
C176   C     0.14029   0.64531   0.19729   0.00000  Uiso   1.00
C177   C     0.19514   0.64511   0.13754   0.00000  Uiso   1.00
C178   C     0.13924   0.35487   0.19630   0.00000  Uiso   1.00
C179   C     0.16784   0.62408   0.16760   0.00000  Uiso   1.00
C180   C     0.16641   0.37590   0.16617   0.00000  Uiso   1.00
C181   C     0.20001   0.52573   0.02954   0.00000  Uiso   1.00
C182   C     0.13256   0.47496   0.30368   0.00000  Uiso   1.00
C183   C     0.20215   0.52464   0.31551   0.00000  Uiso   1.00
C184   C     0.13403   0.47304   0.01807   0.00000  Uiso   1.00
H185   H     0.32426   0.49845   0.11416   0.00000  Uiso   1.00
H186   H     0.00911   0.50015   0.21983   0.00000  Uiso   1.00
H187   H     0.21726   0.37128   0.11497   0.00000  Uiso   1.00
H188   H     0.11883   0.62875   0.22026   0.00000  Uiso   1.00
H189   H     0.21706   0.62837   0.11500   0.00000  Uiso   1.00
H190   H     0.11694   0.37158   0.21853   0.00000  Uiso   1.00
H191   H     0.22635   0.54633   0.05221   0.00000  Uiso   1.00
H192   H     0.10519   0.45524   0.28087   0.00000  Uiso   1.00
N193   N     0.16665   0.49999   0.28573   0.00000  Uiso   1.00
N194   N     0.16668   0.50001   0.04760   0.00000  Uiso   1.00
O195   O     0.16666   0.43892   0.20487   0.00000  Uiso   1.00
O196   O     0.16667   0.56108   0.12846   0.00000  Uiso   1.00
O197   O     0.16666   0.43893   0.12843   0.00000  Uiso   1.00
O198   O     0.16667   0.56107   0.20490   0.00000  Uiso   1.00
O199   O     0.09058   0.50000   0.19595   0.00000  Uiso   1.00
O200   O     0.24275   0.50000   0.13739   0.00000  Uiso   1.00
O201   O     0.09058   0.50000   0.11950   0.00000  Uiso   1.00
O202   O     0.24275   0.50000   0.21383   0.00000  Uiso   1.00
Zn203  Zn    0.16667   0.49999   0.21771   0.00000  Uiso   1.00
Zn204  Zn    0.16667   0.50001   0.11563   0.00000  Uiso   1.00
C205   C     0.24486   0.55127   0.29992   0.00000  Uiso   1.00
C206   C     0.29852   0.52984   0.30565   0.00000  Uiso   1.00
C207   C     0.32487   0.52740   0.02164   0.00000  Uiso   1.00
H208   H     0.32441   0.55812   0.03958   0.00000  Uiso   1.00
H209   H     0.30429   0.50316   0.03881   0.00000  Uiso   1.00
H210   H     0.03306   0.51810   0.02298   0.00000  Uiso   1.00
H211   H     0.29421   0.49758   0.29090   0.00000  Uiso   1.00
H212   H     0.32508   0.54802   0.28685   0.00000  Uiso   1.00
H213   H     0.23427   0.55941   0.26424   0.00000  Uiso   1.00
H214   H     0.24883   0.58187   0.31868   0.00000  Uiso   1.00
C215   C     0.09999   0.43930   0.03438   0.00000  Uiso   1.00
C216   C     0.12548   0.39607   0.03519   0.00000  Uiso   1.00
C217   C     0.12018   0.37455   0.32180   0.00000  Uiso   1.00
H218   H     0.07885   0.37497   0.30411   0.00000  Uiso   1.00
H219   H     0.14658   0.38999   0.30079   0.00000  Uiso   1.00
H220   H     0.13209   0.34144   0.32587   0.00000  Uiso   1.00
H221   H     0.16786   0.39909   0.04968   0.00000  Uiso   1.00
H222   H     0.10614   0.37550   0.05765   0.00000  Uiso   1.00
H223   H     0.09222   0.44649   0.06861   0.00000  Uiso   1.00
H224   H     0.06055   0.43796   0.01279   0.00000  Uiso   1.00
C225   C     0.49979   0.42009   0.16635   0.00000  Uiso   1.00
C226   C     0.50048   0.57990   0.16706   0.00000  Uiso   1.00
C227   C     0.40045   0.49975   0.15470   0.00000  Uiso   1.00
C228   C     0.59957   0.49992   0.17871   0.00000  Uiso   1.00
C229   C     0.34527   0.49923   0.14859   0.00000  Uiso   1.00
C230   C     0.65482   0.49972   0.18518   0.00000  Uiso   1.00
C231   C     0.52815   0.35470   0.13714   0.00000  Uiso   1.00
C232   C     0.47362   0.64531   0.19729   0.00000  Uiso   1.00
C233   C     0.52847   0.64511   0.13754   0.00000  Uiso   1.00
C234   C     0.47257   0.35487   0.19630   0.00000  Uiso   1.00
C235   C     0.50117   0.62408   0.16760   0.00000  Uiso   1.00
C236   C     0.49975   0.37590   0.16617   0.00000  Uiso   1.00
C237   C     0.53334   0.52573   0.02954   0.00000  Uiso   1.00
C238   C     0.46590   0.47496   0.30368   0.00000  Uiso   1.00
C239   C     0.53548   0.52464   0.31551   0.00000  Uiso   1.00
C240   C     0.46736   0.47304   0.01807   0.00000  Uiso   1.00
H241   H     0.65759   0.49845   0.11416   0.00000  Uiso   1.00
H242   H     0.34244   0.50015   0.21983   0.00000  Uiso   1.00
H243   H     0.55060   0.37128   0.11497   0.00000  Uiso   1.00
H244   H     0.45216   0.62875   0.22026   0.00000  Uiso   1.00
H245   H     0.55040   0.62837   0.11500   0.00000  Uiso   1.00
H246   H     0.45028   0.37158   0.21853   0.00000  Uiso   1.00
H247   H     0.55969   0.54633   0.05221   0.00000  Uiso   1.00
H248   H     0.43852   0.45524   0.28087   0.00000  Uiso   1.00
N249   N     0.49999   0.49999   0.28573   0.00000  Uiso   1.00
N250   N     0.50001   0.50001   0.04760   0.00000  Uiso   1.00
O251   O     0.50000   0.43892   0.20487   0.00000  Uiso   1.00
O252   O     0.50000   0.56108   0.12846   0.00000  Uiso   1.00
O253   O     0.50000   0.43893   0.12843   0.00000  Uiso   1.00
O254   O     0.50000   0.56107   0.20490   0.00000  Uiso   1.00
O255   O     0.42392   0.50000   0.19595   0.00000  Uiso   1.00
O256   O     0.57608   0.50000   0.13739   0.00000  Uiso   1.00
O257   O     0.42392   0.50000   0.11950   0.00000  Uiso   1.00
O258   O     0.57608   0.50000   0.21383   0.00000  Uiso   1.00
Zn259  Zn    0.50000   0.49999   0.21771   0.00000  Uiso   1.00
Zn260  Zn    0.50000   0.50001   0.11563   0.00000  Uiso   1.00
C261   C     0.57819   0.55127   0.29992   0.00000  Uiso   1.00
C262   C     0.63186   0.52984   0.30565   0.00000  Uiso   1.00
C263   C     0.65820   0.52740   0.02164   0.00000  Uiso   1.00
H264   H     0.65774   0.55812   0.03958   0.00000  Uiso   1.00
H265   H     0.63762   0.50316   0.03881   0.00000  Uiso   1.00
H266   H     0.36639   0.51810   0.02298   0.00000  Uiso   1.00
H267   H     0.62754   0.49758   0.29090   0.00000  Uiso   1.00
H268   H     0.65842   0.54802   0.28685   0.00000  Uiso   1.00
H269   H     0.56761   0.55941   0.26424   0.00000  Uiso   1.00
H270   H     0.58216   0.58187   0.31868   0.00000  Uiso   1.00
C271   C     0.43332   0.43930   0.03438   0.00000  Uiso   1.00
C272   C     0.45881   0.39607   0.03519   0.00000  Uiso   1.00
C273   C     0.45351   0.37455   0.32180   0.00000  Uiso   1.00
H274   H     0.41218   0.37497   0.30411   0.00000  Uiso   1.00
H275   H     0.47991   0.38999   0.30079   0.00000  Uiso   1.00
H276   H     0.46542   0.34144   0.32587   0.00000  Uiso   1.00
H277   H     0.50119   0.39909   0.04968   0.00000  Uiso   1.00
H278   H     0.43947   0.37550   0.05765   0.00000  Uiso   1.00
H279   H     0.42555   0.44649   0.06861   0.00000  Uiso   1.00
H280   H     0.39388   0.43796   0.01279   0.00000  Uiso   1.00
C281   C     0.83312   0.42009   0.16635   0.00000  Uiso   1.00
C282   C     0.83382   0.57990   0.16706   0.00000  Uiso   1.00
C283   C     0.73378   0.49975   0.15470   0.00000  Uiso   1.00
C284   C     0.93291   0.49992   0.17871   0.00000  Uiso   1.00
C285   C     0.67860   0.49923   0.14859   0.00000  Uiso   1.00
C286   C     0.98816   0.49972   0.18518   0.00000  Uiso   1.00
C287   C     0.86148   0.35470   0.13714   0.00000  Uiso   1.00
C288   C     0.80696   0.64531   0.19729   0.00000  Uiso   1.00
C289   C     0.86181   0.64511   0.13754   0.00000  Uiso   1.00
C290   C     0.80590   0.35487   0.19630   0.00000  Uiso   1.00
C291   C     0.83450   0.62408   0.16760   0.00000  Uiso   1.00
C292   C     0.83308   0.37590   0.16617   0.00000  Uiso   1.00
C293   C     0.86667   0.52573   0.02954   0.00000  Uiso   1.00
C294   C     0.79923   0.47496   0.30368   0.00000  Uiso   1.00
C295   C     0.86881   0.52464   0.31551   0.00000  Uiso   1.00
C296   C     0.80069   0.47304   0.01807   0.00000  Uiso   1.00
H297   H     0.99093   0.49845   0.11416   0.00000  Uiso   1.00
H298   H     0.67577   0.50015   0.21983   0.00000  Uiso   1.00
H299   H     0.88393   0.37128   0.11497   0.00000  Uiso   1.00
H300   H     0.78550   0.62875   0.22026   0.00000  Uiso   1.00
H301   H     0.88373   0.62837   0.11500   0.00000  Uiso   1.00
H302   H     0.78361   0.37158   0.21853   0.00000  Uiso   1.00
H303   H     0.89302   0.54633   0.05221   0.00000  Uiso   1.00
H304   H     0.77185   0.45524   0.28087   0.00000  Uiso   1.00
N305   N     0.83332   0.49999   0.28573   0.00000  Uiso   1.00
N306   N     0.83335   0.50001   0.04760   0.00000  Uiso   1.00
O307   O     0.83333   0.43892   0.20487   0.00000  Uiso   1.00
O308   O     0.83334   0.56108   0.12846   0.00000  Uiso   1.00
O309   O     0.83333   0.43893   0.12843   0.00000  Uiso   1.00
O310   O     0.83334   0.56107   0.20490   0.00000  Uiso   1.00
O311   O     0.75725   0.50000   0.19595   0.00000  Uiso   1.00
O312   O     0.90942   0.50000   0.13739   0.00000  Uiso   1.00
O313   O     0.75725   0.50000   0.11950   0.00000  Uiso   1.00
O314   O     0.90942   0.50000   0.21383   0.00000  Uiso   1.00
Zn315  Zn    0.83333   0.49999   0.21771   0.00000  Uiso   1.00
Zn316  Zn    0.83333   0.50001   0.11563   0.00000  Uiso   1.00
C317   C     0.91152   0.55127   0.29992   0.00000  Uiso   1.00
C318   C     0.96519   0.52984   0.30565   0.00000  Uiso   1.00
C319   C     0.99154   0.52740   0.02164   0.00000  Uiso   1.00
H320   H     0.99108   0.55812   0.03958   0.00000  Uiso   1.00
H321   H     0.97096   0.50316   0.03881   0.00000  Uiso   1.00
H322   H     0.69972   0.51810   0.02298   0.00000  Uiso   1.00
H323   H     0.96088   0.49758   0.29090   0.00000  Uiso   1.00
H324   H     0.99175   0.54802   0.28685   0.00000  Uiso   1.00
H325   H     0.90094   0.55941   0.26424   0.00000  Uiso   1.00
H326   H     0.91550   0.58187   0.31868   0.00000  Uiso   1.00
C327   C     0.76666   0.43930   0.03438   0.00000  Uiso   1.00
C328   C     0.79214   0.39607   0.03519   0.00000  Uiso   1.00
C329   C     0.78685   0.37455   0.32180   0.00000  Uiso   1.00
H330   H     0.74552   0.37497   0.30411   0.00000  Uiso   1.00
H331   H     0.81324   0.38999   0.30079   0.00000  Uiso   1.00
H332   H     0.79876   0.34144   0.32587   0.00000  Uiso   1.00
H333   H     0.83453   0.39909   0.04968   0.00000  Uiso   1.00
H334   H     0.77281   0.37550   0.05765   0.00000  Uiso   1.00
H335   H     0.75889   0.44649   0.06861   0.00000  Uiso   1.00
H336   H     0.72722   0.43796   0.01279   0.00000  Uiso   1.00
C337   C     0.16645   0.75343   0.16635   0.00000  Uiso   1.00
C338   C     0.16715   0.91323   0.16706   0.00000  Uiso   1.00
C339   C     0.06712   0.83308   0.15470   0.00000  Uiso   1.00
C340   C     0.26624   0.83325   0.17871   0.00000  Uiso   1.00
C341   C     0.01193   0.83256   0.14859   0.00000  Uiso   1.00
C342   C     0.32149   0.83305   0.18518   0.00000  Uiso   1.00
C343   C     0.19481   0.68803   0.13714   0.00000  Uiso   1.00
C344   C     0.14029   0.97864   0.19729   0.00000  Uiso   1.00
C345   C     0.19514   0.97844   0.13754   0.00000  Uiso   1.00
C346   C     0.13924   0.68820   0.19630   0.00000  Uiso   1.00
C347   C     0.16784   0.95742   0.16760   0.00000  Uiso   1.00
C348   C     0.16641   0.70923   0.16617   0.00000  Uiso   1.00
C349   C     0.20001   0.85906   0.02954   0.00000  Uiso   1.00
C350   C     0.13256   0.80829   0.30368   0.00000  Uiso   1.00
C351   C     0.20215   0.85797   0.31551   0.00000  Uiso   1.00
C352   C     0.13403   0.80637   0.01807   0.00000  Uiso   1.00
H353   H     0.32426   0.83178   0.11416   0.00000  Uiso   1.00
H354   H     0.00911   0.83348   0.21983   0.00000  Uiso   1.00
H355   H     0.21726   0.70461   0.11497   0.00000  Uiso   1.00
H356   H     0.11883   0.96209   0.22026   0.00000  Uiso   1.00
H357   H     0.21706   0.96171   0.11500   0.00000  Uiso   1.00
H358   H     0.11694   0.70491   0.21853   0.00000  Uiso   1.00
H359   H     0.22635   0.87967   0.05221   0.00000  Uiso   1.00
H360   H     0.10519   0.78858   0.28087   0.00000  Uiso   1.00
N361   N     0.16665   0.83332   0.28573   0.00000  Uiso   1.00
N362   N     0.16668   0.83334   0.04760   0.00000  Uiso   1.00
O363   O     0.16666   0.77225   0.20487   0.00000  Uiso   1.00
O364   O     0.16667   0.89442   0.12846   0.00000  Uiso   1.00
O365   O     0.16666   0.77226   0.12843   0.00000  Uiso   1.00
O366   O     0.16667   0.89441   0.20490   0.00000  Uiso   1.00
O367   O     0.09058   0.83333   0.19595   0.00000  Uiso   1.00
O368   O     0.24275   0.83334   0.13739   0.00000  Uiso   1.00
O369   O     0.09058   0.83334   0.11950   0.00000  Uiso   1.00
O370   O     0.24275   0.83333   0.21383   0.00000  Uiso   1.00
Zn371  Zn    0.16667   0.83333   0.21771   0.00000  Uiso   1.00
Zn372  Zn    0.16667   0.83334   0.11563   0.00000  Uiso   1.00
C373   C     0.24486   0.88461   0.29992   0.00000  Uiso   1.00
C374   C     0.29852   0.86318   0.30565   0.00000  Uiso   1.00
C375   C     0.32487   0.86073   0.02164   0.00000  Uiso   1.00
H376   H     0.32441   0.89146   0.03958   0.00000  Uiso   1.00
H377   H     0.30429   0.83650   0.03881   0.00000  Uiso   1.00
H378   H     0.03306   0.85143   0.02298   0.00000  Uiso   1.00
H379   H     0.29421   0.83091   0.29090   0.00000  Uiso   1.00
H380   H     0.32508   0.88135   0.28685   0.00000  Uiso   1.00
H381   H     0.23427   0.89274   0.26424   0.00000  Uiso   1.00
H382   H     0.24883   0.91521   0.31868   0.00000  Uiso   1.00
C383   C     0.09999   0.77263   0.03438   0.00000  Uiso   1.00
C384   C     0.12548   0.72940   0.03519   0.00000  Uiso   1.00
C385   C     0.12018   0.70788   0.32180   0.00000  Uiso   1.00
H386   H     0.07885   0.70830   0.30411   0.00000  Uiso   1.00
H387   H     0.14658   0.72332   0.30079   0.00000  Uiso   1.00
H388   H     0.13209   0.67477   0.32587   0.00000  Uiso   1.00
H389   H     0.16786   0.73242   0.04968   0.00000  Uiso   1.00
H390   H     0.10614   0.70884   0.05765   0.00000  Uiso   1.00
H391   H     0.09222   0.77982   0.06861   0.00000  Uiso   1.00
H392   H     0.06055   0.77130   0.01279   0.00000  Uiso   1.00
C393   C     0.49979   0.75343   0.16635   0.00000  Uiso   1.00
C394   C     0.50048   0.91323   0.16706   0.00000  Uiso   1.00
C395   C     0.40045   0.83308   0.15470   0.00000  Uiso   1.00
C396   C     0.59957   0.83325   0.17871   0.00000  Uiso   1.00
C397   C     0.34527   0.83256   0.14859   0.00000  Uiso   1.00
C398   C     0.65482   0.83305   0.18518   0.00000  Uiso   1.00
C399   C     0.52815   0.68803   0.13714   0.00000  Uiso   1.00
C400   C     0.47362   0.97864   0.19729   0.00000  Uiso   1.00
C401   C     0.52847   0.97844   0.13754   0.00000  Uiso   1.00
C402   C     0.47257   0.68820   0.19630   0.00000  Uiso   1.00
C403   C     0.50117   0.95742   0.16760   0.00000  Uiso   1.00
C404   C     0.49975   0.70923   0.16617   0.00000  Uiso   1.00
C405   C     0.53334   0.85906   0.02954   0.00000  Uiso   1.00
C406   C     0.46590   0.80829   0.30368   0.00000  Uiso   1.00
C407   C     0.53548   0.85797   0.31551   0.00000  Uiso   1.00
C408   C     0.46736   0.80637   0.01807   0.00000  Uiso   1.00
H409   H     0.65759   0.83178   0.11416   0.00000  Uiso   1.00
H410   H     0.34244   0.83348   0.21983   0.00000  Uiso   1.00
H411   H     0.55060   0.70461   0.11497   0.00000  Uiso   1.00
H412   H     0.45216   0.96209   0.22026   0.00000  Uiso   1.00
H413   H     0.55040   0.96171   0.11500   0.00000  Uiso   1.00
H414   H     0.45028   0.70491   0.21853   0.00000  Uiso   1.00
H415   H     0.55969   0.87967   0.05221   0.00000  Uiso   1.00
H416   H     0.43852   0.78858   0.28087   0.00000  Uiso   1.00
N417   N     0.49999   0.83332   0.28573   0.00000  Uiso   1.00
N418   N     0.50001   0.83334   0.04760   0.00000  Uiso   1.00
O419   O     0.50000   0.77225   0.20487   0.00000  Uiso   1.00
O420   O     0.50000   0.89442   0.12846   0.00000  Uiso   1.00
O421   O     0.50000   0.77226   0.12843   0.00000  Uiso   1.00
O422   O     0.50000   0.89441   0.20490   0.00000  Uiso   1.00
O423   O     0.42392   0.83333   0.19595   0.00000  Uiso   1.00
O424   O     0.57608   0.83334   0.13739   0.00000  Uiso   1.00
O425   O     0.42392   0.83334   0.11950   0.00000  Uiso   1.00
O426   O     0.57608   0.83333   0.21383   0.00000  Uiso   1.00
Zn427  Zn    0.50000   0.83333   0.21771   0.00000  Uiso   1.00
Zn428  Zn    0.50000   0.83334   0.11563   0.00000  Uiso   1.00
C429   C     0.57819   0.88461   0.29992   0.00000  Uiso   1.00
C430   C     0.63186   0.86318   0.30565   0.00000  Uiso   1.00
C431   C     0.65820   0.86073   0.02164   0.00000  Uiso   1.00
H432   H     0.65774   0.89146   0.03958   0.00000  Uiso   1.00
H433   H     0.63762   0.83650   0.03881   0.00000  Uiso   1.00
H434   H     0.36639   0.85143   0.02298   0.00000  Uiso   1.00
H435   H     0.62754   0.83091   0.29090   0.00000  Uiso   1.00
H436   H     0.65842   0.88135   0.28685   0.00000  Uiso   1.00
H437   H     0.56761   0.89274   0.26424   0.00000  Uiso   1.00
H438   H     0.58216   0.91521   0.31868   0.00000  Uiso   1.00
C439   C     0.43332   0.77263   0.03438   0.00000  Uiso   1.00
C440   C     0.45881   0.72940   0.03519   0.00000  Uiso   1.00
C441   C     0.45351   0.70788   0.32180   0.00000  Uiso   1.00
H442   H     0.41218   0.70830   0.30411   0.00000  Uiso   1.00
H443   H     0.47991   0.72332   0.30079   0.00000  Uiso   1.00
H444   H     0.46542   0.67477   0.32587   0.00000  Uiso   1.00
H445   H     0.50119   0.73242   0.04968   0.00000  Uiso   1.00
H446   H     0.43947   0.70884   0.05765   0.00000  Uiso   1.00
H447   H     0.42555   0.77982   0.06861   0.00000  Uiso   1.00
H448   H     0.39388   0.77130   0.01279   0.00000  Uiso   1.00
C449   C     0.83312   0.75343   0.16635   0.00000  Uiso   1.00
C450   C     0.83382   0.91323   0.16706   0.00000  Uiso   1.00
C451   C     0.73378   0.83308   0.15470   0.00000  Uiso   1.00
C452   C     0.93291   0.83325   0.17871   0.00000  Uiso   1.00
C453   C     0.67860   0.83256   0.14859   0.00000  Uiso   1.00
C454   C     0.98816   0.83305   0.18518   0.00000  Uiso   1.00
C455   C     0.86148   0.68803   0.13714   0.00000  Uiso   1.00
C456   C     0.80696   0.97864   0.19729   0.00000  Uiso   1.00
C457   C     0.86181   0.97844   0.13754   0.00000  Uiso   1.00
C458   C     0.80590   0.68820   0.19630   0.00000  Uiso   1.00
C459   C     0.83450   0.95742   0.16760   0.00000  Uiso   1.00
C460   C     0.83308   0.70923   0.16617   0.00000  Uiso   1.00
C461   C     0.86667   0.85906   0.02954   0.00000  Uiso   1.00
C462   C     0.79923   0.80829   0.30368   0.00000  Uiso   1.00
C463   C     0.86881   0.85797   0.31551   0.00000  Uiso   1.00
C464   C     0.80069   0.80637   0.01807   0.00000  Uiso   1.00
H465   H     0.99093   0.83178   0.11416   0.00000  Uiso   1.00
H466   H     0.67577   0.83348   0.21983   0.00000  Uiso   1.00
H467   H     0.88393   0.70461   0.11497   0.00000  Uiso   1.00
H468   H     0.78550   0.96209   0.22026   0.00000  Uiso   1.00
H469   H     0.88373   0.96171   0.11500   0.00000  Uiso   1.00
H470   H     0.78361   0.70491   0.21853   0.00000  Uiso   1.00
H471   H     0.89302   0.87967   0.05221   0.00000  Uiso   1.00
H472   H     0.77185   0.78858   0.28087   0.00000  Uiso   1.00
N473   N     0.83332   0.83332   0.28573   0.00000  Uiso   1.00
N474   N     0.83335   0.83334   0.04760   0.00000  Uiso   1.00
O475   O     0.83333   0.77225   0.20487   0.00000  Uiso   1.00
O476   O     0.83334   0.89442   0.12846   0.00000  Uiso   1.00
O477   O     0.83333   0.77226   0.12843   0.00000  Uiso   1.00
O478   O     0.83334   0.89441   0.20490   0.00000  Uiso   1.00
O479   O     0.75725   0.83333   0.19595   0.00000  Uiso   1.00
O480   O     0.90942   0.83334   0.13739   0.00000  Uiso   1.00
O481   O     0.75725   0.83334   0.11950   0.00000  Uiso   1.00
O482   O     0.90942   0.83333   0.21383   0.00000  Uiso   1.00
Zn483  Zn    0.83333   0.83333   0.21771   0.00000  Uiso   1.00
Zn484  Zn    0.83333   0.83334   0.11563   0.00000  Uiso   1.00
C485   C     0.91152   0.88461   0.29992   0.00000  Uiso   1.00
C486   C     0.96519   0.86318   0.30565   0.00000  Uiso   1.00
C487   C     0.99154   0.86073   0.02164   0.00000  Uiso   1.00
H488   H     0.99108   0.89146   0.03958   0.00000  Uiso   1.00
H489   H     0.97096   0.83650   0.03881   0.00000  Uiso   1.00
H490   H     0.69972   0.85143   0.02298   0.00000  Uiso   1.00
H491   H     0.96088   0.83091   0.29090   0.00000  Uiso   1.00
H492   H     0.99175   0.88135   0.28685   0.00000  Uiso   1.00
H493   H     0.90094   0.89274   0.26424   0.00000  Uiso   1.00
H494   H     0.91550   0.91521   0.31868   0.00000  Uiso   1.00
C495   C     0.76666   0.77263   0.03438   0.00000  Uiso   1.00
C496   C     0.79214   0.72940   0.03519   0.00000  Uiso   1.00
C497   C     0.78685   0.70788   0.32180   0.00000  Uiso   1.00
H498   H     0.74552   0.70830   0.30411   0.00000  Uiso   1.00
H499   H     0.81324   0.72332   0.30079   0.00000  Uiso   1.00
H500   H     0.79876   0.67477   0.32587   0.00000  Uiso   1.00
H501   H     0.83453   0.73242   0.04968   0.00000  Uiso   1.00
H502   H     0.77281   0.70884   0.05765   0.00000  Uiso   1.00
H503   H     0.75889   0.77982   0.06861   0.00000  Uiso   1.00
H504   H     0.72722   0.77130   0.01279   0.00000  Uiso   1.00
C505   C     0.16645   0.08676   0.49969   0.00000  Uiso   1.00
C506   C     0.16715   0.24656   0.50039   0.00000  Uiso   1.00
C507   C     0.06712   0.16641   0.48804   0.00000  Uiso   1.00
C508   C     0.26624   0.16658   0.51204   0.00000  Uiso   1.00
C509   C     0.01193   0.16590   0.48192   0.00000  Uiso   1.00
C510   C     0.32149   0.16638   0.51851   0.00000  Uiso   1.00
C511   C     0.19481   0.02137   0.47047   0.00000  Uiso   1.00
C512   C     0.14029   0.31198   0.53063   0.00000  Uiso   1.00
C513   C     0.19514   0.31177   0.47088   0.00000  Uiso   1.00
C514   C     0.13924   0.02153   0.52964   0.00000  Uiso   1.00
C515   C     0.16784   0.29075   0.50093   0.00000  Uiso   1.00
C516   C     0.16641   0.04257   0.49950   0.00000  Uiso   1.00
C517   C     0.20001   0.19240   0.36287   0.00000  Uiso   1.00
C518   C     0.13256   0.14163   0.63701   0.00000  Uiso   1.00
C519   C     0.20215   0.19130   0.64884   0.00000  Uiso   1.00
C520   C     0.13403   0.13970   0.35140   0.00000  Uiso   1.00
H521   H     0.32426   0.16512   0.44750   0.00000  Uiso   1.00
H522   H     0.00911   0.16681   0.55317   0.00000  Uiso   1.00
H523   H     0.21726   0.03794   0.44830   0.00000  Uiso   1.00
H524   H     0.11883   0.29542   0.55360   0.00000  Uiso   1.00
H525   H     0.21706   0.29504   0.44833   0.00000  Uiso   1.00
H526   H     0.11694   0.03825   0.55187   0.00000  Uiso   1.00
H527   H     0.22635   0.21300   0.38554   0.00000  Uiso   1.00
H528   H     0.10519   0.12191   0.61420   0.00000  Uiso   1.00
N529   N     0.16665   0.16666   0.61907   0.00000  Uiso   1.00
N530   N     0.16668   0.16668   0.38093   0.00000  Uiso   1.00
O531   O     0.16666   0.10558   0.53821   0.00000  Uiso   1.00
O532   O     0.16667   0.22775   0.46179   0.00000  Uiso   1.00
O533   O     0.16666   0.10559   0.46176   0.00000  Uiso   1.00
O534   O     0.16667   0.22774   0.53824   0.00000  Uiso   1.00
O535   O     0.09058   0.16666   0.52928   0.00000  Uiso   1.00
O536   O     0.24275   0.16667   0.47072   0.00000  Uiso   1.00
O537   O     0.09058   0.16667   0.45284   0.00000  Uiso   1.00
O538   O     0.24275   0.16666   0.54716   0.00000  Uiso   1.00
Zn539  Zn    0.16667   0.16666   0.55104   0.00000  Uiso   1.00
Zn540  Zn    0.16667   0.16667   0.44896   0.00000  Uiso   1.00
C541   C     0.24486   0.21794   0.63326   0.00000  Uiso   1.00
C542   C     0.29852   0.19651   0.63898   0.00000  Uiso   1.00
C543   C     0.32487   0.19407   0.35498   0.00000  Uiso   1.00
H544   H     0.32441   0.22479   0.37291   0.00000  Uiso   1.00
H545   H     0.30429   0.16983   0.37214   0.00000  Uiso   1.00
H546   H     0.03306   0.18476   0.35631   0.00000  Uiso   1.00
H547   H     0.29421   0.16424   0.62423   0.00000  Uiso   1.00
H548   H     0.32508   0.21469   0.62018   0.00000  Uiso   1.00
H549   H     0.23427   0.22608   0.59758   0.00000  Uiso   1.00
H550   H     0.24883   0.24854   0.65201   0.00000  Uiso   1.00
C551   C     0.09999   0.10597   0.36771   0.00000  Uiso   1.00
C552   C     0.12548   0.06274   0.36852   0.00000  Uiso   1.00
C553   C     0.12018   0.04121   0.65513   0.00000  Uiso   1.00
H554   H     0.07885   0.04164   0.63745   0.00000  Uiso   1.00
H555   H     0.14658   0.05665   0.63413   0.00000  Uiso   1.00
H556   H     0.13209   0.00810   0.65920   0.00000  Uiso   1.00
H557   H     0.16786   0.06575   0.38302   0.00000  Uiso   1.00
H558   H     0.10614   0.04217   0.39098   0.00000  Uiso   1.00
H559   H     0.09222   0.11315   0.40194   0.00000  Uiso   1.00
H560   H     0.06055   0.10463   0.34612   0.00000  Uiso   1.00
C561   C     0.49979   0.08676   0.49969   0.00000  Uiso   1.00
C562   C     0.50048   0.24656   0.50039   0.00000  Uiso   1.00
C563   C     0.40045   0.16641   0.48804   0.00000  Uiso   1.00
C564   C     0.59957   0.16658   0.51204   0.00000  Uiso   1.00
C565   C     0.34527   0.16590   0.48192   0.00000  Uiso   1.00
C566   C     0.65482   0.16638   0.51851   0.00000  Uiso   1.00
C567   C     0.52815   0.02137   0.47047   0.00000  Uiso   1.00
C568   C     0.47362   0.31198   0.53063   0.00000  Uiso   1.00
C569   C     0.52847   0.31177   0.47088   0.00000  Uiso   1.00
C570   C     0.47257   0.02153   0.52964   0.00000  Uiso   1.00
C571   C     0.50117   0.29075   0.50093   0.00000  Uiso   1.00
C572   C     0.49975   0.04257   0.49950   0.00000  Uiso   1.00
C573   C     0.53334   0.19240   0.36287   0.00000  Uiso   1.00
C574   C     0.46590   0.14163   0.63701   0.00000  Uiso   1.00
C575   C     0.53548   0.19130   0.64884   0.00000  Uiso   1.00
C576   C     0.46736   0.13970   0.35140   0.00000  Uiso   1.00
H577   H     0.65759   0.16512   0.44750   0.00000  Uiso   1.00
H578   H     0.34244   0.16681   0.55317   0.00000  Uiso   1.00
H579   H     0.55060   0.03794   0.44830   0.00000  Uiso   1.00
H580   H     0.45216   0.29542   0.55360   0.00000  Uiso   1.00
H581   H     0.55040   0.29504   0.44833   0.00000  Uiso   1.00
H582   H     0.45028   0.03825   0.55187   0.00000  Uiso   1.00
H583   H     0.55969   0.21300   0.38554   0.00000  Uiso   1.00
H584   H     0.43852   0.12191   0.61420   0.00000  Uiso   1.00
N585   N     0.49999   0.16666   0.61907   0.00000  Uiso   1.00
N586   N     0.50001   0.16668   0.38093   0.00000  Uiso   1.00
O587   O     0.50000   0.10558   0.53821   0.00000  Uiso   1.00
O588   O     0.50000   0.22775   0.46179   0.00000  Uiso   1.00
O589   O     0.50000   0.10559   0.46176   0.00000  Uiso   1.00
O590   O     0.50000   0.22774   0.53824   0.00000  Uiso   1.00
O591   O     0.42392   0.16666   0.52928   0.00000  Uiso   1.00
O592   O     0.57608   0.16667   0.47072   0.00000  Uiso   1.00
O593   O     0.42392   0.16667   0.45284   0.00000  Uiso   1.00
O594   O     0.57608   0.16666   0.54716   0.00000  Uiso   1.00
Zn595  Zn    0.50000   0.16666   0.55104   0.00000  Uiso   1.00
Zn596  Zn    0.50000   0.16667   0.44896   0.00000  Uiso   1.00
C597   C     0.57819   0.21794   0.63326   0.00000  Uiso   1.00
C598   C     0.63186   0.19651   0.63898   0.00000  Uiso   1.00
C599   C     0.65820   0.19407   0.35498   0.00000  Uiso   1.00
H600   H     0.65774   0.22479   0.37291   0.00000  Uiso   1.00
H601   H     0.63762   0.16983   0.37214   0.00000  Uiso   1.00
H602   H     0.36639   0.18476   0.35631   0.00000  Uiso   1.00
H603   H     0.62754   0.16424   0.62423   0.00000  Uiso   1.00
H604   H     0.65842   0.21469   0.62018   0.00000  Uiso   1.00
H605   H     0.56761   0.22608   0.59758   0.00000  Uiso   1.00
H606   H     0.58216   0.24854   0.65201   0.00000  Uiso   1.00
C607   C     0.43332   0.10597   0.36771   0.00000  Uiso   1.00
C608   C     0.45881   0.06274   0.36852   0.00000  Uiso   1.00
C609   C     0.45351   0.04121   0.65513   0.00000  Uiso   1.00
H610   H     0.41218   0.04164   0.63745   0.00000  Uiso   1.00
H611   H     0.47991   0.05665   0.63413   0.00000  Uiso   1.00
H612   H     0.46542   0.00810   0.65920   0.00000  Uiso   1.00
H613   H     0.50119   0.06575   0.38302   0.00000  Uiso   1.00
H614   H     0.43947   0.04217   0.39098   0.00000  Uiso   1.00
H615   H     0.42555   0.11315   0.40194   0.00000  Uiso   1.00
H616   H     0.39388   0.10463   0.34612   0.00000  Uiso   1.00
C617   C     0.83312   0.08676   0.49969   0.00000  Uiso   1.00
C618   C     0.83382   0.24656   0.50039   0.00000  Uiso   1.00
C619   C     0.73378   0.16641   0.48804   0.00000  Uiso   1.00
C620   C     0.93291   0.16658   0.51204   0.00000  Uiso   1.00
C621   C     0.67860   0.16590   0.48192   0.00000  Uiso   1.00
C622   C     0.98816   0.16638   0.51851   0.00000  Uiso   1.00
C623   C     0.86148   0.02137   0.47047   0.00000  Uiso   1.00
C624   C     0.80696   0.31198   0.53063   0.00000  Uiso   1.00
C625   C     0.86181   0.31177   0.47088   0.00000  Uiso   1.00
C626   C     0.80590   0.02153   0.52964   0.00000  Uiso   1.00
C627   C     0.83450   0.29075   0.50093   0.00000  Uiso   1.00
C628   C     0.83308   0.04257   0.49950   0.00000  Uiso   1.00
C629   C     0.86667   0.19240   0.36287   0.00000  Uiso   1.00
C630   C     0.79923   0.14163   0.63701   0.00000  Uiso   1.00
C631   C     0.86881   0.19130   0.64884   0.00000  Uiso   1.00
C632   C     0.80069   0.13970   0.35140   0.00000  Uiso   1.00
H633   H     0.99093   0.16512   0.44750   0.00000  Uiso   1.00
H634   H     0.67577   0.16681   0.55317   0.00000  Uiso   1.00
H635   H     0.88393   0.03794   0.44830   0.00000  Uiso   1.00
H636   H     0.78550   0.29542   0.55360   0.00000  Uiso   1.00
H637   H     0.88373   0.29504   0.44833   0.00000  Uiso   1.00
H638   H     0.78361   0.03825   0.55187   0.00000  Uiso   1.00
H639   H     0.89302   0.21300   0.38554   0.00000  Uiso   1.00
H640   H     0.77185   0.12191   0.61420   0.00000  Uiso   1.00
N641   N     0.83332   0.16666   0.61907   0.00000  Uiso   1.00
N642   N     0.83335   0.16668   0.38093   0.00000  Uiso   1.00
O643   O     0.83333   0.10558   0.53821   0.00000  Uiso   1.00
O644   O     0.83334   0.22775   0.46179   0.00000  Uiso   1.00
O645   O     0.83333   0.10559   0.46176   0.00000  Uiso   1.00
O646   O     0.83334   0.22774   0.53824   0.00000  Uiso   1.00
O647   O     0.75725   0.16666   0.52928   0.00000  Uiso   1.00
O648   O     0.90942   0.16667   0.47072   0.00000  Uiso   1.00
O649   O     0.75725   0.16667   0.45284   0.00000  Uiso   1.00
O650   O     0.90942   0.16666   0.54716   0.00000  Uiso   1.00
Zn651  Zn    0.83333   0.16666   0.55104   0.00000  Uiso   1.00
Zn652  Zn    0.83333   0.16667   0.44896   0.00000  Uiso   1.00
C653   C     0.91152   0.21794   0.63326   0.00000  Uiso   1.00
C654   C     0.96519   0.19651   0.63898   0.00000  Uiso   1.00
C655   C     0.99154   0.19407   0.35498   0.00000  Uiso   1.00
H656   H     0.99108   0.22479   0.37291   0.00000  Uiso   1.00
H657   H     0.97096   0.16983   0.37214   0.00000  Uiso   1.00
H658   H     0.69972   0.18476   0.35631   0.00000  Uiso   1.00
H659   H     0.96088   0.16424   0.62423   0.00000  Uiso   1.00
H660   H     0.99175   0.21469   0.62018   0.00000  Uiso   1.00
H661   H     0.90094   0.22608   0.59758   0.00000  Uiso   1.00
H662   H     0.91550   0.24854   0.65201   0.00000  Uiso   1.00
C663   C     0.76666   0.10597   0.36771   0.00000  Uiso   1.00
C664   C     0.79214   0.06274   0.36852   0.00000  Uiso   1.00
C665   C     0.78685   0.04121   0.65513   0.00000  Uiso   1.00
H666   H     0.74552   0.04164   0.63745   0.00000  Uiso   1.00
H667   H     0.81324   0.05665   0.63413   0.00000  Uiso   1.00
H668   H     0.79876   0.00810   0.65920   0.00000  Uiso   1.00
H669   H     0.83453   0.06575   0.38302   0.00000  Uiso   1.00
H670   H     0.77281   0.04217   0.39098   0.00000  Uiso   1.00
H671   H     0.75889   0.11315   0.40194   0.00000  Uiso   1.00
H672   H     0.72722   0.10463   0.34612   0.00000  Uiso   1.00
C673   C     0.16645   0.42009   0.49969   0.00000  Uiso   1.00
C674   C     0.16715   0.57990   0.50039   0.00000  Uiso   1.00
C675   C     0.06712   0.49975   0.48804   0.00000  Uiso   1.00
C676   C     0.26624   0.49992   0.51204   0.00000  Uiso   1.00
C677   C     0.01193   0.49923   0.48192   0.00000  Uiso   1.00
C678   C     0.32149   0.49972   0.51851   0.00000  Uiso   1.00
C679   C     0.19481   0.35470   0.47047   0.00000  Uiso   1.00
C680   C     0.14029   0.64531   0.53063   0.00000  Uiso   1.00
C681   C     0.19514   0.64511   0.47088   0.00000  Uiso   1.00
C682   C     0.13924   0.35487   0.52964   0.00000  Uiso   1.00
C683   C     0.16784   0.62408   0.50093   0.00000  Uiso   1.00
C684   C     0.16641   0.37590   0.49950   0.00000  Uiso   1.00
C685   C     0.20001   0.52573   0.36287   0.00000  Uiso   1.00
C686   C     0.13256   0.47496   0.63701   0.00000  Uiso   1.00
C687   C     0.20215   0.52464   0.64884   0.00000  Uiso   1.00
C688   C     0.13403   0.47304   0.35140   0.00000  Uiso   1.00
H689   H     0.32426   0.49845   0.44750   0.00000  Uiso   1.00
H690   H     0.00911   0.50015   0.55317   0.00000  Uiso   1.00
H691   H     0.21726   0.37128   0.44830   0.00000  Uiso   1.00
H692   H     0.11883   0.62875   0.55360   0.00000  Uiso   1.00
H693   H     0.21706   0.62837   0.44833   0.00000  Uiso   1.00
H694   H     0.11694   0.37158   0.55187   0.00000  Uiso   1.00
H695   H     0.22635   0.54633   0.38554   0.00000  Uiso   1.00
H696   H     0.10519   0.45524   0.61420   0.00000  Uiso   1.00
N697   N     0.16665   0.49999   0.61907   0.00000  Uiso   1.00
N698   N     0.16668   0.50001   0.38093   0.00000  Uiso   1.00
O699   O     0.16666   0.43892   0.53821   0.00000  Uiso   1.00
O700   O     0.16667   0.56108   0.46179   0.00000  Uiso   1.00
O701   O     0.16666   0.43893   0.46176   0.00000  Uiso   1.00
O702   O     0.16667   0.56107   0.53824   0.00000  Uiso   1.00
O703   O     0.09058   0.50000   0.52928   0.00000  Uiso   1.00
O704   O     0.24275   0.50000   0.47072   0.00000  Uiso   1.00
O705   O     0.09058   0.50000   0.45284   0.00000  Uiso   1.00
O706   O     0.24275   0.50000   0.54716   0.00000  Uiso   1.00
Zn707  Zn    0.16667   0.49999   0.55104   0.00000  Uiso   1.00
Zn708  Zn    0.16667   0.50001   0.44896   0.00000  Uiso   1.00
C709   C     0.24486   0.55127   0.63326   0.00000  Uiso   1.00
C710   C     0.29852   0.52984   0.63898   0.00000  Uiso   1.00
C711   C     0.32487   0.52740   0.35498   0.00000  Uiso   1.00
H712   H     0.32441   0.55812   0.37291   0.00000  Uiso   1.00
H713   H     0.30429   0.50316   0.37214   0.00000  Uiso   1.00
H714   H     0.03306   0.51810   0.35631   0.00000  Uiso   1.00
H715   H     0.29421   0.49758   0.62423   0.00000  Uiso   1.00
H716   H     0.32508   0.54802   0.62018   0.00000  Uiso   1.00
H717   H     0.23427   0.55941   0.59758   0.00000  Uiso   1.00
H718   H     0.24883   0.58187   0.65201   0.00000  Uiso   1.00
C719   C     0.09999   0.43930   0.36771   0.00000  Uiso   1.00
C720   C     0.12548   0.39607   0.36852   0.00000  Uiso   1.00
C721   C     0.12018   0.37455   0.65513   0.00000  Uiso   1.00
H722   H     0.07885   0.37497   0.63745   0.00000  Uiso   1.00
H723   H     0.14658   0.38999   0.63413   0.00000  Uiso   1.00
H724   H     0.13209   0.34144   0.65920   0.00000  Uiso   1.00
H725   H     0.16786   0.39909   0.38302   0.00000  Uiso   1.00
H726   H     0.10614   0.37550   0.39098   0.00000  Uiso   1.00
H727   H     0.09222   0.44649   0.40194   0.00000  Uiso   1.00
H728   H     0.06055   0.43796   0.34612   0.00000  Uiso   1.00
C729   C     0.49979   0.42009   0.49969   0.00000  Uiso   1.00
C730   C     0.50048   0.57990   0.50039   0.00000  Uiso   1.00
C731   C     0.40045   0.49975   0.48804   0.00000  Uiso   1.00
C732   C     0.59957   0.49992   0.51204   0.00000  Uiso   1.00
C733   C     0.34527   0.49923   0.48192   0.00000  Uiso   1.00
C734   C     0.65482   0.49972   0.51851   0.00000  Uiso   1.00
C735   C     0.52815   0.35470   0.47047   0.00000  Uiso   1.00
C736   C     0.47362   0.64531   0.53063   0.00000  Uiso   1.00
C737   C     0.52847   0.64511   0.47088   0.00000  Uiso   1.00
C738   C     0.47257   0.35487   0.52964   0.00000  Uiso   1.00
C739   C     0.50117   0.62408   0.50093   0.00000  Uiso   1.00
C740   C     0.49975   0.37590   0.49950   0.00000  Uiso   1.00
C741   C     0.53334   0.52573   0.36287   0.00000  Uiso   1.00
C742   C     0.46590   0.47496   0.63701   0.00000  Uiso   1.00
C743   C     0.53548   0.52464   0.64884   0.00000  Uiso   1.00
C744   C     0.46736   0.47304   0.35140   0.00000  Uiso   1.00
H745   H     0.65759   0.49845   0.44750   0.00000  Uiso   1.00
H746   H     0.34244   0.50015   0.55317   0.00000  Uiso   1.00
H747   H     0.55060   0.37128   0.44830   0.00000  Uiso   1.00
H748   H     0.45216   0.62875   0.55360   0.00000  Uiso   1.00
H749   H     0.55040   0.62837   0.44833   0.00000  Uiso   1.00
H750   H     0.45028   0.37158   0.55187   0.00000  Uiso   1.00
H751   H     0.55969   0.54633   0.38554   0.00000  Uiso   1.00
H752   H     0.43852   0.45524   0.61420   0.00000  Uiso   1.00
N753   N     0.49999   0.49999   0.61907   0.00000  Uiso   1.00
N754   N     0.50001   0.50001   0.38093   0.00000  Uiso   1.00
O755   O     0.50000   0.43892   0.53821   0.00000  Uiso   1.00
O756   O     0.50000   0.56108   0.46179   0.00000  Uiso   1.00
O757   O     0.50000   0.43893   0.46176   0.00000  Uiso   1.00
O758   O     0.50000   0.56107   0.53824   0.00000  Uiso   1.00
O759   O     0.42392   0.50000   0.52928   0.00000  Uiso   1.00
O760   O     0.57608   0.50000   0.47072   0.00000  Uiso   1.00
O761   O     0.42392   0.50000   0.45284   0.00000  Uiso   1.00
O762   O     0.57608   0.50000   0.54716   0.00000  Uiso   1.00
Zn763  Zn    0.50000   0.49999   0.55104   0.00000  Uiso   1.00
Zn764  Zn    0.50000   0.50001   0.44896   0.00000  Uiso   1.00
C765   C     0.57819   0.55127   0.63326   0.00000  Uiso   1.00
C766   C     0.63186   0.52984   0.63898   0.00000  Uiso   1.00
C767   C     0.65820   0.52740   0.35498   0.00000  Uiso   1.00
H768   H     0.65774   0.55812   0.37291   0.00000  Uiso   1.00
H769   H     0.63762   0.50316   0.37214   0.00000  Uiso   1.00
H770   H     0.36639   0.51810   0.35631   0.00000  Uiso   1.00
H771   H     0.62754   0.49758   0.62423   0.00000  Uiso   1.00
H772   H     0.65842   0.54802   0.62018   0.00000  Uiso   1.00
H773   H     0.56761   0.55941   0.59758   0.00000  Uiso   1.00
H774   H     0.58216   0.58187   0.65201   0.00000  Uiso   1.00
C775   C     0.43332   0.43930   0.36771   0.00000  Uiso   1.00
C776   C     0.45881   0.39607   0.36852   0.00000  Uiso   1.00
C777   C     0.45351   0.37455   0.65513   0.00000  Uiso   1.00
H778   H     0.41218   0.37497   0.63745   0.00000  Uiso   1.00
H779   H     0.47991   0.38999   0.63413   0.00000  Uiso   1.00
H780   H     0.46542   0.34144   0.65920   0.00000  Uiso   1.00
H781   H     0.50119   0.39909   0.38302   0.00000  Uiso   1.00
H782   H     0.43947   0.37550   0.39098   0.00000  Uiso   1.00
H783   H     0.42555   0.44649   0.40194   0.00000  Uiso   1.00
H784   H     0.39388   0.43796   0.34612   0.00000  Uiso   1.00
C785   C     0.83312   0.42009   0.49969   0.00000  Uiso   1.00
C786   C     0.83382   0.57990   0.50039   0.00000  Uiso   1.00
C787   C     0.73378   0.49975   0.48804   0.00000  Uiso   1.00
C788   C     0.93291   0.49992   0.51204   0.00000  Uiso   1.00
C789   C     0.67860   0.49923   0.48192   0.00000  Uiso   1.00
C790   C     0.98816   0.49972   0.51851   0.00000  Uiso   1.00
C791   C     0.86148   0.35470   0.47047   0.00000  Uiso   1.00
C792   C     0.80696   0.64531   0.53063   0.00000  Uiso   1.00
C793   C     0.86181   0.64511   0.47088   0.00000  Uiso   1.00
C794   C     0.80590   0.35487   0.52964   0.00000  Uiso   1.00
C795   C     0.83450   0.62408   0.50093   0.00000  Uiso   1.00
C796   C     0.83308   0.37590   0.49950   0.00000  Uiso   1.00
C797   C     0.86667   0.52573   0.36287   0.00000  Uiso   1.00
C798   C     0.79923   0.47496   0.63701   0.00000  Uiso   1.00
C799   C     0.86881   0.52464   0.64884   0.00000  Uiso   1.00
C800   C     0.80069   0.47304   0.35140   0.00000  Uiso   1.00
H801   H     0.99093   0.49845   0.44750   0.00000  Uiso   1.00
H802   H     0.67577   0.50015   0.55317   0.00000  Uiso   1.00
H803   H     0.88393   0.37128   0.44830   0.00000  Uiso   1.00
H804   H     0.78550   0.62875   0.55360   0.00000  Uiso   1.00
H805   H     0.88373   0.62837   0.44833   0.00000  Uiso   1.00
H806   H     0.78361   0.37158   0.55187   0.00000  Uiso   1.00
H807   H     0.89302   0.54633   0.38554   0.00000  Uiso   1.00
H808   H     0.77185   0.45524   0.61420   0.00000  Uiso   1.00
N809   N     0.83332   0.49999   0.61907   0.00000  Uiso   1.00
N810   N     0.83335   0.50001   0.38093   0.00000  Uiso   1.00
O811   O     0.83333   0.43892   0.53821   0.00000  Uiso   1.00
O812   O     0.83334   0.56108   0.46179   0.00000  Uiso   1.00
O813   O     0.83333   0.43893   0.46176   0.00000  Uiso   1.00
O814   O     0.83334   0.56107   0.53824   0.00000  Uiso   1.00
O815   O     0.75725   0.50000   0.52928   0.00000  Uiso   1.00
O816   O     0.90942   0.50000   0.47072   0.00000  Uiso   1.00
O817   O     0.75725   0.50000   0.45284   0.00000  Uiso   1.00
O818   O     0.90942   0.50000   0.54716   0.00000  Uiso   1.00
Zn819  Zn    0.83333   0.49999   0.55104   0.00000  Uiso   1.00
Zn820  Zn    0.83333   0.50001   0.44896   0.00000  Uiso   1.00
C821   C     0.91152   0.55127   0.63326   0.00000  Uiso   1.00
C822   C     0.96519   0.52984   0.63898   0.00000  Uiso   1.00
C823   C     0.99154   0.52740   0.35498   0.00000  Uiso   1.00
H824   H     0.99108   0.55812   0.37291   0.00000  Uiso   1.00
H825   H     0.97096   0.50316   0.37214   0.00000  Uiso   1.00
H826   H     0.69972   0.51810   0.35631   0.00000  Uiso   1.00
H827   H     0.96088   0.49758   0.62423   0.00000  Uiso   1.00
H828   H     0.99175   0.54802   0.62018   0.00000  Uiso   1.00
H829   H     0.90094   0.55941   0.59758   0.00000  Uiso   1.00
H830   H     0.91550   0.58187   0.65201   0.00000  Uiso   1.00
C831   C     0.76666   0.43930   0.36771   0.00000  Uiso   1.00
C832   C     0.79214   0.39607   0.36852   0.00000  Uiso   1.00
C833   C     0.78685   0.37455   0.65513   0.00000  Uiso   1.00
H834   H     0.74552   0.37497   0.63745   0.00000  Uiso   1.00
H835   H     0.81324   0.38999   0.63413   0.00000  Uiso   1.00
H836   H     0.79876   0.34144   0.65920   0.00000  Uiso   1.00
H837   H     0.83453   0.39909   0.38302   0.00000  Uiso   1.00
H838   H     0.77281   0.37550   0.39098   0.00000  Uiso   1.00
H839   H     0.75889   0.44649   0.40194   0.00000  Uiso   1.00
H840   H     0.72722   0.43796   0.34612   0.00000  Uiso   1.00
C841   C     0.16645   0.75343   0.49969   0.00000  Uiso   1.00
C842   C     0.16715   0.91323   0.50039   0.00000  Uiso   1.00
C843   C     0.06712   0.83308   0.48804   0.00000  Uiso   1.00
C844   C     0.26624   0.83325   0.51204   0.00000  Uiso   1.00
C845   C     0.01193   0.83256   0.48192   0.00000  Uiso   1.00
C846   C     0.32149   0.83305   0.51851   0.00000  Uiso   1.00
C847   C     0.19481   0.68803   0.47047   0.00000  Uiso   1.00
C848   C     0.14029   0.97864   0.53063   0.00000  Uiso   1.00
C849   C     0.19514   0.97844   0.47088   0.00000  Uiso   1.00
C850   C     0.13924   0.68820   0.52964   0.00000  Uiso   1.00
C851   C     0.16784   0.95742   0.50093   0.00000  Uiso   1.00
C852   C     0.16641   0.70923   0.49950   0.00000  Uiso   1.00
C853   C     0.20001   0.85906   0.36287   0.00000  Uiso   1.00
C854   C     0.13256   0.80829   0.63701   0.00000  Uiso   1.00
C855   C     0.20215   0.85797   0.64884   0.00000  Uiso   1.00
C856   C     0.13403   0.80637   0.35140   0.00000  Uiso   1.00
H857   H     0.32426   0.83178   0.44750   0.00000  Uiso   1.00
H858   H     0.00911   0.83348   0.55317   0.00000  Uiso   1.00
H859   H     0.21726   0.70461   0.44830   0.00000  Uiso   1.00
H860   H     0.11883   0.96209   0.55360   0.00000  Uiso   1.00
H861   H     0.21706   0.96171   0.44833   0.00000  Uiso   1.00
H862   H     0.11694   0.70491   0.55187   0.00000  Uiso   1.00
H863   H     0.22635   0.87967   0.38554   0.00000  Uiso   1.00
H864   H     0.10519   0.78858   0.61420   0.00000  Uiso   1.00
N865   N     0.16665   0.83332   0.61907   0.00000  Uiso   1.00
N866   N     0.16668   0.83334   0.38093   0.00000  Uiso   1.00
O867   O     0.16666   0.77225   0.53821   0.00000  Uiso   1.00
O868   O     0.16667   0.89442   0.46179   0.00000  Uiso   1.00
O869   O     0.16666   0.77226   0.46176   0.00000  Uiso   1.00
O870   O     0.16667   0.89441   0.53824   0.00000  Uiso   1.00
O871   O     0.09058   0.83333   0.52928   0.00000  Uiso   1.00
O872   O     0.24275   0.83334   0.47072   0.00000  Uiso   1.00
O873   O     0.09058   0.83334   0.45284   0.00000  Uiso   1.00
O874   O     0.24275   0.83333   0.54716   0.00000  Uiso   1.00
Zn875  Zn    0.16667   0.83333   0.55104   0.00000  Uiso   1.00
Zn876  Zn    0.16667   0.83334   0.44896   0.00000  Uiso   1.00
C877   C     0.24486   0.88461   0.63326   0.00000  Uiso   1.00
C878   C     0.29852   0.86318   0.63898   0.00000  Uiso   1.00
C879   C     0.32487   0.86073   0.35498   0.00000  Uiso   1.00
H880   H     0.32441   0.89146   0.37291   0.00000  Uiso   1.00
H881   H     0.30429   0.83650   0.37214   0.00000  Uiso   1.00
H882   H     0.03306   0.85143   0.35631   0.00000  Uiso   1.00
H883   H     0.29421   0.83091   0.62423   0.00000  Uiso   1.00
H884   H     0.32508   0.88135   0.62018   0.00000  Uiso   1.00
H885   H     0.23427   0.89274   0.59758   0.00000  Uiso   1.00
H886   H     0.24883   0.91521   0.65201   0.00000  Uiso   1.00
C887   C     0.09999   0.77263   0.36771   0.00000  Uiso   1.00
C888   C     0.12548   0.72940   0.36852   0.00000  Uiso   1.00
C889   C     0.12018   0.70788   0.65513   0.00000  Uiso   1.00
H890   H     0.07885   0.70830   0.63745   0.00000  Uiso   1.00
H891   H     0.14658   0.72332   0.63413   0.00000  Uiso   1.00
H892   H     0.13209   0.67477   0.65920   0.00000  Uiso   1.00
H893   H     0.16786   0.73242   0.38302   0.00000  Uiso   1.00
H894   H     0.10614   0.70884   0.39098   0.00000  Uiso   1.00
H895   H     0.09222   0.77982   0.40194   0.00000  Uiso   1.00
H896   H     0.06055   0.77130   0.34612   0.00000  Uiso   1.00
C897   C     0.49979   0.75343   0.49969   0.00000  Uiso   1.00
C898   C     0.50048   0.91323   0.50039   0.00000  Uiso   1.00
C899   C     0.40045   0.83308   0.48804   0.00000  Uiso   1.00
C900   C     0.59957   0.83325   0.51204   0.00000  Uiso   1.00
C901   C     0.34527   0.83256   0.48192   0.00000  Uiso   1.00
C902   C     0.65482   0.83305   0.51851   0.00000  Uiso   1.00
C903   C     0.52815   0.68803   0.47047   0.00000  Uiso   1.00
C904   C     0.47362   0.97864   0.53063   0.00000  Uiso   1.00
C905   C     0.52847   0.97844   0.47088   0.00000  Uiso   1.00
C906   C     0.47257   0.68820   0.52964   0.00000  Uiso   1.00
C907   C     0.50117   0.95742   0.50093   0.00000  Uiso   1.00
C908   C     0.49975   0.70923   0.49950   0.00000  Uiso   1.00
C909   C     0.53334   0.85906   0.36287   0.00000  Uiso   1.00
C910   C     0.46590   0.80829   0.63701   0.00000  Uiso   1.00
C911   C     0.53548   0.85797   0.64884   0.00000  Uiso   1.00
C912   C     0.46736   0.80637   0.35140   0.00000  Uiso   1.00
H913   H     0.65759   0.83178   0.44750   0.00000  Uiso   1.00
H914   H     0.34244   0.83348   0.55317   0.00000  Uiso   1.00
H915   H     0.55060   0.70461   0.44830   0.00000  Uiso   1.00
H916   H     0.45216   0.96209   0.55360   0.00000  Uiso   1.00
H917   H     0.55040   0.96171   0.44833   0.00000  Uiso   1.00
H918   H     0.45028   0.70491   0.55187   0.00000  Uiso   1.00
H919   H     0.55969   0.87967   0.38554   0.00000  Uiso   1.00
H920   H     0.43852   0.78858   0.61420   0.00000  Uiso   1.00
N921   N     0.49999   0.83332   0.61907   0.00000  Uiso   1.00
N922   N     0.50001   0.83334   0.38093   0.00000  Uiso   1.00
O923   O     0.50000   0.77225   0.53821   0.00000  Uiso   1.00
O924   O     0.50000   0.89442   0.46179   0.00000  Uiso   1.00
O925   O     0.50000   0.77226   0.46176   0.00000  Uiso   1.00
O926   O     0.50000   0.89441   0.53824   0.00000  Uiso   1.00
O927   O     0.42392   0.83333   0.52928   0.00000  Uiso   1.00
O928   O     0.57608   0.83334   0.47072   0.00000  Uiso   1.00
O929   O     0.42392   0.83334   0.45284   0.00000  Uiso   1.00
O930   O     0.57608   0.83333   0.54716   0.00000  Uiso   1.00
Zn931  Zn    0.50000   0.83333   0.55104   0.00000  Uiso   1.00
Zn932  Zn    0.50000   0.83334   0.44896   0.00000  Uiso   1.00
C933   C     0.57819   0.88461   0.63326   0.00000  Uiso   1.00
C934   C     0.63186   0.86318   0.63898   0.00000  Uiso   1.00
C935   C     0.65820   0.86073   0.35498   0.00000  Uiso   1.00
H936   H     0.65774   0.89146   0.37291   0.00000  Uiso   1.00
H937   H     0.63762   0.83650   0.37214   0.00000  Uiso   1.00
H938   H     0.36639   0.85143   0.35631   0.00000  Uiso   1.00
H939   H     0.62754   0.83091   0.62423   0.00000  Uiso   1.00
H940   H     0.65842   0.88135   0.62018   0.00000  Uiso   1.00
H941   H     0.56761   0.89274   0.59758   0.00000  Uiso   1.00
H942   H     0.58216   0.91521   0.65201   0.00000  Uiso   1.00
C943   C     0.43332   0.77263   0.36771   0.00000  Uiso   1.00
C944   C     0.45881   0.72940   0.36852   0.00000  Uiso   1.00
C945   C     0.45351   0.70788   0.65513   0.00000  Uiso   1.00
H946   H     0.41218   0.70830   0.63745   0.00000  Uiso   1.00
H947   H     0.47991   0.72332   0.63413   0.00000  Uiso   1.00
H948   H     0.46542   0.67477   0.65920   0.00000  Uiso   1.00
H949   H     0.50119   0.73242   0.38302   0.00000  Uiso   1.00
H950   H     0.43947   0.70884   0.39098   0.00000  Uiso   1.00
H951   H     0.42555   0.77982   0.40194   0.00000  Uiso   1.00
H952   H     0.39388   0.77130   0.34612   0.00000  Uiso   1.00
C953   C     0.83312   0.75343   0.49969   0.00000  Uiso   1.00
C954   C     0.83382   0.91323   0.50039   0.00000  Uiso   1.00
C955   C     0.73378   0.83308   0.48804   0.00000  Uiso   1.00
C956   C     0.93291   0.83325   0.51204   0.00000  Uiso   1.00
C957   C     0.67860   0.83256   0.48192   0.00000  Uiso   1.00
C958   C     0.98816   0.83305   0.51851   0.00000  Uiso   1.00
C959   C     0.86148   0.68803   0.47047   0.00000  Uiso   1.00
C960   C     0.80696   0.97864   0.53063   0.00000  Uiso   1.00
C961   C     0.86181   0.97844   0.47088   0.00000  Uiso   1.00
C962   C     0.80590   0.68820   0.52964   0.00000  Uiso   1.00
C963   C     0.83450   0.95742   0.50093   0.00000  Uiso   1.00
C964   C     0.83308   0.70923   0.49950   0.00000  Uiso   1.00
C965   C     0.86667   0.85906   0.36287   0.00000  Uiso   1.00
C966   C     0.79923   0.80829   0.63701   0.00000  Uiso   1.00
C967   C     0.86881   0.85797   0.64884   0.00000  Uiso   1.00
C968   C     0.80069   0.80637   0.35140   0.00000  Uiso   1.00
H969   H     0.99093   0.83178   0.44750   0.00000  Uiso   1.00
H970   H     0.67577   0.83348   0.55317   0.00000  Uiso   1.00
H971   H     0.88393   0.70461   0.44830   0.00000  Uiso   1.00
H972   H     0.78550   0.96209   0.55360   0.00000  Uiso   1.00
H973   H     0.88373   0.96171   0.44833   0.00000  Uiso   1.00
H974   H     0.78361   0.70491   0.55187   0.00000  Uiso   1.00
H975   H     0.89302   0.87967   0.38554   0.00000  Uiso   1.00
H976   H     0.77185   0.78858   0.61420   0.00000  Uiso   1.00
N977   N     0.83332   0.83332   0.61907   0.00000  Uiso   1.00
N978   N     0.83335   0.83334   0.38093   0.00000  Uiso   1.00
O979   O     0.83333   0.77225   0.53821   0.00000  Uiso   1.00
O980   O     0.83334   0.89442   0.46179   0.00000  Uiso   1.00
O981   O     0.83333   0.77226   0.46176   0.00000  Uiso   1.00
O982   O     0.83334   0.89441   0.53824   0.00000  Uiso   1.00
O983   O     0.75725   0.83333   0.52928   0.00000  Uiso   1.00
O984   O     0.90942   0.83334   0.47072   0.00000  Uiso   1.00
O985   O     0.75725   0.83334   0.45284   0.00000  Uiso   1.00
O986   O     0.90942   0.83333   0.54716   0.00000  Uiso   1.00
Zn987  Zn    0.83333   0.83333   0.55104   0.00000  Uiso   1.00
Zn988  Zn    0.83333   0.83334   0.44896   0.00000  Uiso   1.00
C989   C     0.91152   0.88461   0.63326   0.00000  Uiso   1.00
C990   C     0.96519   0.86318   0.63898   0.00000  Uiso   1.00
C991   C     0.99154   0.86073   0.35498   0.00000  Uiso   1.00
H992   H     0.99108   0.89146   0.37291   0.00000  Uiso   1.00
H993   H     0.97096   0.83650   0.37214   0.00000  Uiso   1.00
H994   H     0.69972   0.85143   0.35631   0.00000  Uiso   1.00
H995   H     0.96088   0.83091   0.62423   0.00000  Uiso   1.00
H996   H     0.99175   0.88135   0.62018   0.00000  Uiso   1.00
H997   H     0.90094   0.89274   0.59758   0.00000  Uiso   1.00
H998   H     0.91550   0.91521   0.65201   0.00000  Uiso   1.00
C999   C     0.76666   0.77263   0.36771   0.00000  Uiso   1.00
C1000  C     0.79214   0.72940   0.36852   0.00000  Uiso   1.00
C1001  C     0.78685   0.70788   0.65513   0.00000  Uiso   1.00
H1002  H     0.74552   0.70830   0.63745   0.00000  Uiso   1.00
H1003  H     0.81324   0.72332   0.63413   0.00000  Uiso   1.00
H1004  H     0.79876   0.67477   0.65920   0.00000  Uiso   1.00
H1005  H     0.83453   0.73242   0.38302   0.00000  Uiso   1.00
H1006  H     0.77281   0.70884   0.39098   0.00000  Uiso   1.00
H1007  H     0.75889   0.77982   0.40194   0.00000  Uiso   1.00
H1008  H     0.72722   0.77130   0.34612   0.00000  Uiso   1.00
C1009  C     0.16645   0.08676   0.83302   0.00000  Uiso   1.00
C1010  C     0.16715   0.24656   0.83372   0.00000  Uiso   1.00
C1011  C     0.06712   0.16641   0.82137   0.00000  Uiso   1.00
C1012  C     0.26624   0.16658   0.84538   0.00000  Uiso   1.00
C1013  C     0.01193   0.16590   0.81526   0.00000  Uiso   1.00
C1014  C     0.32149   0.16638   0.85184   0.00000  Uiso   1.00
C1015  C     0.19481   0.02137   0.80381   0.00000  Uiso   1.00
C1016  C     0.14029   0.31198   0.86396   0.00000  Uiso   1.00
C1017  C     0.19514   0.31177   0.80421   0.00000  Uiso   1.00
C1018  C     0.13924   0.02153   0.86297   0.00000  Uiso   1.00
C1019  C     0.16784   0.29075   0.83427   0.00000  Uiso   1.00
C1020  C     0.16641   0.04257   0.83284   0.00000  Uiso   1.00
C1021  C     0.20001   0.19240   0.69620   0.00000  Uiso   1.00
C1022  C     0.13256   0.14163   0.97034   0.00000  Uiso   1.00
C1023  C     0.20215   0.19130   0.98218   0.00000  Uiso   1.00
C1024  C     0.13403   0.13970   0.68474   0.00000  Uiso   1.00
H1025  H     0.32426   0.16512   0.78083   0.00000  Uiso   1.00
H1026  H     0.00911   0.16681   0.88650   0.00000  Uiso   1.00
H1027  H     0.21726   0.03794   0.78164   0.00000  Uiso   1.00
H1028  H     0.11883   0.29542   0.88693   0.00000  Uiso   1.00
H1029  H     0.21706   0.29504   0.78167   0.00000  Uiso   1.00
H1030  H     0.11694   0.03825   0.88520   0.00000  Uiso   1.00
H1031  H     0.22635   0.21300   0.71887   0.00000  Uiso   1.00
H1032  H     0.10519   0.12191   0.94754   0.00000  Uiso   1.00
N1033  N     0.16665   0.16666   0.95240   0.00000  Uiso   1.00
N1034  N     0.16668   0.16668   0.71427   0.00000  Uiso   1.00
O1035  O     0.16666   0.10558   0.87154   0.00000  Uiso   1.00
O1036  O     0.16667   0.22775   0.79513   0.00000  Uiso   1.00
O1037  O     0.16666   0.10559   0.79510   0.00000  Uiso   1.00
O1038  O     0.16667   0.22774   0.87157   0.00000  Uiso   1.00
O1039  O     0.09058   0.16666   0.86261   0.00000  Uiso   1.00
O1040  O     0.24275   0.16667   0.80405   0.00000  Uiso   1.00
O1041  O     0.09058   0.16667   0.78617   0.00000  Uiso   1.00
O1042  O     0.24275   0.16666   0.88050   0.00000  Uiso   1.00
Zn1043 Zn    0.16667   0.16666   0.88437   0.00000  Uiso   1.00
Zn1044 Zn    0.16667   0.16667   0.78229   0.00000  Uiso   1.00
C1045  C     0.24486   0.21794   0.96659   0.00000  Uiso   1.00
C1046  C     0.29852   0.19651   0.97232   0.00000  Uiso   1.00
C1047  C     0.32487   0.19407   0.68831   0.00000  Uiso   1.00
H1048  H     0.32441   0.22479   0.70625   0.00000  Uiso   1.00
H1049  H     0.30429   0.16983   0.70547   0.00000  Uiso   1.00
H1050  H     0.03306   0.18476   0.68964   0.00000  Uiso   1.00
H1051  H     0.29421   0.16424   0.95757   0.00000  Uiso   1.00
H1052  H     0.32508   0.21469   0.95352   0.00000  Uiso   1.00
H1053  H     0.23427   0.22608   0.93091   0.00000  Uiso   1.00
H1054  H     0.24883   0.24854   0.98534   0.00000  Uiso   1.00
C1055  C     0.09999   0.10597   0.70104   0.00000  Uiso   1.00
C1056  C     0.12548   0.06274   0.70185   0.00000  Uiso   1.00
C1057  C     0.12018   0.04121   0.98847   0.00000  Uiso   1.00
H1058  H     0.07885   0.04164   0.97078   0.00000  Uiso   1.00
H1059  H     0.14658   0.05665   0.96746   0.00000  Uiso   1.00
H1060  H     0.13209   0.00810   0.99254   0.00000  Uiso   1.00
H1061  H     0.16786   0.06575   0.71635   0.00000  Uiso   1.00
H1062  H     0.10614   0.04217   0.72432   0.00000  Uiso   1.00
H1063  H     0.09222   0.11315   0.73528   0.00000  Uiso   1.00
H1064  H     0.06055   0.10463   0.67945   0.00000  Uiso   1.00
C1065  C     0.49979   0.08676   0.83302   0.00000  Uiso   1.00
C1066  C     0.50048   0.24656   0.83372   0.00000  Uiso   1.00
C1067  C     0.40045   0.16641   0.82137   0.00000  Uiso   1.00
C1068  C     0.59957   0.16658   0.84538   0.00000  Uiso   1.00
C1069  C     0.34527   0.16590   0.81526   0.00000  Uiso   1.00
C1070  C     0.65482   0.16638   0.85184   0.00000  Uiso   1.00
C1071  C     0.52815   0.02137   0.80381   0.00000  Uiso   1.00
C1072  C     0.47362   0.31198   0.86396   0.00000  Uiso   1.00
C1073  C     0.52847   0.31177   0.80421   0.00000  Uiso   1.00
C1074  C     0.47257   0.02153   0.86297   0.00000  Uiso   1.00
C1075  C     0.50117   0.29075   0.83427   0.00000  Uiso   1.00
C1076  C     0.49975   0.04257   0.83284   0.00000  Uiso   1.00
C1077  C     0.53334   0.19240   0.69620   0.00000  Uiso   1.00
C1078  C     0.46590   0.14163   0.97034   0.00000  Uiso   1.00
C1079  C     0.53548   0.19130   0.98218   0.00000  Uiso   1.00
C1080  C     0.46736   0.13970   0.68474   0.00000  Uiso   1.00
H1081  H     0.65759   0.16512   0.78083   0.00000  Uiso   1.00
H1082  H     0.34244   0.16681   0.88650   0.00000  Uiso   1.00
H1083  H     0.55060   0.03794   0.78164   0.00000  Uiso   1.00
H1084  H     0.45216   0.29542   0.88693   0.00000  Uiso   1.00
H1085  H     0.55040   0.29504   0.78167   0.00000  Uiso   1.00
H1086  H     0.45028   0.03825   0.88520   0.00000  Uiso   1.00
H1087  H     0.55969   0.21300   0.71887   0.00000  Uiso   1.00
H1088  H     0.43852   0.12191   0.94754   0.00000  Uiso   1.00
N1089  N     0.49999   0.16666   0.95240   0.00000  Uiso   1.00
N1090  N     0.50001   0.16668   0.71427   0.00000  Uiso   1.00
O1091  O     0.50000   0.10558   0.87154   0.00000  Uiso   1.00
O1092  O     0.50000   0.22775   0.79513   0.00000  Uiso   1.00
O1093  O     0.50000   0.10559   0.79510   0.00000  Uiso   1.00
O1094  O     0.50000   0.22774   0.87157   0.00000  Uiso   1.00
O1095  O     0.42392   0.16666   0.86261   0.00000  Uiso   1.00
O1096  O     0.57608   0.16667   0.80405   0.00000  Uiso   1.00
O1097  O     0.42392   0.16667   0.78617   0.00000  Uiso   1.00
O1098  O     0.57608   0.16666   0.88050   0.00000  Uiso   1.00
Zn1099 Zn    0.50000   0.16666   0.88437   0.00000  Uiso   1.00
Zn1100 Zn    0.50000   0.16667   0.78229   0.00000  Uiso   1.00
C1101  C     0.57819   0.21794   0.96659   0.00000  Uiso   1.00
C1102  C     0.63186   0.19651   0.97232   0.00000  Uiso   1.00
C1103  C     0.65820   0.19407   0.68831   0.00000  Uiso   1.00
H1104  H     0.65774   0.22479   0.70625   0.00000  Uiso   1.00
H1105  H     0.63762   0.16983   0.70547   0.00000  Uiso   1.00
H1106  H     0.36639   0.18476   0.68964   0.00000  Uiso   1.00
H1107  H     0.62754   0.16424   0.95757   0.00000  Uiso   1.00
H1108  H     0.65842   0.21469   0.95352   0.00000  Uiso   1.00
H1109  H     0.56761   0.22608   0.93091   0.00000  Uiso   1.00
H1110  H     0.58216   0.24854   0.98534   0.00000  Uiso   1.00
C1111  C     0.43332   0.10597   0.70104   0.00000  Uiso   1.00
C1112  C     0.45881   0.06274   0.70185   0.00000  Uiso   1.00
C1113  C     0.45351   0.04121   0.98847   0.00000  Uiso   1.00
H1114  H     0.41218   0.04164   0.97078   0.00000  Uiso   1.00
H1115  H     0.47991   0.05665   0.96746   0.00000  Uiso   1.00
H1116  H     0.46542   0.00810   0.99254   0.00000  Uiso   1.00
H1117  H     0.50119   0.06575   0.71635   0.00000  Uiso   1.00
H1118  H     0.43947   0.04217   0.72432   0.00000  Uiso   1.00
H1119  H     0.42555   0.11315   0.73528   0.00000  Uiso   1.00
H1120  H     0.39388   0.10463   0.67945   0.00000  Uiso   1.00
C1121  C     0.83312   0.08676   0.83302   0.00000  Uiso   1.00
C1122  C     0.83382   0.24656   0.83372   0.00000  Uiso   1.00
C1123  C     0.73378   0.16641   0.82137   0.00000  Uiso   1.00
C1124  C     0.93291   0.16658   0.84538   0.00000  Uiso   1.00
C1125  C     0.67860   0.16590   0.81526   0.00000  Uiso   1.00
C1126  C     0.98816   0.16638   0.85184   0.00000  Uiso   1.00
C1127  C     0.86148   0.02137   0.80381   0.00000  Uiso   1.00
C1128  C     0.80696   0.31198   0.86396   0.00000  Uiso   1.00
C1129  C     0.86181   0.31177   0.80421   0.00000  Uiso   1.00
C1130  C     0.80590   0.02153   0.86297   0.00000  Uiso   1.00
C1131  C     0.83450   0.29075   0.83427   0.00000  Uiso   1.00
C1132  C     0.83308   0.04257   0.83284   0.00000  Uiso   1.00
C1133  C     0.86667   0.19240   0.69620   0.00000  Uiso   1.00
C1134  C     0.79923   0.14163   0.97034   0.00000  Uiso   1.00
C1135  C     0.86881   0.19130   0.98218   0.00000  Uiso   1.00
C1136  C     0.80069   0.13970   0.68474   0.00000  Uiso   1.00
H1137  H     0.99093   0.16512   0.78083   0.00000  Uiso   1.00
H1138  H     0.67577   0.16681   0.88650   0.00000  Uiso   1.00
H1139  H     0.88393   0.03794   0.78164   0.00000  Uiso   1.00
H1140  H     0.78550   0.29542   0.88693   0.00000  Uiso   1.00
H1141  H     0.88373   0.29504   0.78167   0.00000  Uiso   1.00
H1142  H     0.78361   0.03825   0.88520   0.00000  Uiso   1.00
H1143  H     0.89302   0.21300   0.71887   0.00000  Uiso   1.00
H1144  H     0.77185   0.12191   0.94754   0.00000  Uiso   1.00
N1145  N     0.83332   0.16666   0.95240   0.00000  Uiso   1.00
N1146  N     0.83335   0.16668   0.71427   0.00000  Uiso   1.00
O1147  O     0.83333   0.10558   0.87154   0.00000  Uiso   1.00
O1148  O     0.83334   0.22775   0.79513   0.00000  Uiso   1.00
O1149  O     0.83333   0.10559   0.79510   0.00000  Uiso   1.00
O1150  O     0.83334   0.22774   0.87157   0.00000  Uiso   1.00
O1151  O     0.75725   0.16666   0.86261   0.00000  Uiso   1.00
O1152  O     0.90942   0.16667   0.80405   0.00000  Uiso   1.00
O1153  O     0.75725   0.16667   0.78617   0.00000  Uiso   1.00
O1154  O     0.90942   0.16666   0.88050   0.00000  Uiso   1.00
Zn1155 Zn    0.83333   0.16666   0.88437   0.00000  Uiso   1.00
Zn1156 Zn    0.83333   0.16667   0.78229   0.00000  Uiso   1.00
C1157  C     0.91152   0.21794   0.96659   0.00000  Uiso   1.00
C1158  C     0.96519   0.19651   0.97232   0.00000  Uiso   1.00
C1159  C     0.99154   0.19407   0.68831   0.00000  Uiso   1.00
H1160  H     0.99108   0.22479   0.70625   0.00000  Uiso   1.00
H1161  H     0.97096   0.16983   0.70547   0.00000  Uiso   1.00
H1162  H     0.69972   0.18476   0.68964   0.00000  Uiso   1.00
H1163  H     0.96088   0.16424   0.95757   0.00000  Uiso   1.00
H1164  H     0.99175   0.21469   0.95352   0.00000  Uiso   1.00
H1165  H     0.90094   0.22608   0.93091   0.00000  Uiso   1.00
H1166  H     0.91550   0.24854   0.98534   0.00000  Uiso   1.00
C1167  C     0.76666   0.10597   0.70104   0.00000  Uiso   1.00
C1168  C     0.79214   0.06274   0.70185   0.00000  Uiso   1.00
C1169  C     0.78685   0.04121   0.98847   0.00000  Uiso   1.00
H1170  H     0.74552   0.04164   0.97078   0.00000  Uiso   1.00
H1171  H     0.81324   0.05665   0.96746   0.00000  Uiso   1.00
H1172  H     0.79876   0.00810   0.99254   0.00000  Uiso   1.00
H1173  H     0.83453   0.06575   0.71635   0.00000  Uiso   1.00
H1174  H     0.77281   0.04217   0.72432   0.00000  Uiso   1.00
H1175  H     0.75889   0.11315   0.73528   0.00000  Uiso   1.00
H1176  H     0.72722   0.10463   0.67945   0.00000  Uiso   1.00
C1177  C     0.16645   0.42009   0.83302   0.00000  Uiso   1.00
C1178  C     0.16715   0.57990   0.83372   0.00000  Uiso   1.00
C1179  C     0.06712   0.49975   0.82137   0.00000  Uiso   1.00
C1180  C     0.26624   0.49992   0.84538   0.00000  Uiso   1.00
C1181  C     0.01193   0.49923   0.81526   0.00000  Uiso   1.00
C1182  C     0.32149   0.49972   0.85184   0.00000  Uiso   1.00
C1183  C     0.19481   0.35470   0.80381   0.00000  Uiso   1.00
C1184  C     0.14029   0.64531   0.86396   0.00000  Uiso   1.00
C1185  C     0.19514   0.64511   0.80421   0.00000  Uiso   1.00
C1186  C     0.13924   0.35487   0.86297   0.00000  Uiso   1.00
C1187  C     0.16784   0.62408   0.83427   0.00000  Uiso   1.00
C1188  C     0.16641   0.37590   0.83284   0.00000  Uiso   1.00
C1189  C     0.20001   0.52573   0.69620   0.00000  Uiso   1.00
C1190  C     0.13256   0.47496   0.97034   0.00000  Uiso   1.00
C1191  C     0.20215   0.52464   0.98218   0.00000  Uiso   1.00
C1192  C     0.13403   0.47304   0.68474   0.00000  Uiso   1.00
H1193  H     0.32426   0.49845   0.78083   0.00000  Uiso   1.00
H1194  H     0.00911   0.50015   0.88650   0.00000  Uiso   1.00
H1195  H     0.21726   0.37128   0.78164   0.00000  Uiso   1.00
H1196  H     0.11883   0.62875   0.88693   0.00000  Uiso   1.00
H1197  H     0.21706   0.62837   0.78167   0.00000  Uiso   1.00
H1198  H     0.11694   0.37158   0.88520   0.00000  Uiso   1.00
H1199  H     0.22635   0.54633   0.71887   0.00000  Uiso   1.00
H1200  H     0.10519   0.45524   0.94754   0.00000  Uiso   1.00
N1201  N     0.16665   0.49999   0.95240   0.00000  Uiso   1.00
N1202  N     0.16668   0.50001   0.71427   0.00000  Uiso   1.00
O1203  O     0.16666   0.43892   0.87154   0.00000  Uiso   1.00
O1204  O     0.16667   0.56108   0.79513   0.00000  Uiso   1.00
O1205  O     0.16666   0.43893   0.79510   0.00000  Uiso   1.00
O1206  O     0.16667   0.56107   0.87157   0.00000  Uiso   1.00
O1207  O     0.09058   0.50000   0.86261   0.00000  Uiso   1.00
O1208  O     0.24275   0.50000   0.80405   0.00000  Uiso   1.00
O1209  O     0.09058   0.50000   0.78617   0.00000  Uiso   1.00
O1210  O     0.24275   0.50000   0.88050   0.00000  Uiso   1.00
Zn1211 Zn    0.16667   0.49999   0.88437   0.00000  Uiso   1.00
Zn1212 Zn    0.16667   0.50001   0.78229   0.00000  Uiso   1.00
C1213  C     0.24486   0.55127   0.96659   0.00000  Uiso   1.00
C1214  C     0.29852   0.52984   0.97232   0.00000  Uiso   1.00
C1215  C     0.32487   0.52740   0.68831   0.00000  Uiso   1.00
H1216  H     0.32441   0.55812   0.70625   0.00000  Uiso   1.00
H1217  H     0.30429   0.50316   0.70547   0.00000  Uiso   1.00
H1218  H     0.03306   0.51810   0.68964   0.00000  Uiso   1.00
H1219  H     0.29421   0.49758   0.95757   0.00000  Uiso   1.00
H1220  H     0.32508   0.54802   0.95352   0.00000  Uiso   1.00
H1221  H     0.23427   0.55941   0.93091   0.00000  Uiso   1.00
H1222  H     0.24883   0.58187   0.98534   0.00000  Uiso   1.00
C1223  C     0.09999   0.43930   0.70104   0.00000  Uiso   1.00
C1224  C     0.12548   0.39607   0.70185   0.00000  Uiso   1.00
C1225  C     0.12018   0.37455   0.98847   0.00000  Uiso   1.00
H1226  H     0.07885   0.37497   0.97078   0.00000  Uiso   1.00
H1227  H     0.14658   0.38999   0.96746   0.00000  Uiso   1.00
H1228  H     0.13209   0.34144   0.99254   0.00000  Uiso   1.00
H1229  H     0.16786   0.39909   0.71635   0.00000  Uiso   1.00
H1230  H     0.10614   0.37550   0.72432   0.00000  Uiso   1.00
H1231  H     0.09222   0.44649   0.73528   0.00000  Uiso   1.00
H1232  H     0.06055   0.43796   0.67945   0.00000  Uiso   1.00
C1233  C     0.49979   0.42009   0.83302   0.00000  Uiso   1.00
C1234  C     0.50048   0.57990   0.83372   0.00000  Uiso   1.00
C1235  C     0.40045   0.49975   0.82137   0.00000  Uiso   1.00
C1236  C     0.59957   0.49992   0.84538   0.00000  Uiso   1.00
C1237  C     0.34527   0.49923   0.81526   0.00000  Uiso   1.00
C1238  C     0.65482   0.49972   0.85184   0.00000  Uiso   1.00
C1239  C     0.52815   0.35470   0.80381   0.00000  Uiso   1.00
C1240  C     0.47362   0.64531   0.86396   0.00000  Uiso   1.00
C1241  C     0.52847   0.64511   0.80421   0.00000  Uiso   1.00
C1242  C     0.47257   0.35487   0.86297   0.00000  Uiso   1.00
C1243  C     0.50117   0.62408   0.83427   0.00000  Uiso   1.00
C1244  C     0.49975   0.37590   0.83284   0.00000  Uiso   1.00
C1245  C     0.53334   0.52573   0.69620   0.00000  Uiso   1.00
C1246  C     0.46590   0.47496   0.97034   0.00000  Uiso   1.00
C1247  C     0.53548   0.52464   0.98218   0.00000  Uiso   1.00
C1248  C     0.46736   0.47304   0.68474   0.00000  Uiso   1.00
H1249  H     0.65759   0.49845   0.78083   0.00000  Uiso   1.00
H1250  H     0.34244   0.50015   0.88650   0.00000  Uiso   1.00
H1251  H     0.55060   0.37128   0.78164   0.00000  Uiso   1.00
H1252  H     0.45216   0.62875   0.88693   0.00000  Uiso   1.00
H1253  H     0.55040   0.62837   0.78167   0.00000  Uiso   1.00
H1254  H     0.45028   0.37158   0.88520   0.00000  Uiso   1.00
H1255  H     0.55969   0.54633   0.71887   0.00000  Uiso   1.00
H1256  H     0.43852   0.45524   0.94754   0.00000  Uiso   1.00
N1257  N     0.49999   0.49999   0.95240   0.00000  Uiso   1.00
N1258  N     0.50001   0.50001   0.71427   0.00000  Uiso   1.00
O1259  O     0.50000   0.43892   0.87154   0.00000  Uiso   1.00
O1260  O     0.50000   0.56108   0.79513   0.00000  Uiso   1.00
O1261  O     0.50000   0.43893   0.79510   0.00000  Uiso   1.00
O1262  O     0.50000   0.56107   0.87157   0.00000  Uiso   1.00
O1263  O     0.42392   0.50000   0.86261   0.00000  Uiso   1.00
O1264  O     0.57608   0.50000   0.80405   0.00000  Uiso   1.00
O1265  O     0.42392   0.50000   0.78617   0.00000  Uiso   1.00
O1266  O     0.57608   0.50000   0.88050   0.00000  Uiso   1.00
Zn1267 Zn    0.50000   0.49999   0.88437   0.00000  Uiso   1.00
Zn1268 Zn    0.50000   0.50001   0.78229   0.00000  Uiso   1.00
C1269  C     0.57819   0.55127   0.96659   0.00000  Uiso   1.00
C1270  C     0.63186   0.52984   0.97232   0.00000  Uiso   1.00
C1271  C     0.65820   0.52740   0.68831   0.00000  Uiso   1.00
H1272  H     0.65774   0.55812   0.70625   0.00000  Uiso   1.00
H1273  H     0.63762   0.50316   0.70547   0.00000  Uiso   1.00
H1274  H     0.36639   0.51810   0.68964   0.00000  Uiso   1.00
H1275  H     0.62754   0.49758   0.95757   0.00000  Uiso   1.00
H1276  H     0.65842   0.54802   0.95352   0.00000  Uiso   1.00
H1277  H     0.56761   0.55941   0.93091   0.00000  Uiso   1.00
H1278  H     0.58216   0.58187   0.98534   0.00000  Uiso   1.00
C1279  C     0.43332   0.43930   0.70104   0.00000  Uiso   1.00
C1280  C     0.45881   0.39607   0.70185   0.00000  Uiso   1.00
C1281  C     0.45351   0.37455   0.98847   0.00000  Uiso   1.00
H1282  H     0.41218   0.37497   0.97078   0.00000  Uiso   1.00
H1283  H     0.47991   0.38999   0.96746   0.00000  Uiso   1.00
H1284  H     0.46542   0.34144   0.99254   0.00000  Uiso   1.00
H1285  H     0.50119   0.39909   0.71635   0.00000  Uiso   1.00
H1286  H     0.43947   0.37550   0.72432   0.00000  Uiso   1.00
H1287  H     0.42555   0.44649   0.73528   0.00000  Uiso   1.00
H1288  H     0.39388   0.43796   0.67945   0.00000  Uiso   1.00
C1289  C     0.83312   0.42009   0.83302   0.00000  Uiso   1.00
C1290  C     0.83382   0.57990   0.83372   0.00000  Uiso   1.00
C1291  C     0.73378   0.49975   0.82137   0.00000  Uiso   1.00
C1292  C     0.93291   0.49992   0.84538   0.00000  Uiso   1.00
C1293  C     0.67860   0.49923   0.81526   0.00000  Uiso   1.00
C1294  C     0.98816   0.49972   0.85184   0.00000  Uiso   1.00
C1295  C     0.86148   0.35470   0.80381   0.00000  Uiso   1.00
C1296  C     0.80696   0.64531   0.86396   0.00000  Uiso   1.00
C1297  C     0.86181   0.64511   0.80421   0.00000  Uiso   1.00
C1298  C     0.80590   0.35487   0.86297   0.00000  Uiso   1.00
C1299  C     0.83450   0.62408   0.83427   0.00000  Uiso   1.00
C1300  C     0.83308   0.37590   0.83284   0.00000  Uiso   1.00
C1301  C     0.86667   0.52573   0.69620   0.00000  Uiso   1.00
C1302  C     0.79923   0.47496   0.97034   0.00000  Uiso   1.00
C1303  C     0.86881   0.52464   0.98218   0.00000  Uiso   1.00
C1304  C     0.80069   0.47304   0.68474   0.00000  Uiso   1.00
H1305  H     0.99093   0.49845   0.78083   0.00000  Uiso   1.00
H1306  H     0.67577   0.50015   0.88650   0.00000  Uiso   1.00
H1307  H     0.88393   0.37128   0.78164   0.00000  Uiso   1.00
H1308  H     0.78550   0.62875   0.88693   0.00000  Uiso   1.00
H1309  H     0.88373   0.62837   0.78167   0.00000  Uiso   1.00
H1310  H     0.78361   0.37158   0.88520   0.00000  Uiso   1.00
H1311  H     0.89302   0.54633   0.71887   0.00000  Uiso   1.00
H1312  H     0.77185   0.45524   0.94754   0.00000  Uiso   1.00
N1313  N     0.83332   0.49999   0.95240   0.00000  Uiso   1.00
N1314  N     0.83335   0.50001   0.71427   0.00000  Uiso   1.00
O1315  O     0.83333   0.43892   0.87154   0.00000  Uiso   1.00
O1316  O     0.83334   0.56108   0.79513   0.00000  Uiso   1.00
O1317  O     0.83333   0.43893   0.79510   0.00000  Uiso   1.00
O1318  O     0.83334   0.56107   0.87157   0.00000  Uiso   1.00
O1319  O     0.75725   0.50000   0.86261   0.00000  Uiso   1.00
O1320  O     0.90942   0.50000   0.80405   0.00000  Uiso   1.00
O1321  O     0.75725   0.50000   0.78617   0.00000  Uiso   1.00
O1322  O     0.90942   0.50000   0.88050   0.00000  Uiso   1.00
Zn1323 Zn    0.83333   0.49999   0.88437   0.00000  Uiso   1.00
Zn1324 Zn    0.83333   0.50001   0.78229   0.00000  Uiso   1.00
C1325  C     0.91152   0.55127   0.96659   0.00000  Uiso   1.00
C1326  C     0.96519   0.52984   0.97232   0.00000  Uiso   1.00
C1327  C     0.99154   0.52740   0.68831   0.00000  Uiso   1.00
H1328  H     0.99108   0.55812   0.70625   0.00000  Uiso   1.00
H1329  H     0.97096   0.50316   0.70547   0.00000  Uiso   1.00
H1330  H     0.69972   0.51810   0.68964   0.00000  Uiso   1.00
H1331  H     0.96088   0.49758   0.95757   0.00000  Uiso   1.00
H1332  H     0.99175   0.54802   0.95352   0.00000  Uiso   1.00
H1333  H     0.90094   0.55941   0.93091   0.00000  Uiso   1.00
H1334  H     0.91550   0.58187   0.98534   0.00000  Uiso   1.00
C1335  C     0.76666   0.43930   0.70104   0.00000  Uiso   1.00
C1336  C     0.79214   0.39607   0.70185   0.00000  Uiso   1.00
C1337  C     0.78685   0.37455   0.98847   0.00000  Uiso   1.00
H1338  H     0.74552   0.37497   0.97078   0.00000  Uiso   1.00
H1339  H     0.81324   0.38999   0.96746   0.00000  Uiso   1.00
H1340  H     0.79876   0.34144   0.99254   0.00000  Uiso   1.00
H1341  H     0.83453   0.39909   0.71635   0.00000  Uiso   1.00
H1342  H     0.77281   0.37550   0.72432   0.00000  Uiso   1.00
H1343  H     0.75889   0.44649   0.73528   0.00000  Uiso   1.00
H1344  H     0.72722   0.43796   0.67945   0.00000  Uiso   1.00
C1345  C     0.16645   0.75343   0.83302   0.00000  Uiso   1.00
C1346  C     0.16715   0.91323   0.83372   0.00000  Uiso   1.00
C1347  C     0.06712   0.83308   0.82137   0.00000  Uiso   1.00
C1348  C     0.26624   0.83325   0.84538   0.00000  Uiso   1.00
C1349  C     0.01193   0.83256   0.81526   0.00000  Uiso   1.00
C1350  C     0.32149   0.83305   0.85184   0.00000  Uiso   1.00
C1351  C     0.19481   0.68803   0.80381   0.00000  Uiso   1.00
C1352  C     0.14029   0.97864   0.86396   0.00000  Uiso   1.00
C1353  C     0.19514   0.97844   0.80421   0.00000  Uiso   1.00
C1354  C     0.13924   0.68820   0.86297   0.00000  Uiso   1.00
C1355  C     0.16784   0.95742   0.83427   0.00000  Uiso   1.00
C1356  C     0.16641   0.70923   0.83284   0.00000  Uiso   1.00
C1357  C     0.20001   0.85906   0.69620   0.00000  Uiso   1.00
C1358  C     0.13256   0.80829   0.97034   0.00000  Uiso   1.00
C1359  C     0.20215   0.85797   0.98218   0.00000  Uiso   1.00
C1360  C     0.13403   0.80637   0.68474   0.00000  Uiso   1.00
H1361  H     0.32426   0.83178   0.78083   0.00000  Uiso   1.00
H1362  H     0.00911   0.83348   0.88650   0.00000  Uiso   1.00
H1363  H     0.21726   0.70461   0.78164   0.00000  Uiso   1.00
H1364  H     0.11883   0.96209   0.88693   0.00000  Uiso   1.00
H1365  H     0.21706   0.96171   0.78167   0.00000  Uiso   1.00
H1366  H     0.11694   0.70491   0.88520   0.00000  Uiso   1.00
H1367  H     0.22635   0.87967   0.71887   0.00000  Uiso   1.00
H1368  H     0.10519   0.78858   0.94754   0.00000  Uiso   1.00
N1369  N     0.16665   0.83332   0.95240   0.00000  Uiso   1.00
N1370  N     0.16668   0.83334   0.71427   0.00000  Uiso   1.00
O1371  O     0.16666   0.77225   0.87154   0.00000  Uiso   1.00
O1372  O     0.16667   0.89442   0.79513   0.00000  Uiso   1.00
O1373  O     0.16666   0.77226   0.79510   0.00000  Uiso   1.00
O1374  O     0.16667   0.89441   0.87157   0.00000  Uiso   1.00
O1375  O     0.09058   0.83333   0.86261   0.00000  Uiso   1.00
O1376  O     0.24275   0.83334   0.80405   0.00000  Uiso   1.00
O1377  O     0.09058   0.83334   0.78617   0.00000  Uiso   1.00
O1378  O     0.24275   0.83333   0.88050   0.00000  Uiso   1.00
Zn1379 Zn    0.16667   0.83333   0.88437   0.00000  Uiso   1.00
Zn1380 Zn    0.16667   0.83334   0.78229   0.00000  Uiso   1.00
C1381  C     0.24486   0.88461   0.96659   0.00000  Uiso   1.00
C1382  C     0.29852   0.86318   0.97232   0.00000  Uiso   1.00
C1383  C     0.32487   0.86073   0.68831   0.00000  Uiso   1.00
H1384  H     0.32441   0.89146   0.70625   0.00000  Uiso   1.00
H1385  H     0.30429   0.83650   0.70547   0.00000  Uiso   1.00
H1386  H     0.03306   0.85143   0.68964   0.00000  Uiso   1.00
H1387  H     0.29421   0.83091   0.95757   0.00000  Uiso   1.00
H1388  H     0.32508   0.88135   0.95352   0.00000  Uiso   1.00
H1389  H     0.23427   0.89274   0.93091   0.00000  Uiso   1.00
H1390  H     0.24883   0.91521   0.98534   0.00000  Uiso   1.00
C1391  C     0.09999   0.77263   0.70104   0.00000  Uiso   1.00
C1392  C     0.12548   0.72940   0.70185   0.00000  Uiso   1.00
C1393  C     0.12018   0.70788   0.98847   0.00000  Uiso   1.00
H1394  H     0.07885   0.70830   0.97078   0.00000  Uiso   1.00
H1395  H     0.14658   0.72332   0.96746   0.00000  Uiso   1.00
H1396  H     0.13209   0.67477   0.99254   0.00000  Uiso   1.00
H1397  H     0.16786   0.73242   0.71635   0.00000  Uiso   1.00
H1398  H     0.10614   0.70884   0.72432   0.00000  Uiso   1.00
H1399  H     0.09222   0.77982   0.73528   0.00000  Uiso   1.00
H1400  H     0.06055   0.77130   0.67945   0.00000  Uiso   1.00
C1401  C     0.49979   0.75343   0.83302   0.00000  Uiso   1.00
C1402  C     0.50048   0.91323   0.83372   0.00000  Uiso   1.00
C1403  C     0.40045   0.83308   0.82137   0.00000  Uiso   1.00
C1404  C     0.59957   0.83325   0.84538   0.00000  Uiso   1.00
C1405  C     0.34527   0.83256   0.81526   0.00000  Uiso   1.00
C1406  C     0.65482   0.83305   0.85184   0.00000  Uiso   1.00
C1407  C     0.52815   0.68803   0.80381   0.00000  Uiso   1.00
C1408  C     0.47362   0.97864   0.86396   0.00000  Uiso   1.00
C1409  C     0.52847   0.97844   0.80421   0.00000  Uiso   1.00
C1410  C     0.47257   0.68820   0.86297   0.00000  Uiso   1.00
C1411  C     0.50117   0.95742   0.83427   0.00000  Uiso   1.00
C1412  C     0.49975   0.70923   0.83284   0.00000  Uiso   1.00
C1413  C     0.53334   0.85906   0.69620   0.00000  Uiso   1.00
C1414  C     0.46590   0.80829   0.97034   0.00000  Uiso   1.00
C1415  C     0.53548   0.85797   0.98218   0.00000  Uiso   1.00
C1416  C     0.46736   0.80637   0.68474   0.00000  Uiso   1.00
H1417  H     0.65759   0.83178   0.78083   0.00000  Uiso   1.00
H1418  H     0.34244   0.83348   0.88650   0.00000  Uiso   1.00
H1419  H     0.55060   0.70461   0.78164   0.00000  Uiso   1.00
H1420  H     0.45216   0.96209   0.88693   0.00000  Uiso   1.00
H1421  H     0.55040   0.96171   0.78167   0.00000  Uiso   1.00
H1422  H     0.45028   0.70491   0.88520   0.00000  Uiso   1.00
H1423  H     0.55969   0.87967   0.71887   0.00000  Uiso   1.00
H1424  H     0.43852   0.78858   0.94754   0.00000  Uiso   1.00
N1425  N     0.49999   0.83332   0.95240   0.00000  Uiso   1.00
N1426  N     0.50001   0.83334   0.71427   0.00000  Uiso   1.00
O1427  O     0.50000   0.77225   0.87154   0.00000  Uiso   1.00
O1428  O     0.50000   0.89442   0.79513   0.00000  Uiso   1.00
O1429  O     0.50000   0.77226   0.79510   0.00000  Uiso   1.00
O1430  O     0.50000   0.89441   0.87157   0.00000  Uiso   1.00
O1431  O     0.42392   0.83333   0.86261   0.00000  Uiso   1.00
O1432  O     0.57608   0.83334   0.80405   0.00000  Uiso   1.00
O1433  O     0.42392   0.83334   0.78617   0.00000  Uiso   1.00
O1434  O     0.57608   0.83333   0.88050   0.00000  Uiso   1.00
Zn1435 Zn    0.50000   0.83333   0.88437   0.00000  Uiso   1.00
Zn1436 Zn    0.50000   0.83334   0.78229   0.00000  Uiso   1.00
C1437  C     0.57819   0.88461   0.96659   0.00000  Uiso   1.00
C1438  C     0.63186   0.86318   0.97232   0.00000  Uiso   1.00
C1439  C     0.65820   0.86073   0.68831   0.00000  Uiso   1.00
H1440  H     0.65774   0.89146   0.70625   0.00000  Uiso   1.00
H1441  H     0.63762   0.83650   0.70547   0.00000  Uiso   1.00
H1442  H     0.36639   0.85143   0.68964   0.00000  Uiso   1.00
H1443  H     0.62754   0.83091   0.95757   0.00000  Uiso   1.00
H1444  H     0.65842   0.88135   0.95352   0.00000  Uiso   1.00
H1445  H     0.56761   0.89274   0.93091   0.00000  Uiso   1.00
H1446  H     0.58216   0.91521   0.98534   0.00000  Uiso   1.00
C1447  C     0.43332   0.77263   0.70104   0.00000  Uiso   1.00
C1448  C     0.45881   0.72940   0.70185   0.00000  Uiso   1.00
C1449  C     0.45351   0.70788   0.98847   0.00000  Uiso   1.00
H1450  H     0.41218   0.70830   0.97078   0.00000  Uiso   1.00
H1451  H     0.47991   0.72332   0.96746   0.00000  Uiso   1.00
H1452  H     0.46542   0.67477   0.99254   0.00000  Uiso   1.00
H1453  H     0.50119   0.73242   0.71635   0.00000  Uiso   1.00
H1454  H     0.43947   0.70884   0.72432   0.00000  Uiso   1.00
H1455  H     0.42555   0.77982   0.73528   0.00000  Uiso   1.00
H1456  H     0.39388   0.77130   0.67945   0.00000  Uiso   1.00
C1457  C     0.83312   0.75343   0.83302   0.00000  Uiso   1.00
C1458  C     0.83382   0.91323   0.83372   0.00000  Uiso   1.00
C1459  C     0.73378   0.83308   0.82137   0.00000  Uiso   1.00
C1460  C     0.93291   0.83325   0.84538   0.00000  Uiso   1.00
C1461  C     0.67860   0.83256   0.81526   0.00000  Uiso   1.00
C1462  C     0.98816   0.83305   0.85184   0.00000  Uiso   1.00
C1463  C     0.86148   0.68803   0.80381   0.00000  Uiso   1.00
C1464  C     0.80696   0.97864   0.86396   0.00000  Uiso   1.00
C1465  C     0.86181   0.97844   0.80421   0.00000  Uiso   1.00
C1466  C     0.80590   0.68820   0.86297   0.00000  Uiso   1.00
C1467  C     0.83450   0.95742   0.83427   0.00000  Uiso   1.00
C1468  C     0.83308   0.70923   0.83284   0.00000  Uiso   1.00
C1469  C     0.86667   0.85906   0.69620   0.00000  Uiso   1.00
C1470  C     0.79923   0.80829   0.97034   0.00000  Uiso   1.00
C1471  C     0.86881   0.85797   0.98218   0.00000  Uiso   1.00
C1472  C     0.80069   0.80637   0.68474   0.00000  Uiso   1.00
H1473  H     0.99093   0.83178   0.78083   0.00000  Uiso   1.00
H1474  H     0.67577   0.83348   0.88650   0.00000  Uiso   1.00
H1475  H     0.88393   0.70461   0.78164   0.00000  Uiso   1.00
H1476  H     0.78550   0.96209   0.88693   0.00000  Uiso   1.00
H1477  H     0.88373   0.96171   0.78167   0.00000  Uiso   1.00
H1478  H     0.78361   0.70491   0.88520   0.00000  Uiso   1.00
H1479  H     0.89302   0.87967   0.71887   0.00000  Uiso   1.00
H1480  H     0.77185   0.78858   0.94754   0.00000  Uiso   1.00
N1481  N     0.83332   0.83332   0.95240   0.00000  Uiso   1.00
N1482  N     0.83335   0.83334   0.71427   0.00000  Uiso   1.00
O1483  O     0.83333   0.77225   0.87154   0.00000  Uiso   1.00
O1484  O     0.83334   0.89442   0.79513   0.00000  Uiso   1.00
O1485  O     0.83333   0.77226   0.79510   0.00000  Uiso   1.00
O1486  O     0.83334   0.89441   0.87157   0.00000  Uiso   1.00
O1487  O     0.75725   0.83333   0.86261   0.00000  Uiso   1.00
O1488  O     0.90942   0.83334   0.80405   0.00000  Uiso   1.00
O1489  O     0.75725   0.83334   0.78617   0.00000  Uiso   1.00
O1490  O     0.90942   0.83333   0.88050   0.00000  Uiso   1.00
Zn1491 Zn    0.83333   0.83333   0.88437   0.00000  Uiso   1.00
Zn1492 Zn    0.83333   0.83334   0.78229   0.00000  Uiso   1.00
C1493  C     0.91152   0.88461   0.96659   0.00000  Uiso   1.00
C1494  C     0.96519   0.86318   0.97232   0.00000  Uiso   1.00
C1495  C     0.99154   0.86073   0.68831   0.00000  Uiso   1.00
H1496  H     0.99108   0.89146   0.70625   0.00000  Uiso   1.00
H1497  H     0.97096   0.83650   0.70547   0.00000  Uiso   1.00
H1498  H     0.69972   0.85143   0.68964   0.00000  Uiso   1.00
H1499  H     0.96088   0.83091   0.95757   0.00000  Uiso   1.00
H1500  H     0.99175   0.88135   0.95352   0.00000  Uiso   1.00
H1501  H     0.90094   0.89274   0.93091   0.00000  Uiso   1.00
H1502  H     0.91550   0.91521   0.98534   0.00000  Uiso   1.00
C1503  C     0.76666   0.77263   0.70104   0.00000  Uiso   1.00
C1504  C     0.79214   0.72940   0.70185   0.00000  Uiso   1.00
C1505  C     0.78685   0.70788   0.98847   0.00000  Uiso   1.00
H1506  H     0.74552   0.70830   0.97078   0.00000  Uiso   1.00
H1507  H     0.81324   0.72332   0.96746   0.00000  Uiso   1.00
H1508  H     0.79876   0.67477   0.99254   0.00000  Uiso   1.00
H1509  H     0.83453   0.73242   0.71635   0.00000  Uiso   1.00
H1510  H     0.77281   0.70884   0.72432   0.00000  Uiso   1.00
H1511  H     0.75889   0.77982   0.73528   0.00000  Uiso   1.00
H1512  H     0.72722   0.77130   0.67945   0.00000  Uiso   1.00
loop_
_geom_bond_atom_site_label_1
_geom_bond_atom_site_label_2
_geom_bond_distance
_geom_bond_site_symmetry_2
_ccdc_geom_bond_type
C1     O29     1.291   .     A
C1     C12     1.412   .     S
C1     O27     1.286   .     A
C2     O30     1.290   .     A
C2     C11     1.411   .     S
C2     O28     1.287   .     A
C3     O31     1.282   .     A
C3     C5      1.403   .     S
C3     O33     1.291   .     A
C4     O34     1.290   .     A
C4     O32     1.284   .     A
C4     C6      1.405   .     S
C5     C118    1.333   1_455 S
C5     H129    1.082   1_455 S
C6     C61     1.333   .     S
C6     H74     1.087   .     S
C7     H19     1.083   .     S
C7     C12     1.393   .     A
C7     C345    1.372   1_545 S
C8     H20     1.084   .     S
C8     C11     1.394   .     A
C8     C178    1.372   .     S
C9     C11     1.397   .     A
C9     H21     1.084   .     S
C9     C175    1.372   .     S
C10    H22     1.083   .     S
C10    C12     1.397   .     A
C10    C344    1.372   1_545 S
C13    H23     1.083   .     S
C13    N26     1.355   .     A
C13    C1023   1.422   1_554 S
C14    H24     1.082   .     S
C14    N25     1.353   .     A
C14    C520    1.420   .     S
C15    N25     1.390   .     A
C15    C37     1.512   .     S
C15    C517    1.422   .     S
C16    C47     1.511   .     S
C16    N26     1.391   .     A
C16    C1022   1.420   1_554 S
H17    C61     1.082   .     S
H18    C118    1.087   1_455 S
N25    Zn35    2.029   .     S
N26    Zn36    2.029   .     S
O27    Zn35    1.982   .     S
O28    Zn36    1.982   .     S
O29    Zn36    1.995   .     S
O30    Zn35    1.995   .     S
O31    Zn35    1.963   .     S
O32    Zn36    1.963   .     S
O33    Zn36    1.980   .     S
O34    Zn35    1.980   .     S
C37    C38     1.541   .     S
C37    H45     1.093   .     S
C37    H46     1.112   .     S
C38    H44     1.112   .     S
C38    H43     1.110   .     S
C38    C543    1.523   .     S
C39    H41     1.107   .     S
C39    H40     1.111   .     S
C39    C1046   1.523   1_554 S
C39    H98     1.110   .     S
H42    C151    1.110   1_455 S
C47    C48     1.540   .     S
C47    H55     1.092   .     S
C47    H56     1.112   .     S
C48    H54     1.112   .     S
C48    H53     1.110   .     S
C48    C1057   1.528   1_554 S
C49    H52     1.111   .     S
C49    H50     1.111   .     S
C49    H51     1.109   .     S
C49    C552    1.528   .     S
C57    O85     1.291   .     A
C57    C68     1.412   .     S
C57    O83     1.286   .     A
C58    O86     1.290   .     A
C58    C67     1.411   .     S
C58    O84     1.287   .     A
C59    O87     1.282   .     A
C59    C61     1.403   .     S
C59    O89     1.291   .     A
C60    O90     1.290   .     A
C60    O88     1.284   .     A
C60    C62     1.405   .     S
C62    C117    1.333   .     S
C62    H130    1.087   .     S
C63    H75     1.083   .     S
C63    C68     1.393   .     A
C63    C401    1.372   1_545 S
C64    H76     1.084   .     S
C64    C67     1.394   .     A
C64    C234    1.372   .     S
C65    C67     1.397   .     A
C65    H77     1.084   .     S
C65    C231    1.372   .     S
C66    H78     1.083   .     S
C66    C68     1.397   .     A
C66    C400    1.372   1_545 S
C69    H79     1.083   .     S
C69    N82     1.355   .     A
C69    C1079   1.422   1_554 S
C70    H80     1.082   .     S
C70    N81     1.353   .     A
C70    C576    1.420   .     S
C71    N81     1.390   .     A
C71    C93     1.512   .     S
C71    C573    1.422   .     S
C72    C103    1.511   .     S
C72    N82     1.391   .     A
C72    C1078   1.420   1_554 S
H73    C117    1.082   .     S
N81    Zn91    2.029   .     S
N82    Zn92    2.029   .     S
O83    Zn91    1.982   .     S
O84    Zn92    1.982   .     S
O85    Zn92    1.995   .     S
O86    Zn91    1.995   .     S
O87    Zn91    1.963   .     S
O88    Zn92    1.963   .     S
O89    Zn92    1.980   .     S
O90    Zn91    1.980   .     S
C93    C94     1.541   .     S
C93    H101    1.093   .     S
C93    H102    1.112   .     S
C94    H100    1.112   .     S
C94    H99     1.110   .     S
C94    C599    1.523   .     S
C95    H97     1.107   .     S
C95    H96     1.111   .     S
C95    C1102   1.523   1_554 S
C95    H154    1.110   .     S
C103   C104    1.540   .     S
C103   H111    1.092   .     S
C103   H112    1.112   .     S
C104   H110    1.112   .     S
C104   H109    1.110   .     S
C104   C1113   1.528   1_554 S
C105   H108    1.111   .     S
C105   H106    1.111   .     S
C105   H107    1.109   .     S
C105   C608    1.528   .     S
C113   O141    1.291   .     A
C113   C124    1.412   .     S
C113   O139    1.286   .     A
C114   O142    1.290   .     A
C114   C123    1.411   .     S
C114   O140    1.287   .     A
C115   O143    1.282   .     A
C115   C117    1.403   .     S
C115   O145    1.291   .     A
C116   O146    1.290   .     A
C116   O144    1.284   .     A
C116   C118    1.405   .     S
C118   C5      1.333   1_655 S
C118   H18     1.087   1_655 S
C119   H131    1.083   .     S
C119   C124    1.393   .     A
C119   C457    1.372   1_545 S
C120   H132    1.084   .     S
C120   C123    1.394   .     A
C120   C290    1.372   .     S
C121   C123    1.397   .     A
C121   H133    1.084   .     S
C121   C287    1.372   .     S
C122   H134    1.083   .     S
C122   C124    1.397   .     A
C122   C456    1.372   1_545 S
C125   H135    1.083   .     S
C125   N138    1.355   .     A
C125   C1135   1.422   1_554 S
C126   H136    1.082   .     S
C126   N137    1.353   .     A
C126   C632    1.420   .     S
C127   N137    1.390   .     A
C127   C149    1.512   .     S
C127   C629    1.422   .     S
C128   C159    1.511   .     S
C128   N138    1.391   .     A
C128   C1134   1.420   1_554 S
H129   C5      1.082   1_655 S
N137   Zn147   2.029   .     S
N138   Zn148   2.029   .     S
O139   Zn147   1.982   .     S
O140   Zn148   1.982   .     S
O141   Zn148   1.995   .     S
O142   Zn147   1.995   .     S
O143   Zn147   1.963   .     S
O144   Zn148   1.963   .     S
O145   Zn148   1.980   .     S
O146   Zn147   1.980   .     S
C149   C150    1.541   .     S
C149   H157    1.093   .     S
C149   H158    1.112   .     S
C150   H156    1.112   .     S
C150   H155    1.110   .     S
C150   C655    1.523   .     S
C151   H153    1.107   .     S
C151   H152    1.111   .     S
C151   C1158   1.523   1_554 S
C151   H42     1.110   1_655 S
C159   C160    1.540   .     S
C159   H167    1.092   .     S
C159   H168    1.112   .     S
C160   H166    1.112   .     S
C160   H165    1.110   .     S
C160   C1169   1.528   1_554 S
C161   H164    1.111   .     S
C161   H162    1.111   .     S
C161   H163    1.109   .     S
C161   C664    1.528   .     S
C169   O197    1.291   .     A
C169   C180    1.412   .     S
C169   O195    1.286   .     A
C170   O198    1.290   .     A
C170   C179    1.411   .     S
C170   O196    1.287   .     A
C171   O199    1.282   .     A
C171   C173    1.403   .     S
C171   O201    1.291   .     A
C172   O202    1.290   .     A
C172   O200    1.284   .     A
C172   C174    1.405   .     S
C173   C286    1.333   1_455 S
C173   H297    1.082   1_455 S
C174   C229    1.333   .     S
C174   H242    1.087   .     S
C175   H187    1.083   .     S
C175   C180    1.393   .     A
C176   H188    1.084   .     S
C176   C179    1.394   .     A
C176   C346    1.372   .     S
C177   C179    1.397   .     A
C177   H189    1.084   .     S
C177   C343    1.372   .     S
C178   H190    1.083   .     S
C178   C180    1.397   .     A
C181   H191    1.083   .     S
C181   N194    1.355   .     A
C181   C1191   1.422   1_554 S
C182   H192    1.082   .     S
C182   N193    1.353   .     A
C182   C688    1.420   .     S
C183   N193    1.390   .     A
C183   C205    1.512   .     S
C183   C685    1.422   .     S
C184   C215    1.511   .     S
C184   N194    1.391   .     A
C184   C1190   1.420   1_554 S
H185   C229    1.082   .     S
H186   C286    1.087   1_455 S
N193   Zn203   2.029   .     S
N194   Zn204   2.029   .     S
O195   Zn203   1.982   .     S
O196   Zn204   1.982   .     S
O197   Zn204   1.995   .     S
O198   Zn203   1.995   .     S
O199   Zn203   1.963   .     S
O200   Zn204   1.963   .     S
O201   Zn204   1.980   .     S
O202   Zn203   1.980   .     S
C205   C206    1.541   .     S
C205   H213    1.093   .     S
C205   H214    1.112   .     S
C206   H212    1.112   .     S
C206   H211    1.110   .     S
C206   C711    1.523   .     S
C207   H209    1.107   .     S
C207   H208    1.111   .     S
C207   C1214   1.523   1_554 S
C207   H266    1.110   .     S
H210   C319    1.110   1_455 S
C215   C216    1.540   .     S
C215   H223    1.092   .     S
C215   H224    1.112   .     S
C216   H222    1.112   .     S
C216   H221    1.110   .     S
C216   C1225   1.528   1_554 S
C217   H220    1.111   .     S
C217   H218    1.111   .     S
C217   H219    1.109   .     S
C217   C720    1.528   .     S
C225   O253    1.291   .     A
C225   C236    1.412   .     S
C225   O251    1.286   .     A
C226   O254    1.290   .     A
C226   C235    1.411   .     S
C226   O252    1.287   .     A
C227   O255    1.282   .     A
C227   C229    1.403   .     S
C227   O257    1.291   .     A
C228   O258    1.290   .     A
C228   O256    1.284   .     A
C228   C230    1.405   .     S
C230   C285    1.333   .     S
C230   H298    1.087   .     S
C231   H243    1.083   .     S
C231   C236    1.393   .     A
C232   H244    1.084   .     S
C232   C235    1.394   .     A
C232   C402    1.372   .     S
C233   C235    1.397   .     A
C233   H245    1.084   .     S
C233   C399    1.372   .     S
C234   H246    1.083   .     S
C234   C236    1.397   .     A
C237   H247    1.083   .     S
C237   N250    1.355   .     A
C237   C1247   1.422   1_554 S
C238   H248    1.082   .     S
C238   N249    1.353   .     A
C238   C744    1.420   .     S
C239   N249    1.390   .     A
C239   C261    1.512   .     S
C239   C741    1.422   .     S
C240   C271    1.511   .     S
C240   N250    1.391   .     A
C240   C1246   1.420   1_554 S
H241   C285    1.082   .     S
N249   Zn259   2.029   .     S
N250   Zn260   2.029   .     S
O251   Zn259   1.982   .     S
O252   Zn260   1.982   .     S
O253   Zn260   1.995   .     S
O254   Zn259   1.995   .     S
O255   Zn259   1.963   .     S
O256   Zn260   1.963   .     S
O257   Zn260   1.980   .     S
O258   Zn259   1.980   .     S
C261   C262    1.541   .     S
C261   H269    1.093   .     S
C261   H270    1.112   .     S
C262   H268    1.112   .     S
C262   H267    1.110   .     S
C262   C767    1.523   .     S
C263   H265    1.107   .     S
C263   H264    1.111   .     S
C263   C1270   1.523   1_554 S
C263   H322    1.110   .     S
C271   C272    1.540   .     S
C271   H279    1.092   .     S
C271   H280    1.112   .     S
C272   H278    1.112   .     S
C272   H277    1.110   .     S
C272   C1281   1.528   1_554 S
C273   H276    1.111   .     S
C273   H274    1.111   .     S
C273   H275    1.109   .     S
C273   C776    1.528   .     S
C281   O309    1.291   .     A
C281   C292    1.412   .     S
C281   O307    1.286   .     A
C282   O310    1.290   .     A
C282   C291    1.411   .     S
C282   O308    1.287   .     A
C283   O311    1.282   .     A
C283   C285    1.403   .     S
C283   O313    1.291   .     A
C284   O314    1.290   .     A
C284   O312    1.284   .     A
C284   C286    1.405   .     S
C286   C173    1.333   1_655 S
C286   H186    1.087   1_655 S
C287   H299    1.083   .     S
C287   C292    1.393   .     A
C288   H300    1.084   .     S
C288   C291    1.394   .     A
C288   C458    1.372   .     S
C289   C291    1.397   .     A
C289   H301    1.084   .     S
C289   C455    1.372   .     S
C290   H302    1.083   .     S
C290   C292    1.397   .     A
C293   H303    1.083   .     S
C293   N306    1.355   .     A
C293   C1303   1.422   1_554 S
C294   H304    1.082   .     S
C294   N305    1.353   .     A
C294   C800    1.420   .     S
C295   N305    1.390   .     A
C295   C317    1.512   .     S
C295   C797    1.422   .     S
C296   C327    1.511   .     S
C296   N306    1.391   .     A
C296   C1302   1.420   1_554 S
H297   C173    1.082   1_655 S
N305   Zn315   2.029   .     S
N306   Zn316   2.029   .     S
O307   Zn315   1.982   .     S
O308   Zn316   1.982   .     S
O309   Zn316   1.995   .     S
O310   Zn315   1.995   .     S
O311   Zn315   1.963   .     S
O312   Zn316   1.963   .     S
O313   Zn316   1.980   .     S
O314   Zn315   1.980   .     S
C317   C318    1.541   .     S
C317   H325    1.093   .     S
C317   H326    1.112   .     S
C318   H324    1.112   .     S
C318   H323    1.110   .     S
C318   C823    1.523   .     S
C319   H321    1.107   .     S
C319   H320    1.111   .     S
C319   C1326   1.523   1_554 S
C319   H210    1.110   1_655 S
C327   C328    1.540   .     S
C327   H335    1.092   .     S
C327   H336    1.112   .     S
C328   H334    1.112   .     S
C328   H333    1.110   .     S
C328   C1337   1.528   1_554 S
C329   H332    1.111   .     S
C329   H330    1.111   .     S
C329   H331    1.109   .     S
C329   C832    1.528   .     S
C337   O365    1.291   .     A
C337   C348    1.412   .     S
C337   O363    1.286   .     A
C338   O366    1.290   .     A
C338   C347    1.411   .     S
C338   O364    1.287   .     A
C339   O367    1.282   .     A
C339   C341    1.403   .     S
C339   O369    1.291   .     A
C340   O370    1.290   .     A
C340   O368    1.284   .     A
C340   C342    1.405   .     S
C341   C454    1.333   1_455 S
C341   H465    1.082   1_455 S
C342   C397    1.333   .     S
C342   H410    1.087   .     S
C343   H355    1.083   .     S
C343   C348    1.393   .     A
C344   H356    1.084   .     S
C344   C347    1.394   .     A
C344   C10     1.372   1_565 S
C345   C347    1.397   .     A
C345   H357    1.084   .     S
C345   C7      1.372   1_565 S
C346   H358    1.083   .     S
C346   C348    1.397   .     A
C349   H359    1.083   .     S
C349   N362    1.355   .     A
C349   C1359   1.422   1_554 S
C350   H360    1.082   .     S
C350   N361    1.353   .     A
C350   C856    1.420   .     S
C351   N361    1.390   .     A
C351   C373    1.512   .     S
C351   C853    1.422   .     S
C352   C383    1.511   .     S
C352   N362    1.391   .     A
C352   C1358   1.420   1_554 S
H353   C397    1.082   .     S
H354   C454    1.087   1_455 S
N361   Zn371   2.029   .     S
N362   Zn372   2.029   .     S
O363   Zn371   1.982   .     S
O364   Zn372   1.982   .     S
O365   Zn372   1.995   .     S
O366   Zn371   1.995   .     S
O367   Zn371   1.963   .     S
O368   Zn372   1.963   .     S
O369   Zn372   1.980   .     S
O370   Zn371   1.980   .     S
C373   C374    1.541   .     S
C373   H381    1.093   .     S
C373   H382    1.112   .     S
C374   H380    1.112   .     S
C374   H379    1.110   .     S
C374   C879    1.523   .     S
C375   H377    1.107   .     S
C375   H376    1.111   .     S
C375   C1382   1.523   1_554 S
C375   H434    1.110   .     S
H378   C487    1.110   1_455 S
C383   C384    1.540   .     S
C383   H391    1.092   .     S
C383   H392    1.112   .     S
C384   H390    1.112   .     S
C384   H389    1.110   .     S
C384   C1393   1.528   1_554 S
C385   H388    1.111   .     S
C385   H386    1.111   .     S
C385   H387    1.109   .     S
C385   C888    1.528   .     S
C393   O421    1.291   .     A
C393   C404    1.412   .     S
C393   O419    1.286   .     A
C394   O422    1.290   .     A
C394   C403    1.411   .     S
C394   O420    1.287   .     A
C395   O423    1.282   .     A
C395   C397    1.403   .     S
C395   O425    1.291   .     A
C396   O426    1.290   .     A
C396   O424    1.284   .     A
C396   C398    1.405   .     S
C398   C453    1.333   .     S
C398   H466    1.087   .     S
C399   H411    1.083   .     S
C399   C404    1.393   .     A
C400   H412    1.084   .     S
C400   C403    1.394   .     A
C400   C66     1.372   1_565 S
C401   C403    1.397   .     A
C401   H413    1.084   .     S
C401   C63     1.372   1_565 S
C402   H414    1.083   .     S
C402   C404    1.397   .     A
C405   H415    1.083   .     S
C405   N418    1.355   .     A
C405   C1415   1.422   1_554 S
C406   H416    1.082   .     S
C406   N417    1.353   .     A
C406   C912    1.420   .     S
C407   N417    1.390   .     A
C407   C429    1.512   .     S
C407   C909    1.422   .     S
C408   C439    1.511   .     S
C408   N418    1.391   .     A
C408   C1414   1.420   1_554 S
H409   C453    1.082   .     S
N417   Zn427   2.029   .     S
N418   Zn428   2.029   .     S
O419   Zn427   1.982   .     S
O420   Zn428   1.982   .     S
O421   Zn428   1.995   .     S
O422   Zn427   1.995   .     S
O423   Zn427   1.963   .     S
O424   Zn428   1.963   .     S
O425   Zn428   1.980   .     S
O426   Zn427   1.980   .     S
C429   C430    1.541   .     S
C429   H437    1.093   .     S
C429   H438    1.112   .     S
C430   H436    1.112   .     S
C430   H435    1.110   .     S
C430   C935    1.523   .     S
C431   H433    1.107   .     S
C431   H432    1.111   .     S
C431   C1438   1.523   1_554 S
C431   H490    1.110   .     S
C439   C440    1.540   .     S
C439   H447    1.092   .     S
C439   H448    1.112   .     S
C440   H446    1.112   .     S
C440   H445    1.110   .     S
C440   C1449   1.528   1_554 S
C441   H444    1.111   .     S
C441   H442    1.111   .     S
C441   H443    1.109   .     S
C441   C944    1.528   .     S
C449   O477    1.291   .     A
C449   C460    1.412   .     S
C449   O475    1.286   .     A
C450   O478    1.290   .     A
C450   C459    1.411   .     S
C450   O476    1.287   .     A
C451   O479    1.282   .     A
C451   C453    1.403   .     S
C451   O481    1.291   .     A
C452   O482    1.290   .     A
C452   O480    1.284   .     A
C452   C454    1.405   .     S
C454   C341    1.333   1_655 S
C454   H354    1.087   1_655 S
C455   H467    1.083   .     S
C455   C460    1.393   .     A
C456   H468    1.084   .     S
C456   C459    1.394   .     A
C456   C122    1.372   1_565 S
C457   C459    1.397   .     A
C457   H469    1.084   .     S
C457   C119    1.372   1_565 S
C458   H470    1.083   .     S
C458   C460    1.397   .     A
C461   H471    1.083   .     S
C461   N474    1.355   .     A
C461   C1471   1.422   1_554 S
C462   H472    1.082   .     S
C462   N473    1.353   .     A
C462   C968    1.420   .     S
C463   N473    1.390   .     A
C463   C485    1.512   .     S
C463   C965    1.422   .     S
C464   C495    1.511   .     S
C464   N474    1.391   .     A
C464   C1470   1.420   1_554 S
H465   C341    1.082   1_655 S
N473   Zn483   2.029   .     S
N474   Zn484   2.029   .     S
O475   Zn483   1.982   .     S
O476   Zn484   1.982   .     S
O477   Zn484   1.995   .     S
O478   Zn483   1.995   .     S
O479   Zn483   1.963   .     S
O480   Zn484   1.963   .     S
O481   Zn484   1.980   .     S
O482   Zn483   1.980   .     S
C485   C486    1.541   .     S
C485   H493    1.093   .     S
C485   H494    1.112   .     S
C486   H492    1.112   .     S
C486   H491    1.110   .     S
C486   C991    1.523   .     S
C487   H489    1.107   .     S
C487   H488    1.111   .     S
C487   C1494   1.523   1_554 S
C487   H378    1.110   1_655 S
C495   C496    1.540   .     S
C495   H503    1.092   .     S
C495   H504    1.112   .     S
C496   H502    1.112   .     S
C496   H501    1.110   .     S
C496   C1505   1.528   1_554 S
C497   H500    1.111   .     S
C497   H498    1.111   .     S
C497   H499    1.109   .     S
C497   C1000   1.528   .     S
C505   O533    1.291   .     A
C505   C516    1.412   .     S
C505   O531    1.286   .     A
C506   O534    1.290   .     A
C506   C515    1.411   .     S
C506   O532    1.287   .     A
C507   O535    1.282   .     A
C507   C509    1.403   .     S
C507   O537    1.291   .     A
C508   O538    1.290   .     A
C508   O536    1.284   .     A
C508   C510    1.405   .     S
C509   C622    1.333   1_455 S
C509   H633    1.082   1_455 S
C510   C565    1.333   .     S
C510   H578    1.087   .     S
C511   H523    1.083   .     S
C511   C516    1.393   .     A
C511   C849    1.372   1_545 S
C512   H524    1.084   .     S
C512   C515    1.394   .     A
C512   C682    1.372   .     S
C513   C515    1.397   .     A
C513   H525    1.084   .     S
C513   C679    1.372   .     S
C514   H526    1.083   .     S
C514   C516    1.397   .     A
C514   C848    1.372   1_545 S
C517   H527    1.083   .     S
C517   N530    1.355   .     A
C518   H528    1.082   .     S
C518   N529    1.353   .     A
C518   C1024   1.420   .     S
C519   N529    1.390   .     A
C519   C541    1.512   .     S
C519   C1021   1.422   .     S
C520   C551    1.511   .     S
C520   N530    1.391   .     A
H521   C565    1.082   .     S
H522   C622    1.087   1_455 S
N529   Zn539   2.029   .     S
N530   Zn540   2.029   .     S
O531   Zn539   1.982   .     S
O532   Zn540   1.982   .     S
O533   Zn540   1.995   .     S
O534   Zn539   1.995   .     S
O535   Zn539   1.963   .     S
O536   Zn540   1.963   .     S
O537   Zn540   1.980   .     S
O538   Zn539   1.980   .     S
C541   C542    1.541   .     S
C541   H549    1.093   .     S
C541   H550    1.112   .     S
C542   H548    1.112   .     S
C542   H547    1.110   .     S
C542   C1047   1.523   .     S
C543   H545    1.107   .     S
C543   H544    1.111   .     S
C543   H602    1.110   .     S
H546   C655    1.110   1_455 S
C551   C552    1.540   .     S
C551   H559    1.092   .     S
C551   H560    1.112   .     S
C552   H558    1.112   .     S
C552   H557    1.110   .     S
C553   H556    1.111   .     S
C553   H554    1.111   .     S
C553   H555    1.109   .     S
C553   C1056   1.528   .     S
C561   O589    1.291   .     A
C561   C572    1.412   .     S
C561   O587    1.286   .     A
C562   O590    1.290   .     A
C562   C571    1.411   .     S
C562   O588    1.287   .     A
C563   O591    1.282   .     A
C563   C565    1.403   .     S
C563   O593    1.291   .     A
C564   O594    1.290   .     A
C564   O592    1.284   .     A
C564   C566    1.405   .     S
C566   C621    1.333   .     S
C566   H634    1.087   .     S
C567   H579    1.083   .     S
C567   C572    1.393   .     A
C567   C905    1.372   1_545 S
C568   H580    1.084   .     S
C568   C571    1.394   .     A
C568   C738    1.372   .     S
C569   C571    1.397   .     A
C569   H581    1.084   .     S
C569   C735    1.372   .     S
C570   H582    1.083   .     S
C570   C572    1.397   .     A
C570   C904    1.372   1_545 S
C573   H583    1.083   .     S
C573   N586    1.355   .     A
C574   H584    1.082   .     S
C574   N585    1.353   .     A
C574   C1080   1.420   .     S
C575   N585    1.390   .     A
C575   C597    1.512   .     S
C575   C1077   1.422   .     S
C576   C607    1.511   .     S
C576   N586    1.391   .     A
H577   C621    1.082   .     S
N585   Zn595   2.029   .     S
N586   Zn596   2.029   .     S
O587   Zn595   1.982   .     S
O588   Zn596   1.982   .     S
O589   Zn596   1.995   .     S
O590   Zn595   1.995   .     S
O591   Zn595   1.963   .     S
O592   Zn596   1.963   .     S
O593   Zn596   1.980   .     S
O594   Zn595   1.980   .     S
C597   C598    1.541   .     S
C597   H605    1.093   .     S
C597   H606    1.112   .     S
C598   H604    1.112   .     S
C598   H603    1.110   .     S
C598   C1103   1.523   .     S
C599   H601    1.107   .     S
C599   H600    1.111   .     S
C599   H658    1.110   .     S
C607   C608    1.540   .     S
C607   H615    1.092   .     S
C607   H616    1.112   .     S
C608   H614    1.112   .     S
C608   H613    1.110   .     S
C609   H612    1.111   .     S
C609   H610    1.111   .     S
C609   H611    1.109   .     S
C609   C1112   1.528   .     S
C617   O645    1.291   .     A
C617   C628    1.412   .     S
C617   O643    1.286   .     A
C618   O646    1.290   .     A
C618   C627    1.411   .     S
C618   O644    1.287   .     A
C619   O647    1.282   .     A
C619   C621    1.403   .     S
C619   O649    1.291   .     A
C620   O650    1.290   .     A
C620   O648    1.284   .     A
C620   C622    1.405   .     S
C622   C509    1.333   1_655 S
C622   H522    1.087   1_655 S
C623   H635    1.083   .     S
C623   C628    1.393   .     A
C623   C961    1.372   1_545 S
C624   H636    1.084   .     S
C624   C627    1.394   .     A
C624   C794    1.372   .     S
C625   C627    1.397   .     A
C625   H637    1.084   .     S
C625   C791    1.372   .     S
C626   H638    1.083   .     S
C626   C628    1.397   .     A
C626   C960    1.372   1_545 S
C629   H639    1.083   .     S
C629   N642    1.355   .     A
C630   H640    1.082   .     S
C630   N641    1.353   .     A
C630   C1136   1.420   .     S
C631   N641    1.390   .     A
C631   C653    1.512   .     S
C631   C1133   1.422   .     S
C632   C663    1.511   .     S
C632   N642    1.391   .     A
H633   C509    1.082   1_655 S
N641   Zn651   2.029   .     S
N642   Zn652   2.029   .     S
O643   Zn651   1.982   .     S
O644   Zn652   1.982   .     S
O645   Zn652   1.995   .     S
O646   Zn651   1.995   .     S
O647   Zn651   1.963   .     S
O648   Zn652   1.963   .     S
O649   Zn652   1.980   .     S
O650   Zn651   1.980   .     S
C653   C654    1.541   .     S
C653   H661    1.093   .     S
C653   H662    1.112   .     S
C654   H660    1.112   .     S
C654   H659    1.110   .     S
C654   C1159   1.523   .     S
C655   H657    1.107   .     S
C655   H656    1.111   .     S
C655   H546    1.110   1_655 S
C663   C664    1.540   .     S
C663   H671    1.092   .     S
C663   H672    1.112   .     S
C664   H670    1.112   .     S
C664   H669    1.110   .     S
C665   H668    1.111   .     S
C665   H666    1.111   .     S
C665   H667    1.109   .     S
C665   C1168   1.528   .     S
C673   O701    1.291   .     A
C673   C684    1.412   .     S
C673   O699    1.286   .     A
C674   O702    1.290   .     A
C674   C683    1.411   .     S
C674   O700    1.287   .     A
C675   O703    1.282   .     A
C675   C677    1.403   .     S
C675   O705    1.291   .     A
C676   O706    1.290   .     A
C676   O704    1.284   .     A
C676   C678    1.405   .     S
C677   C790    1.333   1_455 S
C677   H801    1.082   1_455 S
C678   C733    1.333   .     S
C678   H746    1.087   .     S
C679   H691    1.083   .     S
C679   C684    1.393   .     A
C680   H692    1.084   .     S
C680   C683    1.394   .     A
C680   C850    1.372   .     S
C681   C683    1.397   .     A
C681   H693    1.084   .     S
C681   C847    1.372   .     S
C682   H694    1.083   .     S
C682   C684    1.397   .     A
C685   H695    1.083   .     S
C685   N698    1.355   .     A
C686   H696    1.082   .     S
C686   N697    1.353   .     A
C686   C1192   1.420   .     S
C687   N697    1.390   .     A
C687   C709    1.512   .     S
C687   C1189   1.422   .     S
C688   C719    1.511   .     S
C688   N698    1.391   .     A
H689   C733    1.082   .     S
H690   C790    1.087   1_455 S
N697   Zn707   2.029   .     S
N698   Zn708   2.029   .     S
O699   Zn707   1.982   .     S
O700   Zn708   1.982   .     S
O701   Zn708   1.995   .     S
O702   Zn707   1.995   .     S
O703   Zn707   1.963   .     S
O704   Zn708   1.963   .     S
O705   Zn708   1.980   .     S
O706   Zn707   1.980   .     S
C709   C710    1.541   .     S
C709   H717    1.093   .     S
C709   H718    1.112   .     S
C710   H716    1.112   .     S
C710   H715    1.110   .     S
C710   C1215   1.523   .     S
C711   H713    1.107   .     S
C711   H712    1.111   .     S
C711   H770    1.110   .     S
H714   C823    1.110   1_455 S
C719   C720    1.540   .     S
C719   H727    1.092   .     S
C719   H728    1.112   .     S
C720   H726    1.112   .     S
C720   H725    1.110   .     S
C721   H724    1.111   .     S
C721   H722    1.111   .     S
C721   H723    1.109   .     S
C721   C1224   1.528   .     S
C729   O757    1.291   .     A
C729   C740    1.412   .     S
C729   O755    1.286   .     A
C730   O758    1.290   .     A
C730   C739    1.411   .     S
C730   O756    1.287   .     A
C731   O759    1.282   .     A
C731   C733    1.403   .     S
C731   O761    1.291   .     A
C732   O762    1.290   .     A
C732   O760    1.284   .     A
C732   C734    1.405   .     S
C734   C789    1.333   .     S
C734   H802    1.087   .     S
C735   H747    1.083   .     S
C735   C740    1.393   .     A
C736   H748    1.084   .     S
C736   C739    1.394   .     A
C736   C906    1.372   .     S
C737   C739    1.397   .     A
C737   H749    1.084   .     S
C737   C903    1.372   .     S
C738   H750    1.083   .     S
C738   C740    1.397   .     A
C741   H751    1.083   .     S
C741   N754    1.355   .     A
C742   H752    1.082   .     S
C742   N753    1.353   .     A
C742   C1248   1.420   .     S
C743   N753    1.390   .     A
C743   C765    1.512   .     S
C743   C1245   1.422   .     S
C744   C775    1.511   .     S
C744   N754    1.391   .     A
H745   C789    1.082   .     S
N753   Zn763   2.029   .     S
N754   Zn764   2.029   .     S
O755   Zn763   1.982   .     S
O756   Zn764   1.982   .     S
O757   Zn764   1.995   .     S
O758   Zn763   1.995   .     S
O759   Zn763   1.963   .     S
O760   Zn764   1.963   .     S
O761   Zn764   1.980   .     S
O762   Zn763   1.980   .     S
C765   C766    1.541   .     S
C765   H773    1.093   .     S
C765   H774    1.112   .     S
C766   H772    1.112   .     S
C766   H771    1.110   .     S
C766   C1271   1.523   .     S
C767   H769    1.107   .     S
C767   H768    1.111   .     S
C767   H826    1.110   .     S
C775   C776    1.540   .     S
C775   H783    1.092   .     S
C775   H784    1.112   .     S
C776   H782    1.112   .     S
C776   H781    1.110   .     S
C777   H780    1.111   .     S
C777   H778    1.111   .     S
C777   H779    1.109   .     S
C777   C1280   1.528   .     S
C785   O813    1.291   .     A
C785   C796    1.412   .     S
C785   O811    1.286   .     A
C786   O814    1.290   .     A
C786   C795    1.411   .     S
C786   O812    1.287   .     A
C787   O815    1.282   .     A
C787   C789    1.403   .     S
C787   O817    1.291   .     A
C788   O818    1.290   .     A
C788   O816    1.284   .     A
C788   C790    1.405   .     S
C790   C677    1.333   1_655 S
C790   H690    1.087   1_655 S
C791   H803    1.083   .     S
C791   C796    1.393   .     A
C792   H804    1.084   .     S
C792   C795    1.394   .     A
C792   C962    1.372   .     S
C793   C795    1.397   .     A
C793   H805    1.084   .     S
C793   C959    1.372   .     S
C794   H806    1.083   .     S
C794   C796    1.397   .     A
C797   H807    1.083   .     S
C797   N810    1.355   .     A
C798   H808    1.082   .     S
C798   N809    1.353   .     A
C798   C1304   1.420   .     S
C799   N809    1.390   .     A
C799   C821    1.512   .     S
C799   C1301   1.422   .     S
C800   C831    1.511   .     S
C800   N810    1.391   .     A
H801   C677    1.082   1_655 S
N809   Zn819   2.029   .     S
N810   Zn820   2.029   .     S
O811   Zn819   1.982   .     S
O812   Zn820   1.982   .     S
O813   Zn820   1.995   .     S
O814   Zn819   1.995   .     S
O815   Zn819   1.963   .     S
O816   Zn820   1.963   .     S
O817   Zn820   1.980   .     S
O818   Zn819   1.980   .     S
C821   C822    1.541   .     S
C821   H829    1.093   .     S
C821   H830    1.112   .     S
C822   H828    1.112   .     S
C822   H827    1.110   .     S
C822   C1327   1.523   .     S
C823   H825    1.107   .     S
C823   H824    1.111   .     S
C823   H714    1.110   1_655 S
C831   C832    1.540   .     S
C831   H839    1.092   .     S
C831   H840    1.112   .     S
C832   H838    1.112   .     S
C832   H837    1.110   .     S
C833   H836    1.111   .     S
C833   H834    1.111   .     S
C833   H835    1.109   .     S
C833   C1336   1.528   .     S
C841   O869    1.291   .     A
C841   C852    1.412   .     S
C841   O867    1.286   .     A
C842   O870    1.290   .     A
C842   C851    1.411   .     S
C842   O868    1.287   .     A
C843   O871    1.282   .     A
C843   C845    1.403   .     S
C843   O873    1.291   .     A
C844   O874    1.290   .     A
C844   O872    1.284   .     A
C844   C846    1.405   .     S
C845   C958    1.333   1_455 S
C845   H969    1.082   1_455 S
C846   C901    1.333   .     S
C846   H914    1.087   .     S
C847   H859    1.083   .     S
C847   C852    1.393   .     A
C848   H860    1.084   .     S
C848   C851    1.394   .     A
C848   C514    1.372   1_565 S
C849   C851    1.397   .     A
C849   H861    1.084   .     S
C849   C511    1.372   1_565 S
C850   H862    1.083   .     S
C850   C852    1.397   .     A
C853   H863    1.083   .     S
C853   N866    1.355   .     A
C854   H864    1.082   .     S
C854   N865    1.353   .     A
C854   C1360   1.420   .     S
C855   N865    1.390   .     A
C855   C877    1.512   .     S
C855   C1357   1.422   .     S
C856   C887    1.511   .     S
C856   N866    1.391   .     A
H857   C901    1.082   .     S
H858   C958    1.087   1_455 S
N865   Zn875   2.029   .     S
N866   Zn876   2.029   .     S
O867   Zn875   1.982   .     S
O868   Zn876   1.982   .     S
O869   Zn876   1.995   .     S
O870   Zn875   1.995   .     S
O871   Zn875   1.963   .     S
O872   Zn876   1.963   .     S
O873   Zn876   1.980   .     S
O874   Zn875   1.980   .     S
C877   C878    1.541   .     S
C877   H885    1.093   .     S
C877   H886    1.112   .     S
C878   H884    1.112   .     S
C878   H883    1.110   .     S
C878   C1383   1.523   .     S
C879   H881    1.107   .     S
C879   H880    1.111   .     S
C879   H938    1.110   .     S
H882   C991    1.110   1_455 S
C887   C888    1.540   .     S
C887   H895    1.092   .     S
C887   H896    1.112   .     S
C888   H894    1.112   .     S
C888   H893    1.110   .     S
C889   H892    1.111   .     S
C889   H890    1.111   .     S
C889   H891    1.109   .     S
C889   C1392   1.528   .     S
C897   O925    1.291   .     A
C897   C908    1.412   .     S
C897   O923    1.286   .     A
C898   O926    1.290   .     A
C898   C907    1.411   .     S
C898   O924    1.287   .     A
C899   O927    1.282   .     A
C899   C901    1.403   .     S
C899   O929    1.291   .     A
C900   O930    1.290   .     A
C900   O928    1.284   .     A
C900   C902    1.405   .     S
C902   C957    1.333   .     S
C902   H970    1.087   .     S
C903   H915    1.083   .     S
C903   C908    1.393   .     A
C904   H916    1.084   .     S
C904   C907    1.394   .     A
C904   C570    1.372   1_565 S
C905   C907    1.397   .     A
C905   H917    1.084   .     S
C905   C567    1.372   1_565 S
C906   H918    1.083   .     S
C906   C908    1.397   .     A
C909   H919    1.083   .     S
C909   N922    1.355   .     A
C910   H920    1.082   .     S
C910   N921    1.353   .     A
C910   C1416   1.420   .     S
C911   N921    1.390   .     A
C911   C933    1.512   .     S
C911   C1413   1.422   .     S
C912   C943    1.511   .     S
C912   N922    1.391   .     A
H913   C957    1.082   .     S
N921   Zn931   2.029   .     S
N922   Zn932   2.029   .     S
O923   Zn931   1.982   .     S
O924   Zn932   1.982   .     S
O925   Zn932   1.995   .     S
O926   Zn931   1.995   .     S
O927   Zn931   1.963   .     S
O928   Zn932   1.963   .     S
O929   Zn932   1.980   .     S
O930   Zn931   1.980   .     S
C933   C934    1.541   .     S
C933   H941    1.093   .     S
C933   H942    1.112   .     S
C934   H940    1.112   .     S
C934   H939    1.110   .     S
C934   C1439   1.523   .     S
C935   H937    1.107   .     S
C935   H936    1.111   .     S
C935   H994    1.110   .     S
C943   C944    1.540   .     S
C943   H951    1.092   .     S
C943   H952    1.112   .     S
C944   H950    1.112   .     S
C944   H949    1.110   .     S
C945   H948    1.111   .     S
C945   H946    1.111   .     S
C945   H947    1.109   .     S
C945   C1448   1.528   .     S
C953   O981    1.291   .     A
C953   C964    1.412   .     S
C953   O979    1.286   .     A
C954   O982    1.290   .     A
C954   C963    1.411   .     S
C954   O980    1.287   .     A
C955   O983    1.282   .     A
C955   C957    1.403   .     S
C955   O985    1.291   .     A
C956   O986    1.290   .     A
C956   O984    1.284   .     A
C956   C958    1.405   .     S
C958   C845    1.333   1_655 S
C958   H858    1.087   1_655 S
C959   H971    1.083   .     S
C959   C964    1.393   .     A
C960   H972    1.084   .     S
C960   C963    1.394   .     A
C960   C626    1.372   1_565 S
C961   C963    1.397   .     A
C961   H973    1.084   .     S
C961   C623    1.372   1_565 S
C962   H974    1.083   .     S
C962   C964    1.397   .     A
C965   H975    1.083   .     S
C965   N978    1.355   .     A
C966   H976    1.082   .     S
C966   N977    1.353   .     A
C966   C1472   1.420   .     S
C967   N977    1.390   .     A
C967   C989    1.512   .     S
C967   C1469   1.422   .     S
C968   C999    1.511   .     S
C968   N978    1.391   .     A
H969   C845    1.082   1_655 S
N977   Zn987   2.029   .     S
N978   Zn988   2.029   .     S
O979   Zn987   1.982   .     S
O980   Zn988   1.982   .     S
O981   Zn988   1.995   .     S
O982   Zn987   1.995   .     S
O983   Zn987   1.963   .     S
O984   Zn988   1.963   .     S
O985   Zn988   1.980   .     S
O986   Zn987   1.980   .     S
C989   C990    1.541   .     S
C989   H997    1.093   .     S
C989   H998    1.112   .     S
C990   H996    1.112   .     S
C990   H995    1.110   .     S
C990   C1495   1.523   .     S
C991   H993    1.107   .     S
C991   H992    1.111   .     S
C991   H882    1.110   1_655 S
C999   C1000   1.540   .     S
C999   H1007   1.092   .     S
C999   H1008   1.112   .     S
C1000  H1006   1.112   .     S
C1000  H1005   1.110   .     S
C1001  H1004   1.111   .     S
C1001  H1002   1.111   .     S
C1001  H1003   1.109   .     S
C1001  C1504   1.528   .     S
C1009  O1037   1.291   .     A
C1009  C1020   1.412   .     S
C1009  O1035   1.286   .     A
C1010  O1038   1.290   .     A
C1010  C1019   1.411   .     S
C1010  O1036   1.287   .     A
C1011  O1039   1.282   .     A
C1011  C1013   1.403   .     S
C1011  O1041   1.291   .     A
C1012  O1042   1.290   .     A
C1012  O1040   1.284   .     A
C1012  C1014   1.405   .     S
C1013  C1126   1.333   1_455 S
C1013  H1137   1.082   1_455 S
C1014  C1069   1.333   .     S
C1014  H1082   1.087   .     S
C1015  H1027   1.083   .     S
C1015  C1020   1.393   .     A
C1015  C1353   1.372   1_545 S
C1016  H1028   1.084   .     S
C1016  C1019   1.394   .     A
C1016  C1186   1.372   .     S
C1017  C1019   1.397   .     A
C1017  H1029   1.084   .     S
C1017  C1183   1.372   .     S
C1018  H1030   1.083   .     S
C1018  C1020   1.397   .     A
C1018  C1352   1.372   1_545 S
C1021  H1031   1.083   .     S
C1021  N1034   1.355   .     A
C1022  H1032   1.082   .     S
C1022  N1033   1.353   .     A
C1022  C16     1.420   1_556 S
C1023  N1033   1.390   .     A
C1023  C1045   1.512   .     S
C1023  C13     1.422   1_556 S
C1024  C1055   1.511   .     S
C1024  N1034   1.391   .     A
H1025  C1069   1.082   .     S
H1026  C1126   1.087   1_455 S
N1033  Zn1043  2.029   .     S
N1034  Zn1044  2.029   .     S
O1035  Zn1043  1.982   .     S
O1036  Zn1044  1.982   .     S
O1037  Zn1044  1.995   .     S
O1038  Zn1043  1.995   .     S
O1039  Zn1043  1.963   .     S
O1040  Zn1044  1.963   .     S
O1041  Zn1044  1.980   .     S
O1042  Zn1043  1.980   .     S
C1045  C1046   1.541   .     S
C1045  H1053   1.093   .     S
C1045  H1054   1.112   .     S
C1046  H1052   1.112   .     S
C1046  H1051   1.110   .     S
C1046  C39     1.523   1_556 S
C1047  H1049   1.107   .     S
C1047  H1048   1.111   .     S
C1047  H1106   1.110   .     S
H1050  C1159   1.110   1_455 S
C1055  C1056   1.540   .     S
C1055  H1063   1.092   .     S
C1055  H1064   1.112   .     S
C1056  H1062   1.112   .     S
C1056  H1061   1.110   .     S
C1057  H1060   1.111   .     S
C1057  H1058   1.111   .     S
C1057  H1059   1.109   .     S
C1057  C48     1.528   1_556 S
C1065  O1093   1.291   .     A
C1065  C1076   1.412   .     S
C1065  O1091   1.286   .     A
C1066  O1094   1.290   .     A
C1066  C1075   1.411   .     S
C1066  O1092   1.287   .     A
C1067  O1095   1.282   .     A
C1067  C1069   1.403   .     S
C1067  O1097   1.291   .     A
C1068  O1098   1.290   .     A
C1068  O1096   1.284   .     A
C1068  C1070   1.405   .     S
C1070  C1125   1.333   .     S
C1070  H1138   1.087   .     S
C1071  H1083   1.083   .     S
C1071  C1076   1.393   .     A
C1071  C1409   1.372   1_545 S
C1072  H1084   1.084   .     S
C1072  C1075   1.394   .     A
C1072  C1242   1.372   .     S
C1073  C1075   1.397   .     A
C1073  H1085   1.084   .     S
C1073  C1239   1.372   .     S
C1074  H1086   1.083   .     S
C1074  C1076   1.397   .     A
C1074  C1408   1.372   1_545 S
C1077  H1087   1.083   .     S
C1077  N1090   1.355   .     A
C1078  H1088   1.082   .     S
C1078  N1089   1.353   .     A
C1078  C72     1.420   1_556 S
C1079  N1089   1.390   .     A
C1079  C1101   1.512   .     S
C1079  C69     1.422   1_556 S
C1080  C1111   1.511   .     S
C1080  N1090   1.391   .     A
H1081  C1125   1.082   .     S
N1089  Zn1099  2.029   .     S
N1090  Zn1100  2.029   .     S
O1091  Zn1099  1.982   .     S
O1092  Zn1100  1.982   .     S
O1093  Zn1100  1.995   .     S
O1094  Zn1099  1.995   .     S
O1095  Zn1099  1.963   .     S
O1096  Zn1100  1.963   .     S
O1097  Zn1100  1.980   .     S
O1098  Zn1099  1.980   .     S
C1101  C1102   1.541   .     S
C1101  H1109   1.093   .     S
C1101  H1110   1.112   .     S
C1102  H1108   1.112   .     S
C1102  H1107   1.110   .     S
C1102  C95     1.523   1_556 S
C1103  H1105   1.107   .     S
C1103  H1104   1.111   .     S
C1103  H1162   1.110   .     S
C1111  C1112   1.540   .     S
C1111  H1119   1.092   .     S
C1111  H1120   1.112   .     S
C1112  H1118   1.112   .     S
C1112  H1117   1.110   .     S
C1113  H1116   1.111   .     S
C1113  H1114   1.111   .     S
C1113  H1115   1.109   .     S
C1113  C104    1.528   1_556 S
C1121  O1149   1.291   .     A
C1121  C1132   1.412   .     S
C1121  O1147   1.286   .     A
C1122  O1150   1.290   .     A
C1122  C1131   1.411   .     S
C1122  O1148   1.287   .     A
C1123  O1151   1.282   .     A
C1123  C1125   1.403   .     S
C1123  O1153   1.291   .     A
C1124  O1154   1.290   .     A
C1124  O1152   1.284   .     A
C1124  C1126   1.405   .     S
C1126  C1013   1.333   1_655 S
C1126  H1026   1.087   1_655 S
C1127  H1139   1.083   .     S
C1127  C1132   1.393   .     A
C1127  C1465   1.372   1_545 S
C1128  H1140   1.084   .     S
C1128  C1131   1.394   .     A
C1128  C1298   1.372   .     S
C1129  C1131   1.397   .     A
C1129  H1141   1.084   .     S
C1129  C1295   1.372   .     S
C1130  H1142   1.083   .     S
C1130  C1132   1.397   .     A
C1130  C1464   1.372   1_545 S
C1133  H1143   1.083   .     S
C1133  N1146   1.355   .     A
C1134  H1144   1.082   .     S
C1134  N1145   1.353   .     A
C1134  C128    1.420   1_556 S
C1135  N1145   1.390   .     A
C1135  C1157   1.512   .     S
C1135  C125    1.422   1_556 S
C1136  C1167   1.511   .     S
C1136  N1146   1.391   .     A
H1137  C1013   1.082   1_655 S
N1145  Zn1155  2.029   .     S
N1146  Zn1156  2.029   .     S
O1147  Zn1155  1.982   .     S
O1148  Zn1156  1.982   .     S
O1149  Zn1156  1.995   .     S
O1150  Zn1155  1.995   .     S
O1151  Zn1155  1.963   .     S
O1152  Zn1156  1.963   .     S
O1153  Zn1156  1.980   .     S
O1154  Zn1155  1.980   .     S
C1157  C1158   1.541   .     S
C1157  H1165   1.093   .     S
C1157  H1166   1.112   .     S
C1158  H1164   1.112   .     S
C1158  H1163   1.110   .     S
C1158  C151    1.523   1_556 S
C1159  H1161   1.107   .     S
C1159  H1160   1.111   .     S
C1159  H1050   1.110   1_655 S
C1167  C1168   1.540   .     S
C1167  H1175   1.092   .     S
C1167  H1176   1.112   .     S
C1168  H1174   1.112   .     S
C1168  H1173   1.110   .     S
C1169  H1172   1.111   .     S
C1169  H1170   1.111   .     S
C1169  H1171   1.109   .     S
C1169  C160    1.528   1_556 S
C1177  O1205   1.291   .     A
C1177  C1188   1.412   .     S
C1177  O1203   1.286   .     A
C1178  O1206   1.290   .     A
C1178  C1187   1.411   .     S
C1178  O1204   1.287   .     A
C1179  O1207   1.282   .     A
C1179  C1181   1.403   .     S
C1179  O1209   1.291   .     A
C1180  O1210   1.290   .     A
C1180  O1208   1.284   .     A
C1180  C1182   1.405   .     S
C1181  C1294   1.333   1_455 S
C1181  H1305   1.082   1_455 S
C1182  C1237   1.333   .     S
C1182  H1250   1.087   .     S
C1183  H1195   1.083   .     S
C1183  C1188   1.393   .     A
C1184  H1196   1.084   .     S
C1184  C1187   1.394   .     A
C1184  C1354   1.372   .     S
C1185  C1187   1.397   .     A
C1185  H1197   1.084   .     S
C1185  C1351   1.372   .     S
C1186  H1198   1.083   .     S
C1186  C1188   1.397   .     A
C1189  H1199   1.083   .     S
C1189  N1202   1.355   .     A
C1190  H1200   1.082   .     S
C1190  N1201   1.353   .     A
C1190  C184    1.420   1_556 S
C1191  N1201   1.390   .     A
C1191  C1213   1.512   .     S
C1191  C181    1.422   1_556 S
C1192  C1223   1.511   .     S
C1192  N1202   1.391   .     A
H1193  C1237   1.082   .     S
H1194  C1294   1.087   1_455 S
N1201  Zn1211  2.029   .     S
N1202  Zn1212  2.029   .     S
O1203  Zn1211  1.982   .     S
O1204  Zn1212  1.982   .     S
O1205  Zn1212  1.995   .     S
O1206  Zn1211  1.995   .     S
O1207  Zn1211  1.963   .     S
O1208  Zn1212  1.963   .     S
O1209  Zn1212  1.980   .     S
O1210  Zn1211  1.980   .     S
C1213  C1214   1.541   .     S
C1213  H1221   1.093   .     S
C1213  H1222   1.112   .     S
C1214  H1220   1.112   .     S
C1214  H1219   1.110   .     S
C1214  C207    1.523   1_556 S
C1215  H1217   1.107   .     S
C1215  H1216   1.111   .     S
C1215  H1274   1.110   .     S
H1218  C1327   1.110   1_455 S
C1223  C1224   1.540   .     S
C1223  H1231   1.092   .     S
C1223  H1232   1.112   .     S
C1224  H1230   1.112   .     S
C1224  H1229   1.110   .     S
C1225  H1228   1.111   .     S
C1225  H1226   1.111   .     S
C1225  H1227   1.109   .     S
C1225  C216    1.528   1_556 S
C1233  O1261   1.291   .     A
C1233  C1244   1.412   .     S
C1233  O1259   1.286   .     A
C1234  O1262   1.290   .     A
C1234  C1243   1.411   .     S
C1234  O1260   1.287   .     A
C1235  O1263   1.282   .     A
C1235  C1237   1.403   .     S
C1235  O1265   1.291   .     A
C1236  O1266   1.290   .     A
C1236  O1264   1.284   .     A
C1236  C1238   1.405   .     S
C1238  C1293   1.333   .     S
C1238  H1306   1.087   .     S
C1239  H1251   1.083   .     S
C1239  C1244   1.393   .     A
C1240  H1252   1.084   .     S
C1240  C1243   1.394   .     A
C1240  C1410   1.372   .     S
C1241  C1243   1.397   .     A
C1241  H1253   1.084   .     S
C1241  C1407   1.372   .     S
C1242  H1254   1.083   .     S
C1242  C1244   1.397   .     A
C1245  H1255   1.083   .     S
C1245  N1258   1.355   .     A
C1246  H1256   1.082   .     S
C1246  N1257   1.353   .     A
C1246  C240    1.420   1_556 S
C1247  N1257   1.390   .     A
C1247  C1269   1.512   .     S
C1247  C237    1.422   1_556 S
C1248  C1279   1.511   .     S
C1248  N1258   1.391   .     A
H1249  C1293   1.082   .     S
N1257  Zn1267  2.029   .     S
N1258  Zn1268  2.029   .     S
O1259  Zn1267  1.982   .     S
O1260  Zn1268  1.982   .     S
O1261  Zn1268  1.995   .     S
O1262  Zn1267  1.995   .     S
O1263  Zn1267  1.963   .     S
O1264  Zn1268  1.963   .     S
O1265  Zn1268  1.980   .     S
O1266  Zn1267  1.980   .     S
C1269  C1270   1.541   .     S
C1269  H1277   1.093   .     S
C1269  H1278   1.112   .     S
C1270  H1276   1.112   .     S
C1270  H1275   1.110   .     S
C1270  C263    1.523   1_556 S
C1271  H1273   1.107   .     S
C1271  H1272   1.111   .     S
C1271  H1330   1.110   .     S
C1279  C1280   1.540   .     S
C1279  H1287   1.092   .     S
C1279  H1288   1.112   .     S
C1280  H1286   1.112   .     S
C1280  H1285   1.110   .     S
C1281  H1284   1.111   .     S
C1281  H1282   1.111   .     S
C1281  H1283   1.109   .     S
C1281  C272    1.528   1_556 S
C1289  O1317   1.291   .     A
C1289  C1300   1.412   .     S
C1289  O1315   1.286   .     A
C1290  O1318   1.290   .     A
C1290  C1299   1.411   .     S
C1290  O1316   1.287   .     A
C1291  O1319   1.282   .     A
C1291  C1293   1.403   .     S
C1291  O1321   1.291   .     A
C1292  O1322   1.290   .     A
C1292  O1320   1.284   .     A
C1292  C1294   1.405   .     S
C1294  C1181   1.333   1_655 S
C1294  H1194   1.087   1_655 S
C1295  H1307   1.083   .     S
C1295  C1300   1.393   .     A
C1296  H1308   1.084   .     S
C1296  C1299   1.394   .     A
C1296  C1466   1.372   .     S
C1297  C1299   1.397   .     A
C1297  H1309   1.084   .     S
C1297  C1463   1.372   .     S
C1298  H1310   1.083   .     S
C1298  C1300   1.397   .     A
C1301  H1311   1.083   .     S
C1301  N1314   1.355   .     A
C1302  H1312   1.082   .     S
C1302  N1313   1.353   .     A
C1302  C296    1.420   1_556 S
C1303  N1313   1.390   .     A
C1303  C1325   1.512   .     S
C1303  C293    1.422   1_556 S
C1304  C1335   1.511   .     S
C1304  N1314   1.391   .     A
H1305  C1181   1.082   1_655 S
N1313  Zn1323  2.029   .     S
N1314  Zn1324  2.029   .     S
O1315  Zn1323  1.982   .     S
O1316  Zn1324  1.982   .     S
O1317  Zn1324  1.995   .     S
O1318  Zn1323  1.995   .     S
O1319  Zn1323  1.963   .     S
O1320  Zn1324  1.963   .     S
O1321  Zn1324  1.980   .     S
O1322  Zn1323  1.980   .     S
C1325  C1326   1.541   .     S
C1325  H1333   1.093   .     S
C1325  H1334   1.112   .     S
C1326  H1332   1.112   .     S
C1326  H1331   1.110   .     S
C1326  C319    1.523   1_556 S
C1327  H1329   1.107   .     S
C1327  H1328   1.111   .     S
C1327  H1218   1.110   1_655 S
C1335  C1336   1.540   .     S
C1335  H1343   1.092   .     S
C1335  H1344   1.112   .     S
C1336  H1342   1.112   .     S
C1336  H1341   1.110   .     S
C1337  H1340   1.111   .     S
C1337  H1338   1.111   .     S
C1337  H1339   1.109   .     S
C1337  C328    1.528   1_556 S
C1345  O1373   1.291   .     A
C1345  C1356   1.412   .     S
C1345  O1371   1.286   .     A
C1346  O1374   1.290   .     A
C1346  C1355   1.411   .     S
C1346  O1372   1.287   .     A
C1347  O1375   1.282   .     A
C1347  C1349   1.403   .     S
C1347  O1377   1.291   .     A
C1348  O1378   1.290   .     A
C1348  O1376   1.284   .     A
C1348  C1350   1.405   .     S
C1349  C1462   1.333   1_455 S
C1349  H1473   1.082   1_455 S
C1350  C1405   1.333   .     S
C1350  H1418   1.087   .     S
C1351  H1363   1.083   .     S
C1351  C1356   1.393   .     A
C1352  H1364   1.084   .     S
C1352  C1355   1.394   .     A
C1352  C1018   1.372   1_565 S
C1353  C1355   1.397   .     A
C1353  H1365   1.084   .     S
C1353  C1015   1.372   1_565 S
C1354  H1366   1.083   .     S
C1354  C1356   1.397   .     A
C1357  H1367   1.083   .     S
C1357  N1370   1.355   .     A
C1358  H1368   1.082   .     S
C1358  N1369   1.353   .     A
C1358  C352    1.420   1_556 S
C1359  N1369   1.390   .     A
C1359  C1381   1.512   .     S
C1359  C349    1.422   1_556 S
C1360  C1391   1.511   .     S
C1360  N1370   1.391   .     A
H1361  C1405   1.082   .     S
H1362  C1462   1.087   1_455 S
N1369  Zn1379  2.029   .     S
N1370  Zn1380  2.029   .     S
O1371  Zn1379  1.982   .     S
O1372  Zn1380  1.982   .     S
O1373  Zn1380  1.995   .     S
O1374  Zn1379  1.995   .     S
O1375  Zn1379  1.963   .     S
O1376  Zn1380  1.963   .     S
O1377  Zn1380  1.980   .     S
O1378  Zn1379  1.980   .     S
C1381  C1382   1.541   .     S
C1381  H1389   1.093   .     S
C1381  H1390   1.112   .     S
C1382  H1388   1.112   .     S
C1382  H1387   1.110   .     S
C1382  C375    1.523   1_556 S
C1383  H1385   1.107   .     S
C1383  H1384   1.111   .     S
C1383  H1442   1.110   .     S
H1386  C1495   1.110   1_455 S
C1391  C1392   1.540   .     S
C1391  H1399   1.092   .     S
C1391  H1400   1.112   .     S
C1392  H1398   1.112   .     S
C1392  H1397   1.110   .     S
C1393  H1396   1.111   .     S
C1393  H1394   1.111   .     S
C1393  H1395   1.109   .     S
C1393  C384    1.528   1_556 S
C1401  O1429   1.291   .     A
C1401  C1412   1.412   .     S
C1401  O1427   1.286   .     A
C1402  O1430   1.290   .     A
C1402  C1411   1.411   .     S
C1402  O1428   1.287   .     A
C1403  O1431   1.282   .     A
C1403  C1405   1.403   .     S
C1403  O1433   1.291   .     A
C1404  O1434   1.290   .     A
C1404  O1432   1.284   .     A
C1404  C1406   1.405   .     S
C1406  C1461   1.333   .     S
C1406  H1474   1.087   .     S
C1407  H1419   1.083   .     S
C1407  C1412   1.393   .     A
C1408  H1420   1.084   .     S
C1408  C1411   1.394   .     A
C1408  C1074   1.372   1_565 S
C1409  C1411   1.397   .     A
C1409  H1421   1.084   .     S
C1409  C1071   1.372   1_565 S
C1410  H1422   1.083   .     S
C1410  C1412   1.397   .     A
C1413  H1423   1.083   .     S
C1413  N1426   1.355   .     A
C1414  H1424   1.082   .     S
C1414  N1425   1.353   .     A
C1414  C408    1.420   1_556 S
C1415  N1425   1.390   .     A
C1415  C1437   1.512   .     S
C1415  C405    1.422   1_556 S
C1416  C1447   1.511   .     S
C1416  N1426   1.391   .     A
H1417  C1461   1.082   .     S
N1425  Zn1435  2.029   .     S
N1426  Zn1436  2.029   .     S
O1427  Zn1435  1.982   .     S
O1428  Zn1436  1.982   .     S
O1429  Zn1436  1.995   .     S
O1430  Zn1435  1.995   .     S
O1431  Zn1435  1.963   .     S
O1432  Zn1436  1.963   .     S
O1433  Zn1436  1.980   .     S
O1434  Zn1435  1.980   .     S
C1437  C1438   1.541   .     S
C1437  H1445   1.093   .     S
C1437  H1446   1.112   .     S
C1438  H1444   1.112   .     S
C1438  H1443   1.110   .     S
C1438  C431    1.523   1_556 S
C1439  H1441   1.107   .     S
C1439  H1440   1.111   .     S
C1439  H1498   1.110   .     S
C1447  C1448   1.540   .     S
C1447  H1455   1.092   .     S
C1447  H1456   1.112   .     S
C1448  H1454   1.112   .     S
C1448  H1453   1.110   .     S
C1449  H1452   1.111   .     S
C1449  H1450   1.111   .     S
C1449  H1451   1.109   .     S
C1449  C440    1.528   1_556 S
C1457  O1485   1.291   .     A
C1457  C1468   1.412   .     S
C1457  O1483   1.286   .     A
C1458  O1486   1.290   .     A
C1458  C1467   1.411   .     S
C1458  O1484   1.287   .     A
C1459  O1487   1.282   .     A
C1459  C1461   1.403   .     S
C1459  O1489   1.291   .     A
C1460  O1490   1.290   .     A
C1460  O1488   1.284   .     A
C1460  C1462   1.405   .     S
C1462  C1349   1.333   1_655 S
C1462  H1362   1.087   1_655 S
C1463  H1475   1.083   .     S
C1463  C1468   1.393   .     A
C1464  H1476   1.084   .     S
C1464  C1467   1.394   .     A
C1464  C1130   1.372   1_565 S
C1465  C1467   1.397   .     A
C1465  H1477   1.084   .     S
C1465  C1127   1.372   1_565 S
C1466  H1478   1.083   .     S
C1466  C1468   1.397   .     A
C1469  H1479   1.083   .     S
C1469  N1482   1.355   .     A
C1470  H1480   1.082   .     S
C1470  N1481   1.353   .     A
C1470  C464    1.420   1_556 S
C1471  N1481   1.390   .     A
C1471  C1493   1.512   .     S
C1471  C461    1.422   1_556 S
C1472  C1503   1.511   .     S
C1472  N1482   1.391   .     A
H1473  C1349   1.082   1_655 S
N1481  Zn1491  2.029   .     S
N1482  Zn1492  2.029   .     S
O1483  Zn1491  1.982   .     S
O1484  Zn1492  1.982   .     S
O1485  Zn1492  1.995   .     S
O1486  Zn1491  1.995   .     S
O1487  Zn1491  1.963   .     S
O1488  Zn1492  1.963   .     S
O1489  Zn1492  1.980   .     S
O1490  Zn1491  1.980   .     S
C1493  C1494   1.541   .     S
C1493  H1501   1.093   .     S
C1493  H1502   1.112   .     S
C1494  H1500   1.112   .     S
C1494  H1499   1.110   .     S
C1494  C487    1.523   1_556 S
C1495  H1497   1.107   .     S
C1495  H1496   1.111   .     S
C1495  H1386   1.110   1_655 S
C1503  C1504   1.540   .     S
C1503  H1511   1.092   .     S
C1503  H1512   1.112   .     S
C1504  H1510   1.112   .     S
C1504  H1509   1.110   .     S
C1505  H1508   1.111   .     S
C1505  H1506   1.111   .     S
C1505  H1507   1.109   .     S
C1505  C496    1.528   1_556 S
