data_str_m3_o10_o16_pcu_sym.175
_audit_creation_date              2020-01-03
_audit_creation_method            'Materials Studio'
_symmetry_space_group_name_H-M    'P1'
_symmetry_Int_Tables_number       1
_symmetry_cell_setting            triclinic
loop_
_symmetry_equiv_pos_as_xyz
  x,y,z
_cell_length_a                    23.4625
_cell_length_b                    25.6164
_cell_length_c                    24.3963
_cell_angle_alpha                 91.0102
_cell_angle_beta                  102.4036
_cell_angle_gamma                 92.6475
loop_
_atom_site_label
_atom_site_type_symbol
_atom_site_fract_x
_atom_site_fract_y
_atom_site_fract_z
_atom_site_U_iso_or_equiv
_atom_site_adp_type
_atom_site_occupancy
C1     C     0.01460   0.26484   0.24932   0.00000  Uiso   1.00
C2     C     0.12206   0.13618   0.49688   0.00000  Uiso   1.00
C3     C     0.10050   0.13015   0.43904   0.00000  Uiso   1.00
C4     C     0.18109   0.12694   0.01824   0.00000  Uiso   1.00
C5     C     0.20976   0.09268   0.48850   0.00000  Uiso   1.00
C6     C     0.18211   0.07582   0.43394   0.00000  Uiso   1.00
C7     C     0.12911   0.09655   0.40824   0.00000  Uiso   1.00
C8     C     0.21471   0.15874   0.06212   0.00000  Uiso   1.00
C9     C     0.29551   0.10207   0.06391   0.00000  Uiso   1.00
C10    C     0.05216   0.15919   0.41491   0.00000  Uiso   1.00
C11    C     0.02260   0.31937   0.25538   0.00000  Uiso   1.00
C12    C     0.03567   0.16619   0.35486   0.00000  Uiso   1.00
C13    C     0.31013   0.01495   0.23674   0.00000  Uiso   1.00
C14    C     0.31900   0.06845   0.25071   0.00000  Uiso   1.00
C15    C     0.29610   0.16192   0.14484   0.00000  Uiso   1.00
C16    C     0.26648   0.07880   0.01270   0.00000  Uiso   1.00
C17    C     0.27105   0.14381   0.08746   0.00000  Uiso   1.00
C18    C     0.02015   0.18430   0.44936   0.00000  Uiso   1.00
C19    C     0.03611   0.18097   0.00717   0.00000  Uiso   1.00
C20    C     0.08586   0.15531   0.03095   0.00000  Uiso   1.00
H21    H     0.00431   0.08848   0.08435   0.00000  Uiso   1.00
H22    H     0.15705   0.12540   0.20871   0.00000  Uiso   1.00
H23    H     0.17628   0.20789   0.29132   0.00000  Uiso   1.00
H24    H     0.20324   0.04977   0.40998   0.00000  Uiso   1.00
H25    H     0.28809   0.05014   0.49229   0.00000  Uiso   1.00
H26    H     0.31611   0.20657   0.43161   0.00000  Uiso   1.00
H27    H     0.09737   0.15208   0.07603   0.00000  Uiso   1.00
H28    H     0.01104   0.19974   0.03354   0.00000  Uiso   1.00
H29    H     0.11048   0.08509   0.36502   0.00000  Uiso   1.00
H30    H     0.06250   0.00163   0.28352   0.00000  Uiso   1.00
N31    N     0.14493   0.15223   0.23542   0.00000  Uiso   1.00
N32    N     0.18840   0.18110   0.26457   0.00000  Uiso   1.00
O33    O     0.29769   0.24629   0.25357   0.00000  Uiso   1.00
O34    O     0.05742   0.23704   0.24423   0.00000  Uiso   1.00
O35    O     0.31490   0.17358   0.33380   0.00000  Uiso   1.00
O36    O     0.07463   0.16433   0.32446   0.00000  Uiso   1.00
O37    O     0.27592   0.09629   0.25576   0.00000  Uiso   1.00
O38    O     0.03565   0.08704   0.24642   0.00000  Uiso   1.00
O39    O     0.25870   0.16901   0.17554   0.00000  Uiso   1.00
O40    O     0.01843   0.15976   0.16620   0.00000  Uiso   1.00
Zn41   Zn    0.27119   0.17284   0.25623   0.00000  Uiso   1.00
Zn42   Zn    0.06214   0.16049   0.24376   0.00000  Uiso   1.00
C43    C     0.26620   0.00077   0.18488   0.00000  Uiso   1.00
O44    O     0.21778   0.01865   0.17695   0.00000  Uiso   1.00
O45    O     0.28352   0.30588   0.14229   0.00000  Uiso   1.00
H46    H     0.25715   0.31061   0.10442   0.00000  Uiso   1.00
C47    C     0.19743   0.21387   0.06743   0.00000  Uiso   1.00
C48    C     0.16893   0.23000   0.10972   0.00000  Uiso   1.00
C49    C     0.13807   0.27574   0.10418   0.00000  Uiso   1.00
C50    C     0.13652   0.30667   0.05735   0.00000  Uiso   1.00
C51    C     0.16570   0.29176   0.01585   0.00000  Uiso   1.00
C52    C     0.19631   0.24597   0.02096   0.00000  Uiso   1.00
H53    H     0.16538   0.20511   0.14413   0.00000  Uiso   1.00
H54    H     0.11446   0.28673   0.13582   0.00000  Uiso   1.00
H55    H     0.11236   0.00857   0.05300   0.00000  Uiso   1.00
H56    H     0.16347   0.31489   0.47897   0.00000  Uiso   1.00
H57    H     0.21632   0.23382   0.48702   0.00000  Uiso   1.00
C58    C     0.34793   0.26484   0.24932   0.00000  Uiso   1.00
C59    C     0.45540   0.13618   0.49688   0.00000  Uiso   1.00
C60    C     0.43384   0.13015   0.43904   0.00000  Uiso   1.00
C61    C     0.51443   0.12694   0.01824   0.00000  Uiso   1.00
C62    C     0.54309   0.09268   0.48850   0.00000  Uiso   1.00
C63    C     0.51544   0.07582   0.43394   0.00000  Uiso   1.00
C64    C     0.46244   0.09655   0.40824   0.00000  Uiso   1.00
C65    C     0.54805   0.15874   0.06212   0.00000  Uiso   1.00
C66    C     0.62884   0.10207   0.06391   0.00000  Uiso   1.00
C67    C     0.38549   0.15919   0.41491   0.00000  Uiso   1.00
C68    C     0.35594   0.31937   0.25538   0.00000  Uiso   1.00
C69    C     0.36900   0.16619   0.35486   0.00000  Uiso   1.00
C70    C     0.64346   0.01495   0.23674   0.00000  Uiso   1.00
C71    C     0.65233   0.06845   0.25071   0.00000  Uiso   1.00
C72    C     0.62944   0.16192   0.14484   0.00000  Uiso   1.00
C73    C     0.59981   0.07880   0.01270   0.00000  Uiso   1.00
C74    C     0.60438   0.14381   0.08746   0.00000  Uiso   1.00
C75    C     0.35348   0.18430   0.44936   0.00000  Uiso   1.00
C76    C     0.36944   0.18097   0.00717   0.00000  Uiso   1.00
C77    C     0.41919   0.15531   0.03095   0.00000  Uiso   1.00
H78    H     0.33764   0.08848   0.08435   0.00000  Uiso   1.00
H79    H     0.49038   0.12540   0.20871   0.00000  Uiso   1.00
H80    H     0.50961   0.20789   0.29132   0.00000  Uiso   1.00
H81    H     0.53657   0.04977   0.40998   0.00000  Uiso   1.00
H82    H     0.62142   0.05014   0.49229   0.00000  Uiso   1.00
H83    H     0.64944   0.20657   0.43161   0.00000  Uiso   1.00
H84    H     0.43071   0.15208   0.07603   0.00000  Uiso   1.00
H85    H     0.34438   0.19974   0.03354   0.00000  Uiso   1.00
H86    H     0.44382   0.08509   0.36502   0.00000  Uiso   1.00
H87    H     0.39583   0.00163   0.28352   0.00000  Uiso   1.00
N88    N     0.47827   0.15223   0.23542   0.00000  Uiso   1.00
N89    N     0.52173   0.18110   0.26457   0.00000  Uiso   1.00
O90    O     0.63102   0.24629   0.25357   0.00000  Uiso   1.00
O91    O     0.39075   0.23704   0.24423   0.00000  Uiso   1.00
O92    O     0.64823   0.17358   0.33380   0.00000  Uiso   1.00
O93    O     0.40796   0.16433   0.32446   0.00000  Uiso   1.00
O94    O     0.60925   0.09629   0.25576   0.00000  Uiso   1.00
O95    O     0.36898   0.08704   0.24642   0.00000  Uiso   1.00
O96    O     0.59204   0.16901   0.17554   0.00000  Uiso   1.00
O97    O     0.35177   0.15976   0.16620   0.00000  Uiso   1.00
Zn98   Zn    0.60453   0.17284   0.25623   0.00000  Uiso   1.00
Zn99   Zn    0.39547   0.16049   0.24376   0.00000  Uiso   1.00
C100   C     0.59954   0.00077   0.18488   0.00000  Uiso   1.00
O101   O     0.55111   0.01865   0.17695   0.00000  Uiso   1.00
O102   O     0.61686   0.30588   0.14229   0.00000  Uiso   1.00
H103   H     0.59049   0.31061   0.10442   0.00000  Uiso   1.00
C104   C     0.53076   0.21387   0.06743   0.00000  Uiso   1.00
C105   C     0.50226   0.23000   0.10972   0.00000  Uiso   1.00
C106   C     0.47140   0.27574   0.10418   0.00000  Uiso   1.00
C107   C     0.46985   0.30667   0.05735   0.00000  Uiso   1.00
C108   C     0.49904   0.29176   0.01585   0.00000  Uiso   1.00
C109   C     0.52964   0.24597   0.02096   0.00000  Uiso   1.00
H110   H     0.49871   0.20511   0.14413   0.00000  Uiso   1.00
H111   H     0.44779   0.28673   0.13582   0.00000  Uiso   1.00
H112   H     0.44569   0.00857   0.05300   0.00000  Uiso   1.00
H113   H     0.49680   0.31489   0.47897   0.00000  Uiso   1.00
H114   H     0.54966   0.23382   0.48702   0.00000  Uiso   1.00
C115   C     0.68127   0.26484   0.24932   0.00000  Uiso   1.00
C116   C     0.78873   0.13618   0.49688   0.00000  Uiso   1.00
C117   C     0.76717   0.13015   0.43904   0.00000  Uiso   1.00
C118   C     0.84776   0.12694   0.01824   0.00000  Uiso   1.00
C119   C     0.87642   0.09268   0.48850   0.00000  Uiso   1.00
C120   C     0.84878   0.07582   0.43394   0.00000  Uiso   1.00
C121   C     0.79578   0.09655   0.40824   0.00000  Uiso   1.00
C122   C     0.88138   0.15874   0.06212   0.00000  Uiso   1.00
C123   C     0.96218   0.10207   0.06391   0.00000  Uiso   1.00
C124   C     0.71883   0.15919   0.41491   0.00000  Uiso   1.00
C125   C     0.68927   0.31937   0.25538   0.00000  Uiso   1.00
C126   C     0.70233   0.16619   0.35486   0.00000  Uiso   1.00
C127   C     0.97680   0.01495   0.23674   0.00000  Uiso   1.00
C128   C     0.98566   0.06845   0.25071   0.00000  Uiso   1.00
C129   C     0.96277   0.16192   0.14484   0.00000  Uiso   1.00
C130   C     0.93314   0.07880   0.01270   0.00000  Uiso   1.00
C131   C     0.93771   0.14381   0.08746   0.00000  Uiso   1.00
C132   C     0.68682   0.18430   0.44936   0.00000  Uiso   1.00
C133   C     0.70278   0.18097   0.00717   0.00000  Uiso   1.00
C134   C     0.75252   0.15531   0.03095   0.00000  Uiso   1.00
H135   H     0.67098   0.08848   0.08435   0.00000  Uiso   1.00
H136   H     0.82371   0.12540   0.20871   0.00000  Uiso   1.00
H137   H     0.84295   0.20789   0.29132   0.00000  Uiso   1.00
H138   H     0.86991   0.04977   0.40998   0.00000  Uiso   1.00
H139   H     0.95476   0.05014   0.49229   0.00000  Uiso   1.00
H140   H     0.98277   0.20657   0.43161   0.00000  Uiso   1.00
H141   H     0.76404   0.15208   0.07603   0.00000  Uiso   1.00
H142   H     0.67771   0.19974   0.03354   0.00000  Uiso   1.00
H143   H     0.77715   0.08509   0.36502   0.00000  Uiso   1.00
H144   H     0.72917   0.00163   0.28352   0.00000  Uiso   1.00
N145   N     0.81160   0.15223   0.23542   0.00000  Uiso   1.00
N146   N     0.85507   0.18110   0.26457   0.00000  Uiso   1.00
O147   O     0.96435   0.24629   0.25357   0.00000  Uiso   1.00
O148   O     0.72408   0.23704   0.24423   0.00000  Uiso   1.00
O149   O     0.98157   0.17358   0.33380   0.00000  Uiso   1.00
O150   O     0.74130   0.16433   0.32446   0.00000  Uiso   1.00
O151   O     0.94258   0.09629   0.25576   0.00000  Uiso   1.00
O152   O     0.70231   0.08704   0.24642   0.00000  Uiso   1.00
O153   O     0.92537   0.16901   0.17554   0.00000  Uiso   1.00
O154   O     0.68510   0.15976   0.16620   0.00000  Uiso   1.00
Zn155  Zn    0.93786   0.17284   0.25623   0.00000  Uiso   1.00
Zn156  Zn    0.72881   0.16049   0.24376   0.00000  Uiso   1.00
C157   C     0.93287   0.00077   0.18488   0.00000  Uiso   1.00
O158   O     0.88444   0.01865   0.17695   0.00000  Uiso   1.00
O159   O     0.95019   0.30588   0.14229   0.00000  Uiso   1.00
H160   H     0.92382   0.31061   0.10442   0.00000  Uiso   1.00
C161   C     0.86410   0.21387   0.06743   0.00000  Uiso   1.00
C162   C     0.83560   0.23000   0.10972   0.00000  Uiso   1.00
C163   C     0.80473   0.27574   0.10418   0.00000  Uiso   1.00
C164   C     0.80318   0.30667   0.05735   0.00000  Uiso   1.00
C165   C     0.83237   0.29176   0.01585   0.00000  Uiso   1.00
C166   C     0.86298   0.24597   0.02096   0.00000  Uiso   1.00
H167   H     0.83205   0.20511   0.14413   0.00000  Uiso   1.00
H168   H     0.78113   0.28673   0.13582   0.00000  Uiso   1.00
H169   H     0.77903   0.00857   0.05300   0.00000  Uiso   1.00
H170   H     0.83013   0.31489   0.47897   0.00000  Uiso   1.00
H171   H     0.88299   0.23382   0.48702   0.00000  Uiso   1.00
C172   C     0.01460   0.59817   0.24932   0.00000  Uiso   1.00
C173   C     0.12206   0.46952   0.49688   0.00000  Uiso   1.00
C174   C     0.10050   0.46348   0.43904   0.00000  Uiso   1.00
C175   C     0.18109   0.46027   0.01824   0.00000  Uiso   1.00
C176   C     0.20976   0.42601   0.48850   0.00000  Uiso   1.00
C177   C     0.18211   0.40915   0.43394   0.00000  Uiso   1.00
C178   C     0.12911   0.42988   0.40824   0.00000  Uiso   1.00
C179   C     0.21471   0.49207   0.06212   0.00000  Uiso   1.00
C180   C     0.29551   0.43540   0.06391   0.00000  Uiso   1.00
C181   C     0.05216   0.49252   0.41491   0.00000  Uiso   1.00
C182   C     0.02260   0.65270   0.25538   0.00000  Uiso   1.00
C183   C     0.03567   0.49953   0.35486   0.00000  Uiso   1.00
C184   C     0.31013   0.34829   0.23674   0.00000  Uiso   1.00
C185   C     0.31900   0.40178   0.25071   0.00000  Uiso   1.00
C186   C     0.29610   0.49526   0.14484   0.00000  Uiso   1.00
C187   C     0.26648   0.41213   0.01270   0.00000  Uiso   1.00
C188   C     0.27105   0.47715   0.08746   0.00000  Uiso   1.00
C189   C     0.02015   0.51763   0.44936   0.00000  Uiso   1.00
C190   C     0.03611   0.51430   0.00717   0.00000  Uiso   1.00
C191   C     0.08586   0.48864   0.03095   0.00000  Uiso   1.00
H192   H     0.00431   0.42181   0.08435   0.00000  Uiso   1.00
H193   H     0.15705   0.45873   0.20871   0.00000  Uiso   1.00
H194   H     0.17628   0.54122   0.29132   0.00000  Uiso   1.00
H195   H     0.20324   0.38310   0.40998   0.00000  Uiso   1.00
H196   H     0.28809   0.38348   0.49229   0.00000  Uiso   1.00
H197   H     0.31611   0.53991   0.43161   0.00000  Uiso   1.00
H198   H     0.09737   0.48542   0.07603   0.00000  Uiso   1.00
H199   H     0.01104   0.53308   0.03354   0.00000  Uiso   1.00
H200   H     0.11048   0.41843   0.36502   0.00000  Uiso   1.00
H201   H     0.06250   0.33497   0.28352   0.00000  Uiso   1.00
N202   N     0.14493   0.48556   0.23542   0.00000  Uiso   1.00
N203   N     0.18840   0.51444   0.26457   0.00000  Uiso   1.00
O204   O     0.29769   0.57963   0.25357   0.00000  Uiso   1.00
O205   O     0.05742   0.57038   0.24423   0.00000  Uiso   1.00
O206   O     0.31490   0.50691   0.33380   0.00000  Uiso   1.00
O207   O     0.07463   0.49766   0.32446   0.00000  Uiso   1.00
O208   O     0.27592   0.42962   0.25576   0.00000  Uiso   1.00
O209   O     0.03565   0.42037   0.24642   0.00000  Uiso   1.00
O210   O     0.25870   0.50234   0.17554   0.00000  Uiso   1.00
O211   O     0.01843   0.49309   0.16620   0.00000  Uiso   1.00
Zn212  Zn    0.27119   0.50618   0.25623   0.00000  Uiso   1.00
Zn213  Zn    0.06214   0.49382   0.24376   0.00000  Uiso   1.00
C214   C     0.26620   0.33411   0.18488   0.00000  Uiso   1.00
O215   O     0.21778   0.35198   0.17695   0.00000  Uiso   1.00
O216   O     0.28352   0.63921   0.14229   0.00000  Uiso   1.00
H217   H     0.25715   0.64394   0.10442   0.00000  Uiso   1.00
C218   C     0.19743   0.54720   0.06743   0.00000  Uiso   1.00
C219   C     0.16893   0.56333   0.10972   0.00000  Uiso   1.00
C220   C     0.13807   0.60908   0.10418   0.00000  Uiso   1.00
C221   C     0.13652   0.64000   0.05735   0.00000  Uiso   1.00
C222   C     0.16570   0.62509   0.01585   0.00000  Uiso   1.00
C223   C     0.19631   0.57930   0.02096   0.00000  Uiso   1.00
H224   H     0.16538   0.53844   0.14413   0.00000  Uiso   1.00
H225   H     0.11446   0.62006   0.13582   0.00000  Uiso   1.00
H226   H     0.11236   0.34191   0.05300   0.00000  Uiso   1.00
H227   H     0.16347   0.64822   0.47897   0.00000  Uiso   1.00
H228   H     0.21632   0.56715   0.48702   0.00000  Uiso   1.00
C229   C     0.34793   0.59817   0.24932   0.00000  Uiso   1.00
C230   C     0.45540   0.46952   0.49688   0.00000  Uiso   1.00
C231   C     0.43384   0.46348   0.43904   0.00000  Uiso   1.00
C232   C     0.51443   0.46027   0.01824   0.00000  Uiso   1.00
C233   C     0.54309   0.42601   0.48850   0.00000  Uiso   1.00
C234   C     0.51544   0.40915   0.43394   0.00000  Uiso   1.00
C235   C     0.46244   0.42988   0.40824   0.00000  Uiso   1.00
C236   C     0.54805   0.49207   0.06212   0.00000  Uiso   1.00
C237   C     0.62884   0.43540   0.06391   0.00000  Uiso   1.00
C238   C     0.38549   0.49252   0.41491   0.00000  Uiso   1.00
C239   C     0.35594   0.65270   0.25538   0.00000  Uiso   1.00
C240   C     0.36900   0.49953   0.35486   0.00000  Uiso   1.00
C241   C     0.64346   0.34829   0.23674   0.00000  Uiso   1.00
C242   C     0.65233   0.40178   0.25071   0.00000  Uiso   1.00
C243   C     0.62944   0.49526   0.14484   0.00000  Uiso   1.00
C244   C     0.59981   0.41213   0.01270   0.00000  Uiso   1.00
C245   C     0.60438   0.47715   0.08746   0.00000  Uiso   1.00
C246   C     0.35348   0.51763   0.44936   0.00000  Uiso   1.00
C247   C     0.36944   0.51430   0.00717   0.00000  Uiso   1.00
C248   C     0.41919   0.48864   0.03095   0.00000  Uiso   1.00
H249   H     0.33764   0.42181   0.08435   0.00000  Uiso   1.00
H250   H     0.49038   0.45873   0.20871   0.00000  Uiso   1.00
H251   H     0.50961   0.54122   0.29132   0.00000  Uiso   1.00
H252   H     0.53657   0.38310   0.40998   0.00000  Uiso   1.00
H253   H     0.62142   0.38348   0.49229   0.00000  Uiso   1.00
H254   H     0.64944   0.53991   0.43161   0.00000  Uiso   1.00
H255   H     0.43071   0.48542   0.07603   0.00000  Uiso   1.00
H256   H     0.34438   0.53308   0.03354   0.00000  Uiso   1.00
H257   H     0.44382   0.41843   0.36502   0.00000  Uiso   1.00
H258   H     0.39583   0.33497   0.28352   0.00000  Uiso   1.00
N259   N     0.47827   0.48556   0.23542   0.00000  Uiso   1.00
N260   N     0.52173   0.51444   0.26457   0.00000  Uiso   1.00
O261   O     0.63102   0.57963   0.25357   0.00000  Uiso   1.00
O262   O     0.39075   0.57038   0.24423   0.00000  Uiso   1.00
O263   O     0.64823   0.50691   0.33380   0.00000  Uiso   1.00
O264   O     0.40796   0.49766   0.32446   0.00000  Uiso   1.00
O265   O     0.60925   0.42962   0.25576   0.00000  Uiso   1.00
O266   O     0.36898   0.42037   0.24642   0.00000  Uiso   1.00
O267   O     0.59204   0.50234   0.17554   0.00000  Uiso   1.00
O268   O     0.35177   0.49309   0.16620   0.00000  Uiso   1.00
Zn269  Zn    0.60453   0.50618   0.25623   0.00000  Uiso   1.00
Zn270  Zn    0.39547   0.49382   0.24376   0.00000  Uiso   1.00
C271   C     0.59954   0.33411   0.18488   0.00000  Uiso   1.00
O272   O     0.55111   0.35198   0.17695   0.00000  Uiso   1.00
O273   O     0.61686   0.63921   0.14229   0.00000  Uiso   1.00
H274   H     0.59049   0.64394   0.10442   0.00000  Uiso   1.00
C275   C     0.53076   0.54720   0.06743   0.00000  Uiso   1.00
C276   C     0.50226   0.56333   0.10972   0.00000  Uiso   1.00
C277   C     0.47140   0.60908   0.10418   0.00000  Uiso   1.00
C278   C     0.46985   0.64000   0.05735   0.00000  Uiso   1.00
C279   C     0.49904   0.62509   0.01585   0.00000  Uiso   1.00
C280   C     0.52964   0.57930   0.02096   0.00000  Uiso   1.00
H281   H     0.49871   0.53844   0.14413   0.00000  Uiso   1.00
H282   H     0.44779   0.62006   0.13582   0.00000  Uiso   1.00
H283   H     0.44569   0.34191   0.05300   0.00000  Uiso   1.00
H284   H     0.49680   0.64822   0.47897   0.00000  Uiso   1.00
H285   H     0.54966   0.56715   0.48702   0.00000  Uiso   1.00
C286   C     0.68127   0.59817   0.24932   0.00000  Uiso   1.00
C287   C     0.78873   0.46952   0.49688   0.00000  Uiso   1.00
C288   C     0.76717   0.46348   0.43904   0.00000  Uiso   1.00
C289   C     0.84776   0.46027   0.01824   0.00000  Uiso   1.00
C290   C     0.87642   0.42601   0.48850   0.00000  Uiso   1.00
C291   C     0.84878   0.40915   0.43394   0.00000  Uiso   1.00
C292   C     0.79578   0.42988   0.40824   0.00000  Uiso   1.00
C293   C     0.88138   0.49207   0.06212   0.00000  Uiso   1.00
C294   C     0.96218   0.43540   0.06391   0.00000  Uiso   1.00
C295   C     0.71883   0.49252   0.41491   0.00000  Uiso   1.00
C296   C     0.68927   0.65270   0.25538   0.00000  Uiso   1.00
C297   C     0.70233   0.49953   0.35486   0.00000  Uiso   1.00
C298   C     0.97680   0.34829   0.23674   0.00000  Uiso   1.00
C299   C     0.98566   0.40178   0.25071   0.00000  Uiso   1.00
C300   C     0.96277   0.49526   0.14484   0.00000  Uiso   1.00
C301   C     0.93314   0.41213   0.01270   0.00000  Uiso   1.00
C302   C     0.93771   0.47715   0.08746   0.00000  Uiso   1.00
C303   C     0.68682   0.51763   0.44936   0.00000  Uiso   1.00
C304   C     0.70278   0.51430   0.00717   0.00000  Uiso   1.00
C305   C     0.75252   0.48864   0.03095   0.00000  Uiso   1.00
H306   H     0.67098   0.42181   0.08435   0.00000  Uiso   1.00
H307   H     0.82371   0.45873   0.20871   0.00000  Uiso   1.00
H308   H     0.84295   0.54122   0.29132   0.00000  Uiso   1.00
H309   H     0.86991   0.38310   0.40998   0.00000  Uiso   1.00
H310   H     0.95476   0.38348   0.49229   0.00000  Uiso   1.00
H311   H     0.98277   0.53991   0.43161   0.00000  Uiso   1.00
H312   H     0.76404   0.48542   0.07603   0.00000  Uiso   1.00
H313   H     0.67771   0.53308   0.03354   0.00000  Uiso   1.00
H314   H     0.77715   0.41843   0.36502   0.00000  Uiso   1.00
H315   H     0.72917   0.33497   0.28352   0.00000  Uiso   1.00
N316   N     0.81160   0.48556   0.23542   0.00000  Uiso   1.00
N317   N     0.85507   0.51444   0.26457   0.00000  Uiso   1.00
O318   O     0.96435   0.57963   0.25357   0.00000  Uiso   1.00
O319   O     0.72408   0.57038   0.24423   0.00000  Uiso   1.00
O320   O     0.98157   0.50691   0.33380   0.00000  Uiso   1.00
O321   O     0.74130   0.49766   0.32446   0.00000  Uiso   1.00
O322   O     0.94258   0.42962   0.25576   0.00000  Uiso   1.00
O323   O     0.70231   0.42037   0.24642   0.00000  Uiso   1.00
O324   O     0.92537   0.50234   0.17554   0.00000  Uiso   1.00
O325   O     0.68510   0.49309   0.16620   0.00000  Uiso   1.00
Zn326  Zn    0.93786   0.50618   0.25623   0.00000  Uiso   1.00
Zn327  Zn    0.72881   0.49382   0.24376   0.00000  Uiso   1.00
C328   C     0.93287   0.33411   0.18488   0.00000  Uiso   1.00
O329   O     0.88444   0.35198   0.17695   0.00000  Uiso   1.00
O330   O     0.95019   0.63921   0.14229   0.00000  Uiso   1.00
H331   H     0.92382   0.64394   0.10442   0.00000  Uiso   1.00
C332   C     0.86410   0.54720   0.06743   0.00000  Uiso   1.00
C333   C     0.83560   0.56333   0.10972   0.00000  Uiso   1.00
C334   C     0.80473   0.60908   0.10418   0.00000  Uiso   1.00
C335   C     0.80318   0.64000   0.05735   0.00000  Uiso   1.00
C336   C     0.83237   0.62509   0.01585   0.00000  Uiso   1.00
C337   C     0.86298   0.57930   0.02096   0.00000  Uiso   1.00
H338   H     0.83205   0.53844   0.14413   0.00000  Uiso   1.00
H339   H     0.78113   0.62006   0.13582   0.00000  Uiso   1.00
H340   H     0.77903   0.34191   0.05300   0.00000  Uiso   1.00
H341   H     0.83013   0.64822   0.47897   0.00000  Uiso   1.00
H342   H     0.88299   0.56715   0.48702   0.00000  Uiso   1.00
C343   C     0.01460   0.93150   0.24932   0.00000  Uiso   1.00
C344   C     0.12206   0.80285   0.49688   0.00000  Uiso   1.00
C345   C     0.10050   0.79682   0.43904   0.00000  Uiso   1.00
C346   C     0.18109   0.79361   0.01824   0.00000  Uiso   1.00
C347   C     0.20976   0.75934   0.48850   0.00000  Uiso   1.00
C348   C     0.18211   0.74249   0.43394   0.00000  Uiso   1.00
C349   C     0.12911   0.76321   0.40824   0.00000  Uiso   1.00
C350   C     0.21471   0.82541   0.06212   0.00000  Uiso   1.00
C351   C     0.29551   0.76874   0.06391   0.00000  Uiso   1.00
C352   C     0.05216   0.82585   0.41491   0.00000  Uiso   1.00
C353   C     0.02260   0.98603   0.25538   0.00000  Uiso   1.00
C354   C     0.03567   0.83286   0.35486   0.00000  Uiso   1.00
C355   C     0.31013   0.68162   0.23674   0.00000  Uiso   1.00
C356   C     0.31900   0.73512   0.25071   0.00000  Uiso   1.00
C357   C     0.29610   0.82859   0.14484   0.00000  Uiso   1.00
C358   C     0.26648   0.74546   0.01270   0.00000  Uiso   1.00
C359   C     0.27105   0.81048   0.08746   0.00000  Uiso   1.00
C360   C     0.02015   0.85096   0.44936   0.00000  Uiso   1.00
C361   C     0.03611   0.84764   0.00717   0.00000  Uiso   1.00
C362   C     0.08586   0.82198   0.03095   0.00000  Uiso   1.00
H363   H     0.00431   0.75514   0.08435   0.00000  Uiso   1.00
H364   H     0.15705   0.79207   0.20871   0.00000  Uiso   1.00
H365   H     0.17628   0.87456   0.29132   0.00000  Uiso   1.00
H366   H     0.20324   0.71644   0.40998   0.00000  Uiso   1.00
H367   H     0.28809   0.71681   0.49229   0.00000  Uiso   1.00
H368   H     0.31611   0.87324   0.43161   0.00000  Uiso   1.00
H369   H     0.09737   0.81875   0.07603   0.00000  Uiso   1.00
H370   H     0.01104   0.86641   0.03354   0.00000  Uiso   1.00
H371   H     0.11048   0.75176   0.36502   0.00000  Uiso   1.00
H372   H     0.06250   0.66830   0.28352   0.00000  Uiso   1.00
N373   N     0.14493   0.81890   0.23542   0.00000  Uiso   1.00
N374   N     0.18840   0.84777   0.26457   0.00000  Uiso   1.00
O375   O     0.29769   0.91296   0.25357   0.00000  Uiso   1.00
O376   O     0.05742   0.90371   0.24423   0.00000  Uiso   1.00
O377   O     0.31490   0.84024   0.33380   0.00000  Uiso   1.00
O378   O     0.07463   0.83099   0.32446   0.00000  Uiso   1.00
O379   O     0.27592   0.76296   0.25576   0.00000  Uiso   1.00
O380   O     0.03565   0.75371   0.24642   0.00000  Uiso   1.00
O381   O     0.25870   0.83567   0.17554   0.00000  Uiso   1.00
O382   O     0.01843   0.82642   0.16620   0.00000  Uiso   1.00
Zn383  Zn    0.27119   0.83951   0.25623   0.00000  Uiso   1.00
Zn384  Zn    0.06214   0.82716   0.24376   0.00000  Uiso   1.00
C385   C     0.26620   0.66744   0.18488   0.00000  Uiso   1.00
O386   O     0.21778   0.68532   0.17695   0.00000  Uiso   1.00
O387   O     0.28352   0.97254   0.14229   0.00000  Uiso   1.00
H388   H     0.25715   0.97727   0.10442   0.00000  Uiso   1.00
C389   C     0.19743   0.88054   0.06743   0.00000  Uiso   1.00
C390   C     0.16893   0.89667   0.10972   0.00000  Uiso   1.00
C391   C     0.13807   0.94241   0.10418   0.00000  Uiso   1.00
C392   C     0.13652   0.97333   0.05735   0.00000  Uiso   1.00
C393   C     0.16570   0.95843   0.01585   0.00000  Uiso   1.00
C394   C     0.19631   0.91263   0.02096   0.00000  Uiso   1.00
H395   H     0.16538   0.87177   0.14413   0.00000  Uiso   1.00
H396   H     0.11446   0.95339   0.13582   0.00000  Uiso   1.00
H397   H     0.11236   0.67524   0.05300   0.00000  Uiso   1.00
H398   H     0.16347   0.98155   0.47897   0.00000  Uiso   1.00
H399   H     0.21632   0.90048   0.48702   0.00000  Uiso   1.00
C400   C     0.34793   0.93150   0.24932   0.00000  Uiso   1.00
C401   C     0.45540   0.80285   0.49688   0.00000  Uiso   1.00
C402   C     0.43384   0.79682   0.43904   0.00000  Uiso   1.00
C403   C     0.51443   0.79361   0.01824   0.00000  Uiso   1.00
C404   C     0.54309   0.75934   0.48850   0.00000  Uiso   1.00
C405   C     0.51544   0.74249   0.43394   0.00000  Uiso   1.00
C406   C     0.46244   0.76321   0.40824   0.00000  Uiso   1.00
C407   C     0.54805   0.82541   0.06212   0.00000  Uiso   1.00
C408   C     0.62884   0.76874   0.06391   0.00000  Uiso   1.00
C409   C     0.38549   0.82585   0.41491   0.00000  Uiso   1.00
C410   C     0.35594   0.98603   0.25538   0.00000  Uiso   1.00
C411   C     0.36900   0.83286   0.35486   0.00000  Uiso   1.00
C412   C     0.64346   0.68162   0.23674   0.00000  Uiso   1.00
C413   C     0.65233   0.73512   0.25071   0.00000  Uiso   1.00
C414   C     0.62944   0.82859   0.14484   0.00000  Uiso   1.00
C415   C     0.59981   0.74546   0.01270   0.00000  Uiso   1.00
C416   C     0.60438   0.81048   0.08746   0.00000  Uiso   1.00
C417   C     0.35348   0.85096   0.44936   0.00000  Uiso   1.00
C418   C     0.36944   0.84764   0.00717   0.00000  Uiso   1.00
C419   C     0.41919   0.82198   0.03095   0.00000  Uiso   1.00
H420   H     0.33764   0.75514   0.08435   0.00000  Uiso   1.00
H421   H     0.49038   0.79207   0.20871   0.00000  Uiso   1.00
H422   H     0.50961   0.87456   0.29132   0.00000  Uiso   1.00
H423   H     0.53657   0.71644   0.40998   0.00000  Uiso   1.00
H424   H     0.62142   0.71681   0.49229   0.00000  Uiso   1.00
H425   H     0.64944   0.87324   0.43161   0.00000  Uiso   1.00
H426   H     0.43071   0.81875   0.07603   0.00000  Uiso   1.00
H427   H     0.34438   0.86641   0.03354   0.00000  Uiso   1.00
H428   H     0.44382   0.75176   0.36502   0.00000  Uiso   1.00
H429   H     0.39583   0.66830   0.28352   0.00000  Uiso   1.00
N430   N     0.47827   0.81890   0.23542   0.00000  Uiso   1.00
N431   N     0.52173   0.84777   0.26457   0.00000  Uiso   1.00
O432   O     0.63102   0.91296   0.25357   0.00000  Uiso   1.00
O433   O     0.39075   0.90371   0.24423   0.00000  Uiso   1.00
O434   O     0.64823   0.84024   0.33380   0.00000  Uiso   1.00
O435   O     0.40796   0.83099   0.32446   0.00000  Uiso   1.00
O436   O     0.60925   0.76296   0.25576   0.00000  Uiso   1.00
O437   O     0.36898   0.75371   0.24642   0.00000  Uiso   1.00
O438   O     0.59204   0.83567   0.17554   0.00000  Uiso   1.00
O439   O     0.35177   0.82642   0.16620   0.00000  Uiso   1.00
Zn440  Zn    0.60453   0.83951   0.25623   0.00000  Uiso   1.00
Zn441  Zn    0.39547   0.82716   0.24376   0.00000  Uiso   1.00
C442   C     0.59954   0.66744   0.18488   0.00000  Uiso   1.00
O443   O     0.55111   0.68532   0.17695   0.00000  Uiso   1.00
O444   O     0.61686   0.97254   0.14229   0.00000  Uiso   1.00
H445   H     0.59049   0.97727   0.10442   0.00000  Uiso   1.00
C446   C     0.53076   0.88054   0.06743   0.00000  Uiso   1.00
C447   C     0.50226   0.89667   0.10972   0.00000  Uiso   1.00
C448   C     0.47140   0.94241   0.10418   0.00000  Uiso   1.00
C449   C     0.46985   0.97333   0.05735   0.00000  Uiso   1.00
C450   C     0.49904   0.95843   0.01585   0.00000  Uiso   1.00
C451   C     0.52964   0.91263   0.02096   0.00000  Uiso   1.00
H452   H     0.49871   0.87177   0.14413   0.00000  Uiso   1.00
H453   H     0.44779   0.95339   0.13582   0.00000  Uiso   1.00
H454   H     0.44569   0.67524   0.05300   0.00000  Uiso   1.00
H455   H     0.49680   0.98155   0.47897   0.00000  Uiso   1.00
H456   H     0.54966   0.90048   0.48702   0.00000  Uiso   1.00
C457   C     0.68127   0.93150   0.24932   0.00000  Uiso   1.00
C458   C     0.78873   0.80285   0.49688   0.00000  Uiso   1.00
C459   C     0.76717   0.79682   0.43904   0.00000  Uiso   1.00
C460   C     0.84776   0.79361   0.01824   0.00000  Uiso   1.00
C461   C     0.87642   0.75934   0.48850   0.00000  Uiso   1.00
C462   C     0.84878   0.74249   0.43394   0.00000  Uiso   1.00
C463   C     0.79578   0.76321   0.40824   0.00000  Uiso   1.00
C464   C     0.88138   0.82541   0.06212   0.00000  Uiso   1.00
C465   C     0.96218   0.76874   0.06391   0.00000  Uiso   1.00
C466   C     0.71883   0.82585   0.41491   0.00000  Uiso   1.00
C467   C     0.68927   0.98603   0.25538   0.00000  Uiso   1.00
C468   C     0.70233   0.83286   0.35486   0.00000  Uiso   1.00
C469   C     0.97680   0.68162   0.23674   0.00000  Uiso   1.00
C470   C     0.98566   0.73512   0.25071   0.00000  Uiso   1.00
C471   C     0.96277   0.82859   0.14484   0.00000  Uiso   1.00
C472   C     0.93314   0.74546   0.01270   0.00000  Uiso   1.00
C473   C     0.93771   0.81048   0.08746   0.00000  Uiso   1.00
C474   C     0.68682   0.85096   0.44936   0.00000  Uiso   1.00
C475   C     0.70278   0.84764   0.00717   0.00000  Uiso   1.00
C476   C     0.75252   0.82198   0.03095   0.00000  Uiso   1.00
H477   H     0.67098   0.75514   0.08435   0.00000  Uiso   1.00
H478   H     0.82371   0.79207   0.20871   0.00000  Uiso   1.00
H479   H     0.84295   0.87456   0.29132   0.00000  Uiso   1.00
H480   H     0.86991   0.71644   0.40998   0.00000  Uiso   1.00
H481   H     0.95476   0.71681   0.49229   0.00000  Uiso   1.00
H482   H     0.98277   0.87324   0.43161   0.00000  Uiso   1.00
H483   H     0.76404   0.81875   0.07603   0.00000  Uiso   1.00
H484   H     0.67771   0.86641   0.03354   0.00000  Uiso   1.00
H485   H     0.77715   0.75176   0.36502   0.00000  Uiso   1.00
H486   H     0.72917   0.66830   0.28352   0.00000  Uiso   1.00
N487   N     0.81160   0.81890   0.23542   0.00000  Uiso   1.00
N488   N     0.85507   0.84777   0.26457   0.00000  Uiso   1.00
O489   O     0.96435   0.91296   0.25357   0.00000  Uiso   1.00
O490   O     0.72408   0.90371   0.24423   0.00000  Uiso   1.00
O491   O     0.98157   0.84024   0.33380   0.00000  Uiso   1.00
O492   O     0.74130   0.83099   0.32446   0.00000  Uiso   1.00
O493   O     0.94258   0.76296   0.25576   0.00000  Uiso   1.00
O494   O     0.70231   0.75371   0.24642   0.00000  Uiso   1.00
O495   O     0.92537   0.83567   0.17554   0.00000  Uiso   1.00
O496   O     0.68510   0.82642   0.16620   0.00000  Uiso   1.00
Zn497  Zn    0.93786   0.83951   0.25623   0.00000  Uiso   1.00
Zn498  Zn    0.72881   0.82716   0.24376   0.00000  Uiso   1.00
C499   C     0.93287   0.66744   0.18488   0.00000  Uiso   1.00
O500   O     0.88444   0.68532   0.17695   0.00000  Uiso   1.00
O501   O     0.95019   0.97254   0.14229   0.00000  Uiso   1.00
H502   H     0.92382   0.97727   0.10442   0.00000  Uiso   1.00
C503   C     0.86410   0.88054   0.06743   0.00000  Uiso   1.00
C504   C     0.83560   0.89667   0.10972   0.00000  Uiso   1.00
C505   C     0.80473   0.94241   0.10418   0.00000  Uiso   1.00
C506   C     0.80318   0.97333   0.05735   0.00000  Uiso   1.00
C507   C     0.83237   0.95843   0.01585   0.00000  Uiso   1.00
C508   C     0.86298   0.91263   0.02096   0.00000  Uiso   1.00
H509   H     0.83205   0.87177   0.14413   0.00000  Uiso   1.00
H510   H     0.78113   0.95339   0.13582   0.00000  Uiso   1.00
H511   H     0.77903   0.67524   0.05300   0.00000  Uiso   1.00
H512   H     0.83013   0.98155   0.47897   0.00000  Uiso   1.00
H513   H     0.88299   0.90048   0.48702   0.00000  Uiso   1.00
C514   C     0.01460   0.26484   0.74932   0.00000  Uiso   1.00
C515   C     0.12206   0.13618   0.99688   0.00000  Uiso   1.00
C516   C     0.10050   0.13015   0.93904   0.00000  Uiso   1.00
C517   C     0.18109   0.12694   0.51824   0.00000  Uiso   1.00
C518   C     0.20976   0.09268   0.98850   0.00000  Uiso   1.00
C519   C     0.18211   0.07582   0.93394   0.00000  Uiso   1.00
C520   C     0.12911   0.09655   0.90824   0.00000  Uiso   1.00
C521   C     0.21471   0.15874   0.56212   0.00000  Uiso   1.00
C522   C     0.29551   0.10207   0.56391   0.00000  Uiso   1.00
C523   C     0.05216   0.15919   0.91491   0.00000  Uiso   1.00
C524   C     0.02260   0.31937   0.75538   0.00000  Uiso   1.00
C525   C     0.03567   0.16619   0.85486   0.00000  Uiso   1.00
C526   C     0.31013   0.01495   0.73674   0.00000  Uiso   1.00
C527   C     0.31900   0.06845   0.75071   0.00000  Uiso   1.00
C528   C     0.29610   0.16192   0.64484   0.00000  Uiso   1.00
C529   C     0.26648   0.07880   0.51270   0.00000  Uiso   1.00
C530   C     0.27105   0.14381   0.58746   0.00000  Uiso   1.00
C531   C     0.02015   0.18430   0.94936   0.00000  Uiso   1.00
C532   C     0.03611   0.18097   0.50717   0.00000  Uiso   1.00
C533   C     0.08586   0.15531   0.53095   0.00000  Uiso   1.00
H534   H     0.00431   0.08848   0.58435   0.00000  Uiso   1.00
H535   H     0.15705   0.12540   0.70871   0.00000  Uiso   1.00
H536   H     0.17628   0.20789   0.79132   0.00000  Uiso   1.00
H537   H     0.20324   0.04977   0.90998   0.00000  Uiso   1.00
H538   H     0.28809   0.05014   0.99229   0.00000  Uiso   1.00
H539   H     0.31611   0.20657   0.93161   0.00000  Uiso   1.00
H540   H     0.09737   0.15208   0.57603   0.00000  Uiso   1.00
H541   H     0.01104   0.19974   0.53354   0.00000  Uiso   1.00
H542   H     0.11048   0.08509   0.86502   0.00000  Uiso   1.00
H543   H     0.06250   0.00163   0.78352   0.00000  Uiso   1.00
N544   N     0.14493   0.15223   0.73542   0.00000  Uiso   1.00
N545   N     0.18840   0.18110   0.76457   0.00000  Uiso   1.00
O546   O     0.29769   0.24629   0.75357   0.00000  Uiso   1.00
O547   O     0.05742   0.23704   0.74423   0.00000  Uiso   1.00
O548   O     0.31490   0.17358   0.83380   0.00000  Uiso   1.00
O549   O     0.07463   0.16433   0.82446   0.00000  Uiso   1.00
O550   O     0.27592   0.09629   0.75576   0.00000  Uiso   1.00
O551   O     0.03565   0.08704   0.74642   0.00000  Uiso   1.00
O552   O     0.25870   0.16901   0.67554   0.00000  Uiso   1.00
O553   O     0.01843   0.15976   0.66620   0.00000  Uiso   1.00
Zn554  Zn    0.27119   0.17284   0.75623   0.00000  Uiso   1.00
Zn555  Zn    0.06214   0.16049   0.74376   0.00000  Uiso   1.00
C556   C     0.26620   0.00077   0.68488   0.00000  Uiso   1.00
O557   O     0.21778   0.01865   0.67695   0.00000  Uiso   1.00
O558   O     0.28352   0.30588   0.64229   0.00000  Uiso   1.00
H559   H     0.25715   0.31061   0.60442   0.00000  Uiso   1.00
C560   C     0.19743   0.21387   0.56743   0.00000  Uiso   1.00
C561   C     0.16893   0.23000   0.60972   0.00000  Uiso   1.00
C562   C     0.13807   0.27574   0.60418   0.00000  Uiso   1.00
C563   C     0.13652   0.30667   0.55735   0.00000  Uiso   1.00
C564   C     0.16570   0.29176   0.51585   0.00000  Uiso   1.00
C565   C     0.19631   0.24597   0.52096   0.00000  Uiso   1.00
H566   H     0.16538   0.20511   0.64413   0.00000  Uiso   1.00
H567   H     0.11446   0.28673   0.63582   0.00000  Uiso   1.00
H568   H     0.11236   0.00857   0.55300   0.00000  Uiso   1.00
H569   H     0.16347   0.31489   0.97897   0.00000  Uiso   1.00
H570   H     0.21632   0.23382   0.98702   0.00000  Uiso   1.00
C571   C     0.34793   0.26484   0.74932   0.00000  Uiso   1.00
C572   C     0.45540   0.13618   0.99688   0.00000  Uiso   1.00
C573   C     0.43384   0.13015   0.93904   0.00000  Uiso   1.00
C574   C     0.51443   0.12694   0.51824   0.00000  Uiso   1.00
C575   C     0.54309   0.09268   0.98850   0.00000  Uiso   1.00
C576   C     0.51544   0.07582   0.93394   0.00000  Uiso   1.00
C577   C     0.46244   0.09655   0.90824   0.00000  Uiso   1.00
C578   C     0.54805   0.15874   0.56212   0.00000  Uiso   1.00
C579   C     0.62884   0.10207   0.56391   0.00000  Uiso   1.00
C580   C     0.38549   0.15919   0.91491   0.00000  Uiso   1.00
C581   C     0.35594   0.31937   0.75538   0.00000  Uiso   1.00
C582   C     0.36900   0.16619   0.85486   0.00000  Uiso   1.00
C583   C     0.64346   0.01495   0.73674   0.00000  Uiso   1.00
C584   C     0.65233   0.06845   0.75071   0.00000  Uiso   1.00
C585   C     0.62944   0.16192   0.64484   0.00000  Uiso   1.00
C586   C     0.59981   0.07880   0.51270   0.00000  Uiso   1.00
C587   C     0.60438   0.14381   0.58746   0.00000  Uiso   1.00
C588   C     0.35348   0.18430   0.94936   0.00000  Uiso   1.00
C589   C     0.36944   0.18097   0.50717   0.00000  Uiso   1.00
C590   C     0.41919   0.15531   0.53095   0.00000  Uiso   1.00
H591   H     0.33764   0.08848   0.58435   0.00000  Uiso   1.00
H592   H     0.49038   0.12540   0.70871   0.00000  Uiso   1.00
H593   H     0.50961   0.20789   0.79132   0.00000  Uiso   1.00
H594   H     0.53657   0.04977   0.90998   0.00000  Uiso   1.00
H595   H     0.62142   0.05014   0.99229   0.00000  Uiso   1.00
H596   H     0.64944   0.20657   0.93161   0.00000  Uiso   1.00
H597   H     0.43071   0.15208   0.57603   0.00000  Uiso   1.00
H598   H     0.34438   0.19974   0.53354   0.00000  Uiso   1.00
H599   H     0.44382   0.08509   0.86502   0.00000  Uiso   1.00
H600   H     0.39583   0.00163   0.78352   0.00000  Uiso   1.00
N601   N     0.47827   0.15223   0.73542   0.00000  Uiso   1.00
N602   N     0.52173   0.18110   0.76457   0.00000  Uiso   1.00
O603   O     0.63102   0.24629   0.75357   0.00000  Uiso   1.00
O604   O     0.39075   0.23704   0.74423   0.00000  Uiso   1.00
O605   O     0.64823   0.17358   0.83380   0.00000  Uiso   1.00
O606   O     0.40796   0.16433   0.82446   0.00000  Uiso   1.00
O607   O     0.60925   0.09629   0.75576   0.00000  Uiso   1.00
O608   O     0.36898   0.08704   0.74642   0.00000  Uiso   1.00
O609   O     0.59204   0.16901   0.67554   0.00000  Uiso   1.00
O610   O     0.35177   0.15976   0.66620   0.00000  Uiso   1.00
Zn611  Zn    0.60453   0.17284   0.75623   0.00000  Uiso   1.00
Zn612  Zn    0.39547   0.16049   0.74376   0.00000  Uiso   1.00
C613   C     0.59954   0.00077   0.68488   0.00000  Uiso   1.00
O614   O     0.55111   0.01865   0.67695   0.00000  Uiso   1.00
O615   O     0.61686   0.30588   0.64229   0.00000  Uiso   1.00
H616   H     0.59049   0.31061   0.60442   0.00000  Uiso   1.00
C617   C     0.53076   0.21387   0.56743   0.00000  Uiso   1.00
C618   C     0.50226   0.23000   0.60972   0.00000  Uiso   1.00
C619   C     0.47140   0.27574   0.60418   0.00000  Uiso   1.00
C620   C     0.46985   0.30667   0.55735   0.00000  Uiso   1.00
C621   C     0.49904   0.29176   0.51585   0.00000  Uiso   1.00
C622   C     0.52964   0.24597   0.52096   0.00000  Uiso   1.00
H623   H     0.49871   0.20511   0.64413   0.00000  Uiso   1.00
H624   H     0.44779   0.28673   0.63582   0.00000  Uiso   1.00
H625   H     0.44569   0.00857   0.55300   0.00000  Uiso   1.00
H626   H     0.49680   0.31489   0.97897   0.00000  Uiso   1.00
H627   H     0.54966   0.23382   0.98702   0.00000  Uiso   1.00
C628   C     0.68127   0.26484   0.74932   0.00000  Uiso   1.00
C629   C     0.78873   0.13618   0.99688   0.00000  Uiso   1.00
C630   C     0.76717   0.13015   0.93904   0.00000  Uiso   1.00
C631   C     0.84776   0.12694   0.51824   0.00000  Uiso   1.00
C632   C     0.87642   0.09268   0.98850   0.00000  Uiso   1.00
C633   C     0.84878   0.07582   0.93394   0.00000  Uiso   1.00
C634   C     0.79578   0.09655   0.90824   0.00000  Uiso   1.00
C635   C     0.88138   0.15874   0.56212   0.00000  Uiso   1.00
C636   C     0.96218   0.10207   0.56391   0.00000  Uiso   1.00
C637   C     0.71883   0.15919   0.91491   0.00000  Uiso   1.00
C638   C     0.68927   0.31937   0.75538   0.00000  Uiso   1.00
C639   C     0.70233   0.16619   0.85486   0.00000  Uiso   1.00
C640   C     0.97680   0.01495   0.73674   0.00000  Uiso   1.00
C641   C     0.98566   0.06845   0.75071   0.00000  Uiso   1.00
C642   C     0.96277   0.16192   0.64484   0.00000  Uiso   1.00
C643   C     0.93314   0.07880   0.51270   0.00000  Uiso   1.00
C644   C     0.93771   0.14381   0.58746   0.00000  Uiso   1.00
C645   C     0.68682   0.18430   0.94936   0.00000  Uiso   1.00
C646   C     0.70278   0.18097   0.50717   0.00000  Uiso   1.00
C647   C     0.75252   0.15531   0.53095   0.00000  Uiso   1.00
H648   H     0.67098   0.08848   0.58435   0.00000  Uiso   1.00
H649   H     0.82371   0.12540   0.70871   0.00000  Uiso   1.00
H650   H     0.84295   0.20789   0.79132   0.00000  Uiso   1.00
H651   H     0.86991   0.04977   0.90998   0.00000  Uiso   1.00
H652   H     0.95476   0.05014   0.99229   0.00000  Uiso   1.00
H653   H     0.98277   0.20657   0.93161   0.00000  Uiso   1.00
H654   H     0.76404   0.15208   0.57603   0.00000  Uiso   1.00
H655   H     0.67771   0.19974   0.53354   0.00000  Uiso   1.00
H656   H     0.77715   0.08509   0.86502   0.00000  Uiso   1.00
H657   H     0.72917   0.00163   0.78352   0.00000  Uiso   1.00
N658   N     0.81160   0.15223   0.73542   0.00000  Uiso   1.00
N659   N     0.85507   0.18110   0.76457   0.00000  Uiso   1.00
O660   O     0.96435   0.24629   0.75357   0.00000  Uiso   1.00
O661   O     0.72408   0.23704   0.74423   0.00000  Uiso   1.00
O662   O     0.98157   0.17358   0.83380   0.00000  Uiso   1.00
O663   O     0.74130   0.16433   0.82446   0.00000  Uiso   1.00
O664   O     0.94258   0.09629   0.75576   0.00000  Uiso   1.00
O665   O     0.70231   0.08704   0.74642   0.00000  Uiso   1.00
O666   O     0.92537   0.16901   0.67554   0.00000  Uiso   1.00
O667   O     0.68510   0.15976   0.66620   0.00000  Uiso   1.00
Zn668  Zn    0.93786   0.17284   0.75623   0.00000  Uiso   1.00
Zn669  Zn    0.72881   0.16049   0.74376   0.00000  Uiso   1.00
C670   C     0.93287   0.00077   0.68488   0.00000  Uiso   1.00
O671   O     0.88444   0.01865   0.67695   0.00000  Uiso   1.00
O672   O     0.95019   0.30588   0.64229   0.00000  Uiso   1.00
H673   H     0.92382   0.31061   0.60442   0.00000  Uiso   1.00
C674   C     0.86410   0.21387   0.56743   0.00000  Uiso   1.00
C675   C     0.83560   0.23000   0.60972   0.00000  Uiso   1.00
C676   C     0.80473   0.27574   0.60418   0.00000  Uiso   1.00
C677   C     0.80318   0.30667   0.55735   0.00000  Uiso   1.00
C678   C     0.83237   0.29176   0.51585   0.00000  Uiso   1.00
C679   C     0.86298   0.24597   0.52096   0.00000  Uiso   1.00
H680   H     0.83205   0.20511   0.64413   0.00000  Uiso   1.00
H681   H     0.78113   0.28673   0.63582   0.00000  Uiso   1.00
H682   H     0.77903   0.00857   0.55300   0.00000  Uiso   1.00
H683   H     0.83013   0.31489   0.97897   0.00000  Uiso   1.00
H684   H     0.88299   0.23382   0.98702   0.00000  Uiso   1.00
C685   C     0.01460   0.59817   0.74932   0.00000  Uiso   1.00
C686   C     0.12206   0.46952   0.99688   0.00000  Uiso   1.00
C687   C     0.10050   0.46348   0.93904   0.00000  Uiso   1.00
C688   C     0.18109   0.46027   0.51824   0.00000  Uiso   1.00
C689   C     0.20976   0.42601   0.98850   0.00000  Uiso   1.00
C690   C     0.18211   0.40915   0.93394   0.00000  Uiso   1.00
C691   C     0.12911   0.42988   0.90824   0.00000  Uiso   1.00
C692   C     0.21471   0.49207   0.56212   0.00000  Uiso   1.00
C693   C     0.29551   0.43540   0.56391   0.00000  Uiso   1.00
C694   C     0.05216   0.49252   0.91491   0.00000  Uiso   1.00
C695   C     0.02260   0.65270   0.75538   0.00000  Uiso   1.00
C696   C     0.03567   0.49953   0.85486   0.00000  Uiso   1.00
C697   C     0.31013   0.34829   0.73674   0.00000  Uiso   1.00
C698   C     0.31900   0.40178   0.75071   0.00000  Uiso   1.00
C699   C     0.29610   0.49526   0.64484   0.00000  Uiso   1.00
C700   C     0.26648   0.41213   0.51270   0.00000  Uiso   1.00
C701   C     0.27105   0.47715   0.58746   0.00000  Uiso   1.00
C702   C     0.02015   0.51763   0.94936   0.00000  Uiso   1.00
C703   C     0.03611   0.51430   0.50717   0.00000  Uiso   1.00
C704   C     0.08586   0.48864   0.53095   0.00000  Uiso   1.00
H705   H     0.00431   0.42181   0.58435   0.00000  Uiso   1.00
H706   H     0.15705   0.45873   0.70871   0.00000  Uiso   1.00
H707   H     0.17628   0.54122   0.79132   0.00000  Uiso   1.00
H708   H     0.20324   0.38310   0.90998   0.00000  Uiso   1.00
H709   H     0.28809   0.38348   0.99229   0.00000  Uiso   1.00
H710   H     0.31611   0.53991   0.93161   0.00000  Uiso   1.00
H711   H     0.09737   0.48542   0.57603   0.00000  Uiso   1.00
H712   H     0.01104   0.53308   0.53354   0.00000  Uiso   1.00
H713   H     0.11048   0.41843   0.86502   0.00000  Uiso   1.00
H714   H     0.06250   0.33497   0.78352   0.00000  Uiso   1.00
N715   N     0.14493   0.48556   0.73542   0.00000  Uiso   1.00
N716   N     0.18840   0.51444   0.76457   0.00000  Uiso   1.00
O717   O     0.29769   0.57963   0.75357   0.00000  Uiso   1.00
O718   O     0.05742   0.57038   0.74423   0.00000  Uiso   1.00
O719   O     0.31490   0.50691   0.83380   0.00000  Uiso   1.00
O720   O     0.07463   0.49766   0.82446   0.00000  Uiso   1.00
O721   O     0.27592   0.42962   0.75576   0.00000  Uiso   1.00
O722   O     0.03565   0.42037   0.74642   0.00000  Uiso   1.00
O723   O     0.25870   0.50234   0.67554   0.00000  Uiso   1.00
O724   O     0.01843   0.49309   0.66620   0.00000  Uiso   1.00
Zn725  Zn    0.27119   0.50618   0.75623   0.00000  Uiso   1.00
Zn726  Zn    0.06214   0.49382   0.74376   0.00000  Uiso   1.00
C727   C     0.26620   0.33411   0.68488   0.00000  Uiso   1.00
O728   O     0.21778   0.35198   0.67695   0.00000  Uiso   1.00
O729   O     0.28352   0.63921   0.64229   0.00000  Uiso   1.00
H730   H     0.25715   0.64394   0.60442   0.00000  Uiso   1.00
C731   C     0.19743   0.54720   0.56743   0.00000  Uiso   1.00
C732   C     0.16893   0.56333   0.60972   0.00000  Uiso   1.00
C733   C     0.13807   0.60908   0.60418   0.00000  Uiso   1.00
C734   C     0.13652   0.64000   0.55735   0.00000  Uiso   1.00
C735   C     0.16570   0.62509   0.51585   0.00000  Uiso   1.00
C736   C     0.19631   0.57930   0.52096   0.00000  Uiso   1.00
H737   H     0.16538   0.53844   0.64413   0.00000  Uiso   1.00
H738   H     0.11446   0.62006   0.63582   0.00000  Uiso   1.00
H739   H     0.11236   0.34191   0.55300   0.00000  Uiso   1.00
H740   H     0.16347   0.64822   0.97897   0.00000  Uiso   1.00
H741   H     0.21632   0.56715   0.98702   0.00000  Uiso   1.00
C742   C     0.34793   0.59817   0.74932   0.00000  Uiso   1.00
C743   C     0.45540   0.46952   0.99688   0.00000  Uiso   1.00
C744   C     0.43384   0.46348   0.93904   0.00000  Uiso   1.00
C745   C     0.51443   0.46027   0.51824   0.00000  Uiso   1.00
C746   C     0.54309   0.42601   0.98850   0.00000  Uiso   1.00
C747   C     0.51544   0.40915   0.93394   0.00000  Uiso   1.00
C748   C     0.46244   0.42988   0.90824   0.00000  Uiso   1.00
C749   C     0.54805   0.49207   0.56212   0.00000  Uiso   1.00
C750   C     0.62884   0.43540   0.56391   0.00000  Uiso   1.00
C751   C     0.38549   0.49252   0.91491   0.00000  Uiso   1.00
C752   C     0.35594   0.65270   0.75538   0.00000  Uiso   1.00
C753   C     0.36900   0.49953   0.85486   0.00000  Uiso   1.00
C754   C     0.64346   0.34829   0.73674   0.00000  Uiso   1.00
C755   C     0.65233   0.40178   0.75071   0.00000  Uiso   1.00
C756   C     0.62944   0.49526   0.64484   0.00000  Uiso   1.00
C757   C     0.59981   0.41213   0.51270   0.00000  Uiso   1.00
C758   C     0.60438   0.47715   0.58746   0.00000  Uiso   1.00
C759   C     0.35348   0.51763   0.94936   0.00000  Uiso   1.00
C760   C     0.36944   0.51430   0.50717   0.00000  Uiso   1.00
C761   C     0.41919   0.48864   0.53095   0.00000  Uiso   1.00
H762   H     0.33764   0.42181   0.58435   0.00000  Uiso   1.00
H763   H     0.49038   0.45873   0.70871   0.00000  Uiso   1.00
H764   H     0.50961   0.54122   0.79132   0.00000  Uiso   1.00
H765   H     0.53657   0.38310   0.90998   0.00000  Uiso   1.00
H766   H     0.62142   0.38348   0.99229   0.00000  Uiso   1.00
H767   H     0.64944   0.53991   0.93161   0.00000  Uiso   1.00
H768   H     0.43071   0.48542   0.57603   0.00000  Uiso   1.00
H769   H     0.34438   0.53308   0.53354   0.00000  Uiso   1.00
H770   H     0.44382   0.41843   0.86502   0.00000  Uiso   1.00
H771   H     0.39583   0.33497   0.78352   0.00000  Uiso   1.00
N772   N     0.47827   0.48556   0.73542   0.00000  Uiso   1.00
N773   N     0.52173   0.51444   0.76457   0.00000  Uiso   1.00
O774   O     0.63102   0.57963   0.75357   0.00000  Uiso   1.00
O775   O     0.39075   0.57038   0.74423   0.00000  Uiso   1.00
O776   O     0.64823   0.50691   0.83380   0.00000  Uiso   1.00
O777   O     0.40796   0.49766   0.82446   0.00000  Uiso   1.00
O778   O     0.60925   0.42962   0.75576   0.00000  Uiso   1.00
O779   O     0.36898   0.42037   0.74642   0.00000  Uiso   1.00
O780   O     0.59204   0.50234   0.67554   0.00000  Uiso   1.00
O781   O     0.35177   0.49309   0.66620   0.00000  Uiso   1.00
Zn782  Zn    0.60453   0.50618   0.75623   0.00000  Uiso   1.00
Zn783  Zn    0.39547   0.49382   0.74376   0.00000  Uiso   1.00
C784   C     0.59954   0.33411   0.68488   0.00000  Uiso   1.00
O785   O     0.55111   0.35198   0.67695   0.00000  Uiso   1.00
O786   O     0.61686   0.63921   0.64229   0.00000  Uiso   1.00
H787   H     0.59049   0.64394   0.60442   0.00000  Uiso   1.00
C788   C     0.53076   0.54720   0.56743   0.00000  Uiso   1.00
C789   C     0.50226   0.56333   0.60972   0.00000  Uiso   1.00
C790   C     0.47140   0.60908   0.60418   0.00000  Uiso   1.00
C791   C     0.46985   0.64000   0.55735   0.00000  Uiso   1.00
C792   C     0.49904   0.62509   0.51585   0.00000  Uiso   1.00
C793   C     0.52964   0.57930   0.52096   0.00000  Uiso   1.00
H794   H     0.49871   0.53844   0.64413   0.00000  Uiso   1.00
H795   H     0.44779   0.62006   0.63582   0.00000  Uiso   1.00
H796   H     0.44569   0.34191   0.55300   0.00000  Uiso   1.00
H797   H     0.49680   0.64822   0.97897   0.00000  Uiso   1.00
H798   H     0.54966   0.56715   0.98702   0.00000  Uiso   1.00
C799   C     0.68127   0.59817   0.74932   0.00000  Uiso   1.00
C800   C     0.78873   0.46952   0.99688   0.00000  Uiso   1.00
C801   C     0.76717   0.46348   0.93904   0.00000  Uiso   1.00
C802   C     0.84776   0.46027   0.51824   0.00000  Uiso   1.00
C803   C     0.87642   0.42601   0.98850   0.00000  Uiso   1.00
C804   C     0.84878   0.40915   0.93394   0.00000  Uiso   1.00
C805   C     0.79578   0.42988   0.90824   0.00000  Uiso   1.00
C806   C     0.88138   0.49207   0.56212   0.00000  Uiso   1.00
C807   C     0.96218   0.43540   0.56391   0.00000  Uiso   1.00
C808   C     0.71883   0.49252   0.91491   0.00000  Uiso   1.00
C809   C     0.68927   0.65270   0.75538   0.00000  Uiso   1.00
C810   C     0.70233   0.49953   0.85486   0.00000  Uiso   1.00
C811   C     0.97680   0.34829   0.73674   0.00000  Uiso   1.00
C812   C     0.98566   0.40178   0.75071   0.00000  Uiso   1.00
C813   C     0.96277   0.49526   0.64484   0.00000  Uiso   1.00
C814   C     0.93314   0.41213   0.51270   0.00000  Uiso   1.00
C815   C     0.93771   0.47715   0.58746   0.00000  Uiso   1.00
C816   C     0.68682   0.51763   0.94936   0.00000  Uiso   1.00
C817   C     0.70278   0.51430   0.50717   0.00000  Uiso   1.00
C818   C     0.75252   0.48864   0.53095   0.00000  Uiso   1.00
H819   H     0.67098   0.42181   0.58435   0.00000  Uiso   1.00
H820   H     0.82371   0.45873   0.70871   0.00000  Uiso   1.00
H821   H     0.84295   0.54122   0.79132   0.00000  Uiso   1.00
H822   H     0.86991   0.38310   0.90998   0.00000  Uiso   1.00
H823   H     0.95476   0.38348   0.99229   0.00000  Uiso   1.00
H824   H     0.98277   0.53991   0.93161   0.00000  Uiso   1.00
H825   H     0.76404   0.48542   0.57603   0.00000  Uiso   1.00
H826   H     0.67771   0.53308   0.53354   0.00000  Uiso   1.00
H827   H     0.77715   0.41843   0.86502   0.00000  Uiso   1.00
H828   H     0.72917   0.33497   0.78352   0.00000  Uiso   1.00
N829   N     0.81160   0.48556   0.73542   0.00000  Uiso   1.00
N830   N     0.85507   0.51444   0.76457   0.00000  Uiso   1.00
O831   O     0.96435   0.57963   0.75357   0.00000  Uiso   1.00
O832   O     0.72408   0.57038   0.74423   0.00000  Uiso   1.00
O833   O     0.98157   0.50691   0.83380   0.00000  Uiso   1.00
O834   O     0.74130   0.49766   0.82446   0.00000  Uiso   1.00
O835   O     0.94258   0.42962   0.75576   0.00000  Uiso   1.00
O836   O     0.70231   0.42037   0.74642   0.00000  Uiso   1.00
O837   O     0.92537   0.50234   0.67554   0.00000  Uiso   1.00
O838   O     0.68510   0.49309   0.66620   0.00000  Uiso   1.00
Zn839  Zn    0.93786   0.50618   0.75623   0.00000  Uiso   1.00
Zn840  Zn    0.72881   0.49382   0.74376   0.00000  Uiso   1.00
C841   C     0.93287   0.33411   0.68488   0.00000  Uiso   1.00
O842   O     0.88444   0.35198   0.67695   0.00000  Uiso   1.00
O843   O     0.95019   0.63921   0.64229   0.00000  Uiso   1.00
H844   H     0.92382   0.64394   0.60442   0.00000  Uiso   1.00
C845   C     0.86410   0.54720   0.56743   0.00000  Uiso   1.00
C846   C     0.83560   0.56333   0.60972   0.00000  Uiso   1.00
C847   C     0.80473   0.60908   0.60418   0.00000  Uiso   1.00
C848   C     0.80318   0.64000   0.55735   0.00000  Uiso   1.00
C849   C     0.83237   0.62509   0.51585   0.00000  Uiso   1.00
C850   C     0.86298   0.57930   0.52096   0.00000  Uiso   1.00
H851   H     0.83205   0.53844   0.64413   0.00000  Uiso   1.00
H852   H     0.78113   0.62006   0.63582   0.00000  Uiso   1.00
H853   H     0.77903   0.34191   0.55300   0.00000  Uiso   1.00
H854   H     0.83013   0.64822   0.97897   0.00000  Uiso   1.00
H855   H     0.88299   0.56715   0.98702   0.00000  Uiso   1.00
C856   C     0.01460   0.93150   0.74932   0.00000  Uiso   1.00
C857   C     0.12206   0.80285   0.99688   0.00000  Uiso   1.00
C858   C     0.10050   0.79682   0.93904   0.00000  Uiso   1.00
C859   C     0.18109   0.79361   0.51824   0.00000  Uiso   1.00
C860   C     0.20976   0.75934   0.98850   0.00000  Uiso   1.00
C861   C     0.18211   0.74249   0.93394   0.00000  Uiso   1.00
C862   C     0.12911   0.76321   0.90824   0.00000  Uiso   1.00
C863   C     0.21471   0.82541   0.56212   0.00000  Uiso   1.00
C864   C     0.29551   0.76874   0.56391   0.00000  Uiso   1.00
C865   C     0.05216   0.82585   0.91491   0.00000  Uiso   1.00
C866   C     0.02260   0.98603   0.75538   0.00000  Uiso   1.00
C867   C     0.03567   0.83286   0.85486   0.00000  Uiso   1.00
C868   C     0.31013   0.68162   0.73674   0.00000  Uiso   1.00
C869   C     0.31900   0.73512   0.75071   0.00000  Uiso   1.00
C870   C     0.29610   0.82859   0.64484   0.00000  Uiso   1.00
C871   C     0.26648   0.74546   0.51270   0.00000  Uiso   1.00
C872   C     0.27105   0.81048   0.58746   0.00000  Uiso   1.00
C873   C     0.02015   0.85096   0.94936   0.00000  Uiso   1.00
C874   C     0.03611   0.84764   0.50717   0.00000  Uiso   1.00
C875   C     0.08586   0.82198   0.53095   0.00000  Uiso   1.00
H876   H     0.00431   0.75514   0.58435   0.00000  Uiso   1.00
H877   H     0.15705   0.79207   0.70871   0.00000  Uiso   1.00
H878   H     0.17628   0.87456   0.79132   0.00000  Uiso   1.00
H879   H     0.20324   0.71644   0.90998   0.00000  Uiso   1.00
H880   H     0.28809   0.71681   0.99229   0.00000  Uiso   1.00
H881   H     0.31611   0.87324   0.93161   0.00000  Uiso   1.00
H882   H     0.09737   0.81875   0.57603   0.00000  Uiso   1.00
H883   H     0.01104   0.86641   0.53354   0.00000  Uiso   1.00
H884   H     0.11048   0.75176   0.86502   0.00000  Uiso   1.00
H885   H     0.06250   0.66830   0.78352   0.00000  Uiso   1.00
N886   N     0.14493   0.81890   0.73542   0.00000  Uiso   1.00
N887   N     0.18840   0.84777   0.76457   0.00000  Uiso   1.00
O888   O     0.29769   0.91296   0.75357   0.00000  Uiso   1.00
O889   O     0.05742   0.90371   0.74423   0.00000  Uiso   1.00
O890   O     0.31490   0.84024   0.83380   0.00000  Uiso   1.00
O891   O     0.07463   0.83099   0.82446   0.00000  Uiso   1.00
O892   O     0.27592   0.76296   0.75576   0.00000  Uiso   1.00
O893   O     0.03565   0.75371   0.74642   0.00000  Uiso   1.00
O894   O     0.25870   0.83567   0.67554   0.00000  Uiso   1.00
O895   O     0.01843   0.82642   0.66620   0.00000  Uiso   1.00
Zn896  Zn    0.27119   0.83951   0.75623   0.00000  Uiso   1.00
Zn897  Zn    0.06214   0.82716   0.74376   0.00000  Uiso   1.00
C898   C     0.26620   0.66744   0.68488   0.00000  Uiso   1.00
O899   O     0.21778   0.68532   0.67695   0.00000  Uiso   1.00
O900   O     0.28352   0.97254   0.64229   0.00000  Uiso   1.00
H901   H     0.25715   0.97727   0.60442   0.00000  Uiso   1.00
C902   C     0.19743   0.88054   0.56743   0.00000  Uiso   1.00
C903   C     0.16893   0.89667   0.60972   0.00000  Uiso   1.00
C904   C     0.13807   0.94241   0.60418   0.00000  Uiso   1.00
C905   C     0.13652   0.97333   0.55735   0.00000  Uiso   1.00
C906   C     0.16570   0.95843   0.51585   0.00000  Uiso   1.00
C907   C     0.19631   0.91263   0.52096   0.00000  Uiso   1.00
H908   H     0.16538   0.87177   0.64413   0.00000  Uiso   1.00
H909   H     0.11446   0.95339   0.63582   0.00000  Uiso   1.00
H910   H     0.11236   0.67524   0.55300   0.00000  Uiso   1.00
H911   H     0.16347   0.98155   0.97897   0.00000  Uiso   1.00
H912   H     0.21632   0.90048   0.98702   0.00000  Uiso   1.00
C913   C     0.34793   0.93150   0.74932   0.00000  Uiso   1.00
C914   C     0.45540   0.80285   0.99688   0.00000  Uiso   1.00
C915   C     0.43384   0.79682   0.93904   0.00000  Uiso   1.00
C916   C     0.51443   0.79361   0.51824   0.00000  Uiso   1.00
C917   C     0.54309   0.75934   0.98850   0.00000  Uiso   1.00
C918   C     0.51544   0.74249   0.93394   0.00000  Uiso   1.00
C919   C     0.46244   0.76321   0.90824   0.00000  Uiso   1.00
C920   C     0.54805   0.82541   0.56212   0.00000  Uiso   1.00
C921   C     0.62884   0.76874   0.56391   0.00000  Uiso   1.00
C922   C     0.38549   0.82585   0.91491   0.00000  Uiso   1.00
C923   C     0.35594   0.98603   0.75538   0.00000  Uiso   1.00
C924   C     0.36900   0.83286   0.85486   0.00000  Uiso   1.00
C925   C     0.64346   0.68162   0.73674   0.00000  Uiso   1.00
C926   C     0.65233   0.73512   0.75071   0.00000  Uiso   1.00
C927   C     0.62944   0.82859   0.64484   0.00000  Uiso   1.00
C928   C     0.59981   0.74546   0.51270   0.00000  Uiso   1.00
C929   C     0.60438   0.81048   0.58746   0.00000  Uiso   1.00
C930   C     0.35348   0.85096   0.94936   0.00000  Uiso   1.00
C931   C     0.36944   0.84764   0.50717   0.00000  Uiso   1.00
C932   C     0.41919   0.82198   0.53095   0.00000  Uiso   1.00
H933   H     0.33764   0.75514   0.58435   0.00000  Uiso   1.00
H934   H     0.49038   0.79207   0.70871   0.00000  Uiso   1.00
H935   H     0.50961   0.87456   0.79132   0.00000  Uiso   1.00
H936   H     0.53657   0.71644   0.90998   0.00000  Uiso   1.00
H937   H     0.62142   0.71681   0.99229   0.00000  Uiso   1.00
H938   H     0.64944   0.87324   0.93161   0.00000  Uiso   1.00
H939   H     0.43071   0.81875   0.57603   0.00000  Uiso   1.00
H940   H     0.34438   0.86641   0.53354   0.00000  Uiso   1.00
H941   H     0.44382   0.75176   0.86502   0.00000  Uiso   1.00
H942   H     0.39583   0.66830   0.78352   0.00000  Uiso   1.00
N943   N     0.47827   0.81890   0.73542   0.00000  Uiso   1.00
N944   N     0.52173   0.84777   0.76457   0.00000  Uiso   1.00
O945   O     0.63102   0.91296   0.75357   0.00000  Uiso   1.00
O946   O     0.39075   0.90371   0.74423   0.00000  Uiso   1.00
O947   O     0.64823   0.84024   0.83380   0.00000  Uiso   1.00
O948   O     0.40796   0.83099   0.82446   0.00000  Uiso   1.00
O949   O     0.60925   0.76296   0.75576   0.00000  Uiso   1.00
O950   O     0.36898   0.75371   0.74642   0.00000  Uiso   1.00
O951   O     0.59204   0.83567   0.67554   0.00000  Uiso   1.00
O952   O     0.35177   0.82642   0.66620   0.00000  Uiso   1.00
Zn953  Zn    0.60453   0.83951   0.75623   0.00000  Uiso   1.00
Zn954  Zn    0.39547   0.82716   0.74376   0.00000  Uiso   1.00
C955   C     0.59954   0.66744   0.68488   0.00000  Uiso   1.00
O956   O     0.55111   0.68532   0.67695   0.00000  Uiso   1.00
O957   O     0.61686   0.97254   0.64229   0.00000  Uiso   1.00
H958   H     0.59049   0.97727   0.60442   0.00000  Uiso   1.00
C959   C     0.53076   0.88054   0.56743   0.00000  Uiso   1.00
C960   C     0.50226   0.89667   0.60972   0.00000  Uiso   1.00
C961   C     0.47140   0.94241   0.60418   0.00000  Uiso   1.00
C962   C     0.46985   0.97333   0.55735   0.00000  Uiso   1.00
C963   C     0.49904   0.95843   0.51585   0.00000  Uiso   1.00
C964   C     0.52964   0.91263   0.52096   0.00000  Uiso   1.00
H965   H     0.49871   0.87177   0.64413   0.00000  Uiso   1.00
H966   H     0.44779   0.95339   0.63582   0.00000  Uiso   1.00
H967   H     0.44569   0.67524   0.55300   0.00000  Uiso   1.00
H968   H     0.49680   0.98155   0.97897   0.00000  Uiso   1.00
H969   H     0.54966   0.90048   0.98702   0.00000  Uiso   1.00
C970   C     0.68127   0.93150   0.74932   0.00000  Uiso   1.00
C971   C     0.78873   0.80285   0.99688   0.00000  Uiso   1.00
C972   C     0.76717   0.79682   0.93904   0.00000  Uiso   1.00
C973   C     0.84776   0.79361   0.51824   0.00000  Uiso   1.00
C974   C     0.87642   0.75934   0.98850   0.00000  Uiso   1.00
C975   C     0.84878   0.74249   0.93394   0.00000  Uiso   1.00
C976   C     0.79578   0.76321   0.90824   0.00000  Uiso   1.00
C977   C     0.88138   0.82541   0.56212   0.00000  Uiso   1.00
C978   C     0.96218   0.76874   0.56391   0.00000  Uiso   1.00
C979   C     0.71883   0.82585   0.91491   0.00000  Uiso   1.00
C980   C     0.68927   0.98603   0.75538   0.00000  Uiso   1.00
C981   C     0.70233   0.83286   0.85486   0.00000  Uiso   1.00
C982   C     0.97680   0.68162   0.73674   0.00000  Uiso   1.00
C983   C     0.98566   0.73512   0.75071   0.00000  Uiso   1.00
C984   C     0.96277   0.82859   0.64484   0.00000  Uiso   1.00
C985   C     0.93314   0.74546   0.51270   0.00000  Uiso   1.00
C986   C     0.93771   0.81048   0.58746   0.00000  Uiso   1.00
C987   C     0.68682   0.85096   0.94936   0.00000  Uiso   1.00
C988   C     0.70278   0.84764   0.50717   0.00000  Uiso   1.00
C989   C     0.75252   0.82198   0.53095   0.00000  Uiso   1.00
H990   H     0.67098   0.75514   0.58435   0.00000  Uiso   1.00
H991   H     0.82371   0.79207   0.70871   0.00000  Uiso   1.00
H992   H     0.84295   0.87456   0.79132   0.00000  Uiso   1.00
H993   H     0.86991   0.71644   0.90998   0.00000  Uiso   1.00
H994   H     0.95476   0.71681   0.99229   0.00000  Uiso   1.00
H995   H     0.98277   0.87324   0.93161   0.00000  Uiso   1.00
H996   H     0.76404   0.81875   0.57603   0.00000  Uiso   1.00
H997   H     0.67771   0.86641   0.53354   0.00000  Uiso   1.00
H998   H     0.77715   0.75176   0.86502   0.00000  Uiso   1.00
H999   H     0.72917   0.66830   0.78352   0.00000  Uiso   1.00
N1000  N     0.81160   0.81890   0.73542   0.00000  Uiso   1.00
N1001  N     0.85507   0.84777   0.76457   0.00000  Uiso   1.00
O1002  O     0.96435   0.91296   0.75357   0.00000  Uiso   1.00
O1003  O     0.72408   0.90371   0.74423   0.00000  Uiso   1.00
O1004  O     0.98157   0.84024   0.83380   0.00000  Uiso   1.00
O1005  O     0.74130   0.83099   0.82446   0.00000  Uiso   1.00
O1006  O     0.94258   0.76296   0.75576   0.00000  Uiso   1.00
O1007  O     0.70231   0.75371   0.74642   0.00000  Uiso   1.00
O1008  O     0.92537   0.83567   0.67554   0.00000  Uiso   1.00
O1009  O     0.68510   0.82642   0.66620   0.00000  Uiso   1.00
Zn1010 Zn    0.93786   0.83951   0.75623   0.00000  Uiso   1.00
Zn1011 Zn    0.72881   0.82716   0.74376   0.00000  Uiso   1.00
C1012  C     0.93287   0.66744   0.68488   0.00000  Uiso   1.00
O1013  O     0.88444   0.68532   0.67695   0.00000  Uiso   1.00
O1014  O     0.95019   0.97254   0.64229   0.00000  Uiso   1.00
H1015  H     0.92382   0.97727   0.60442   0.00000  Uiso   1.00
C1016  C     0.86410   0.88054   0.56743   0.00000  Uiso   1.00
C1017  C     0.83560   0.89667   0.60972   0.00000  Uiso   1.00
C1018  C     0.80473   0.94241   0.60418   0.00000  Uiso   1.00
C1019  C     0.80318   0.97333   0.55735   0.00000  Uiso   1.00
C1020  C     0.83237   0.95843   0.51585   0.00000  Uiso   1.00
C1021  C     0.86298   0.91263   0.52096   0.00000  Uiso   1.00
H1022  H     0.83205   0.87177   0.64413   0.00000  Uiso   1.00
H1023  H     0.78113   0.95339   0.63582   0.00000  Uiso   1.00
H1024  H     0.77903   0.67524   0.55300   0.00000  Uiso   1.00
H1025  H     0.83013   0.98155   0.97897   0.00000  Uiso   1.00
H1026  H     0.88299   0.90048   0.98702   0.00000  Uiso   1.00
loop_
_geom_bond_atom_site_label_1
_geom_bond_atom_site_label_2
_geom_bond_distance
_geom_bond_site_symmetry_2
_ccdc_geom_bond_type
C1     O34     1.284   .     A
C1     C11     1.402   .     S
C1     O147    1.276   1_455 S
C2     C3      1.396   .     A
C2     C517    1.404   .     S
C2     C533    1.407   .     S
C3     C10     1.412   .     A
C3     C7      1.415   .     A
C4     C8      1.407   .     A
C4     C515    1.404   1_554 S
C4     C518    1.411   1_554 S
C5     C6      1.401   .     A
C5     C517    1.411   .     S
C5     C529    1.400   .     S
C6     H24     1.084   .     S
C6     C7      1.400   .     A
C7     H29     1.081   .     S
C8     C17     1.407   .     A
C8     C47     1.498   .     S
C9     C17     1.407   .     A
C9     C16     1.397   .     A
C9     H78     1.083   .     S
C10    C12     1.449   .     S
C10    C18     1.407   .     A
C11    C298    1.336   1_455 S
C11    H201    1.090   .     S
C12    O36     1.297   .     A
C12    O149    1.287   1_455 S
C13    C14     1.401   .     S
C13    C43     1.478   .     S
C13    C410    1.336   1_545 S
C14    O37     1.289   .     A
C14    O95     1.271   .     S
C15    O39     1.287   .     A
C15    C17     1.456   .     S
C15    O97     1.302   .     S
C16    C518    1.400   1_554 S
C16    H538    1.083   1_554 S
C18    C532    1.385   .     S
C18    H140    1.084   1_455 S
C19    C20     1.387   .     A
C19    H28     1.081   .     S
C19    C531    1.385   1_554 S
C20    H27     1.080   .     S
C20    C515    1.407   1_554 S
H21    C123    1.083   1_455 S
H22    N31     1.029   .     S
H23    N32     1.029   .     S
H25    C529    1.083   .     S
H26    C75     1.084   .     S
H30    C353    1.090   1_545 S
N31    Zn42    2.016   .     S
N31    N32     1.301   .     D
N32    Zn41    2.016   .     S
O33    Zn41    1.961   .     S
O33    C58     1.276   .     S
O34    Zn42    1.969   .     S
O35    Zn41    1.948   .     S
O35    C69     1.287   .     S
O36    Zn42    1.927   .     S
O37    Zn41    1.969   .     S
O38    Zn42    1.961   .     S
O38    C128    1.271   1_455 S
O39    Zn41    1.927   .     S
O40    Zn42    1.948   .     S
O40    C129    1.302   1_455 S
C43    O44     1.223   .     D
C43    O387    1.396   1_545 S
O45    H46     1.008   .     S
O45    C214    1.396   .     S
C47    C52     1.408   .     A
C47    C48     1.410   .     A
C48    C49     1.399   .     A
C48    H53     1.078   .     S
C49    H54     1.083   .     S
C49    C50     1.397   .     A
C50    C51     1.396   .     A
C50    H226    1.083   .     S
C51    C52     1.397   .     A
C51    H569    1.079   1_554 S
C52    H570    1.084   1_554 S
H55    C392    1.083   1_545 S
H56    C564    1.079   .     S
H57    C565    1.084   .     S
C58    O91     1.284   .     A
C58    C68     1.402   .     S
C59    C60     1.396   .     A
C59    C574    1.404   .     S
C59    C590    1.407   .     S
C60    C67     1.412   .     A
C60    C64     1.415   .     A
C61    C65     1.407   .     A
C61    C572    1.404   1_554 S
C61    C575    1.411   1_554 S
C62    C63     1.401   .     A
C62    C574    1.411   .     S
C62    C586    1.400   .     S
C63    H81     1.084   .     S
C63    C64     1.400   .     A
C64    H86     1.081   .     S
C65    C74     1.407   .     A
C65    C104    1.498   .     S
C66    C74     1.407   .     A
C66    C73     1.397   .     A
C66    H135    1.083   .     S
C67    C69     1.449   .     S
C67    C75     1.407   .     A
C68    C184    1.336   .     S
C68    H258    1.090   .     S
C69    O93     1.297   .     A
C70    C71     1.401   .     S
C70    C100    1.478   .     S
C70    C467    1.336   1_545 S
C71    O94     1.289   .     A
C71    O152    1.271   .     S
C72    O96     1.287   .     A
C72    C74     1.456   .     S
C72    O154    1.302   .     S
C73    C575    1.400   1_554 S
C73    H595    1.083   1_554 S
C75    C589    1.385   .     S
C76    C77     1.387   .     A
C76    H85     1.081   .     S
C76    C588    1.385   1_554 S
C77    H84     1.080   .     S
C77    C572    1.407   1_554 S
H79    N88     1.029   .     S
H80    N89     1.029   .     S
H82    C586    1.083   .     S
H83    C132    1.084   .     S
H87    C410    1.090   1_545 S
N88    Zn99    2.016   .     S
N88    N89     1.301   .     D
N89    Zn98    2.016   .     S
O90    Zn98    1.961   .     S
O90    C115    1.276   .     S
O91    Zn99    1.969   .     S
O92    Zn98    1.948   .     S
O92    C126    1.287   .     S
O93    Zn99    1.927   .     S
O94    Zn98    1.969   .     S
O95    Zn99    1.961   .     S
O96    Zn98    1.927   .     S
O97    Zn99    1.948   .     S
C100   O101    1.223   .     D
C100   O444    1.396   1_545 S
O102   H103    1.008   .     S
O102   C271    1.396   .     S
C104   C109    1.408   .     A
C104   C105    1.410   .     A
C105   C106    1.399   .     A
C105   H110    1.078   .     S
C106   H111    1.083   .     S
C106   C107    1.397   .     A
C107   C108    1.396   .     A
C107   H283    1.083   .     S
C108   C109    1.397   .     A
C108   H626    1.079   1_554 S
C109   H627    1.084   1_554 S
H112   C449    1.083   1_545 S
H113   C621    1.079   .     S
H114   C622    1.084   .     S
C115   O148    1.284   .     A
C115   C125    1.402   .     S
C116   C117    1.396   .     A
C116   C631    1.404   .     S
C116   C647    1.407   .     S
C117   C124    1.412   .     A
C117   C121    1.415   .     A
C118   C122    1.407   .     A
C118   C629    1.404   1_554 S
C118   C632    1.411   1_554 S
C119   C120    1.401   .     A
C119   C631    1.411   .     S
C119   C643    1.400   .     S
C120   H138    1.084   .     S
C120   C121    1.400   .     A
C121   H143    1.081   .     S
C122   C131    1.407   .     A
C122   C161    1.498   .     S
C123   C131    1.407   .     A
C123   C130    1.397   .     A
C123   H21     1.083   1_655 S
C124   C126    1.449   .     S
C124   C132    1.407   .     A
C125   C241    1.336   .     S
C125   H315    1.090   .     S
C126   O150    1.297   .     A
C127   C128    1.401   .     S
C127   C157    1.478   .     S
C127   C353    1.336   1_645 S
C128   O151    1.289   .     A
C128   O38     1.271   1_655 S
C129   O153    1.287   .     A
C129   C131    1.456   .     S
C129   O40     1.302   1_655 S
C130   C632    1.400   1_554 S
C130   H652    1.083   1_554 S
C132   C646    1.385   .     S
C133   C134    1.387   .     A
C133   H142    1.081   .     S
C133   C645    1.385   1_554 S
C134   H141    1.080   .     S
C134   C629    1.407   1_554 S
H136   N145    1.029   .     S
H137   N146    1.029   .     S
H139   C643    1.083   .     S
H140   C18     1.084   1_655 S
H144   C467    1.090   1_545 S
N145   Zn156   2.016   .     S
N145   N146    1.301   .     D
N146   Zn155   2.016   .     S
O147   Zn155   1.961   .     S
O147   C1      1.276   1_655 S
O148   Zn156   1.969   .     S
O149   Zn155   1.948   .     S
O149   C12     1.287   1_655 S
O150   Zn156   1.927   .     S
O151   Zn155   1.969   .     S
O152   Zn156   1.961   .     S
O153   Zn155   1.927   .     S
O154   Zn156   1.948   .     S
C157   O158    1.223   .     D
C157   O501    1.396   1_545 S
O159   H160    1.008   .     S
O159   C328    1.396   .     S
C161   C166    1.408   .     A
C161   C162    1.410   .     A
C162   C163    1.399   .     A
C162   H167    1.078   .     S
C163   H168    1.083   .     S
C163   C164    1.397   .     A
C164   C165    1.396   .     A
C164   H340    1.083   .     S
C165   C166    1.397   .     A
C165   H683    1.079   1_554 S
C166   H684    1.084   1_554 S
H169   C506    1.083   1_545 S
H170   C678    1.079   .     S
H171   C679    1.084   .     S
C172   O205    1.284   .     A
C172   C182    1.402   .     S
C172   O318    1.276   1_455 S
C173   C174    1.396   .     A
C173   C688    1.404   .     S
C173   C704    1.407   .     S
C174   C181    1.412   .     A
C174   C178    1.415   .     A
C175   C179    1.407   .     A
C175   C686    1.404   1_554 S
C175   C689    1.411   1_554 S
C176   C177    1.401   .     A
C176   C688    1.411   .     S
C176   C700    1.400   .     S
C177   H195    1.084   .     S
C177   C178    1.400   .     A
C178   H200    1.081   .     S
C179   C188    1.407   .     A
C179   C218    1.498   .     S
C180   C188    1.407   .     A
C180   C187    1.397   .     A
C180   H249    1.083   .     S
C181   C183    1.449   .     S
C181   C189    1.407   .     A
C182   C469    1.336   1_455 S
C182   H372    1.090   .     S
C183   O207    1.297   .     A
C183   O320    1.287   1_455 S
C184   C185    1.401   .     S
C184   C214    1.478   .     S
C185   O208    1.289   .     A
C185   O266    1.271   .     S
C186   O210    1.287   .     A
C186   C188    1.456   .     S
C186   O268    1.302   .     S
C187   C689    1.400   1_554 S
C187   H709    1.083   1_554 S
C189   C703    1.385   .     S
C189   H311    1.084   1_455 S
C190   C191    1.387   .     A
C190   H199    1.081   .     S
C190   C702    1.385   1_554 S
C191   H198    1.080   .     S
C191   C686    1.407   1_554 S
H192   C294    1.083   1_455 S
H193   N202    1.029   .     S
H194   N203    1.029   .     S
H196   C700    1.083   .     S
H197   C246    1.084   .     S
N202   Zn213   2.016   .     S
N202   N203    1.301   .     D
N203   Zn212   2.016   .     S
O204   Zn212   1.961   .     S
O204   C229    1.276   .     S
O205   Zn213   1.969   .     S
O206   Zn212   1.948   .     S
O206   C240    1.287   .     S
O207   Zn213   1.927   .     S
O208   Zn212   1.969   .     S
O209   Zn213   1.961   .     S
O209   C299    1.271   1_455 S
O210   Zn212   1.927   .     S
O211   Zn213   1.948   .     S
O211   C300    1.302   1_455 S
C214   O215    1.223   .     D
O216   H217    1.008   .     S
O216   C385    1.396   .     S
C218   C223    1.408   .     A
C218   C219    1.410   .     A
C219   C220    1.399   .     A
C219   H224    1.078   .     S
C220   H225    1.083   .     S
C220   C221    1.397   .     A
C221   C222    1.396   .     A
C221   H397    1.083   .     S
C222   C223    1.397   .     A
C222   H740    1.079   1_554 S
C223   H741    1.084   1_554 S
H227   C735    1.079   .     S
H228   C736    1.084   .     S
C229   O262    1.284   .     A
C229   C239    1.402   .     S
C230   C231    1.396   .     A
C230   C745    1.404   .     S
C230   C761    1.407   .     S
C231   C238    1.412   .     A
C231   C235    1.415   .     A
C232   C236    1.407   .     A
C232   C743    1.404   1_554 S
C232   C746    1.411   1_554 S
C233   C234    1.401   .     A
C233   C745    1.411   .     S
C233   C757    1.400   .     S
C234   H252    1.084   .     S
C234   C235    1.400   .     A
C235   H257    1.081   .     S
C236   C245    1.407   .     A
C236   C275    1.498   .     S
C237   C245    1.407   .     A
C237   C244    1.397   .     A
C237   H306    1.083   .     S
C238   C240    1.449   .     S
C238   C246    1.407   .     A
C239   C355    1.336   .     S
C239   H429    1.090   .     S
C240   O264    1.297   .     A
C241   C242    1.401   .     S
C241   C271    1.478   .     S
C242   O265    1.289   .     A
C242   O323    1.271   .     S
C243   O267    1.287   .     A
C243   C245    1.456   .     S
C243   O325    1.302   .     S
C244   C746    1.400   1_554 S
C244   H766    1.083   1_554 S
C246   C760    1.385   .     S
C247   C248    1.387   .     A
C247   H256    1.081   .     S
C247   C759    1.385   1_554 S
C248   H255    1.080   .     S
C248   C743    1.407   1_554 S
H250   N259    1.029   .     S
H251   N260    1.029   .     S
H253   C757    1.083   .     S
H254   C303    1.084   .     S
N259   Zn270   2.016   .     S
N259   N260    1.301   .     D
N260   Zn269   2.016   .     S
O261   Zn269   1.961   .     S
O261   C286    1.276   .     S
O262   Zn270   1.969   .     S
O263   Zn269   1.948   .     S
O263   C297    1.287   .     S
O264   Zn270   1.927   .     S
O265   Zn269   1.969   .     S
O266   Zn270   1.961   .     S
O267   Zn269   1.927   .     S
O268   Zn270   1.948   .     S
C271   O272    1.223   .     D
O273   H274    1.008   .     S
O273   C442    1.396   .     S
C275   C280    1.408   .     A
C275   C276    1.410   .     A
C276   C277    1.399   .     A
C276   H281    1.078   .     S
C277   H282    1.083   .     S
C277   C278    1.397   .     A
C278   C279    1.396   .     A
C278   H454    1.083   .     S
C279   C280    1.397   .     A
C279   H797    1.079   1_554 S
C280   H798    1.084   1_554 S
H284   C792    1.079   .     S
H285   C793    1.084   .     S
C286   O319    1.284   .     A
C286   C296    1.402   .     S
C287   C288    1.396   .     A
C287   C802    1.404   .     S
C287   C818    1.407   .     S
C288   C295    1.412   .     A
C288   C292    1.415   .     A
C289   C293    1.407   .     A
C289   C800    1.404   1_554 S
C289   C803    1.411   1_554 S
C290   C291    1.401   .     A
C290   C802    1.411   .     S
C290   C814    1.400   .     S
C291   H309    1.084   .     S
C291   C292    1.400   .     A
C292   H314    1.081   .     S
C293   C302    1.407   .     A
C293   C332    1.498   .     S
C294   C302    1.407   .     A
C294   C301    1.397   .     A
C294   H192    1.083   1_655 S
C295   C297    1.449   .     S
C295   C303    1.407   .     A
C296   C412    1.336   .     S
C296   H486    1.090   .     S
C297   O321    1.297   .     A
C298   C299    1.401   .     S
C298   C328    1.478   .     S
C298   C11     1.336   1_655 S
C299   O322    1.289   .     A
C299   O209    1.271   1_655 S
C300   O324    1.287   .     A
C300   C302    1.456   .     S
C300   O211    1.302   1_655 S
C301   C803    1.400   1_554 S
C301   H823    1.083   1_554 S
C303   C817    1.385   .     S
C304   C305    1.387   .     A
C304   H313    1.081   .     S
C304   C816    1.385   1_554 S
C305   H312    1.080   .     S
C305   C800    1.407   1_554 S
H307   N316    1.029   .     S
H308   N317    1.029   .     S
H310   C814    1.083   .     S
H311   C189    1.084   1_655 S
N316   Zn327   2.016   .     S
N316   N317    1.301   .     D
N317   Zn326   2.016   .     S
O318   Zn326   1.961   .     S
O318   C172    1.276   1_655 S
O319   Zn327   1.969   .     S
O320   Zn326   1.948   .     S
O320   C183    1.287   1_655 S
O321   Zn327   1.927   .     S
O322   Zn326   1.969   .     S
O323   Zn327   1.961   .     S
O324   Zn326   1.927   .     S
O325   Zn327   1.948   .     S
C328   O329    1.223   .     D
O330   H331    1.008   .     S
O330   C499    1.396   .     S
C332   C337    1.408   .     A
C332   C333    1.410   .     A
C333   C334    1.399   .     A
C333   H338    1.078   .     S
C334   H339    1.083   .     S
C334   C335    1.397   .     A
C335   C336    1.396   .     A
C335   H511    1.083   .     S
C336   C337    1.397   .     A
C336   H854    1.079   1_554 S
C337   H855    1.084   1_554 S
H341   C849    1.079   .     S
H342   C850    1.084   .     S
C343   O376    1.284   .     A
C343   C353    1.402   .     S
C343   O489    1.276   1_455 S
C344   C345    1.396   .     A
C344   C859    1.404   .     S
C344   C875    1.407   .     S
C345   C352    1.412   .     A
C345   C349    1.415   .     A
C346   C350    1.407   .     A
C346   C857    1.404   1_554 S
C346   C860    1.411   1_554 S
C347   C348    1.401   .     A
C347   C859    1.411   .     S
C347   C871    1.400   .     S
C348   H366    1.084   .     S
C348   C349    1.400   .     A
C349   H371    1.081   .     S
C350   C359    1.407   .     A
C350   C389    1.498   .     S
C351   C359    1.407   .     A
C351   C358    1.397   .     A
C351   H420    1.083   .     S
C352   C354    1.449   .     S
C352   C360    1.407   .     A
C353   C127    1.336   1_465 S
C353   H30     1.090   1_565 S
C354   O378    1.297   .     A
C354   O491    1.287   1_455 S
C355   C356    1.401   .     S
C355   C385    1.478   .     S
C356   O379    1.289   .     A
C356   O437    1.271   .     S
C357   O381    1.287   .     A
C357   C359    1.456   .     S
C357   O439    1.302   .     S
C358   C860    1.400   1_554 S
C358   H880    1.083   1_554 S
C360   C874    1.385   .     S
C360   H482    1.084   1_455 S
C361   C362    1.387   .     A
C361   H370    1.081   .     S
C361   C873    1.385   1_554 S
C362   H369    1.080   .     S
C362   C857    1.407   1_554 S
H363   C465    1.083   1_455 S
H364   N373    1.029   .     S
H365   N374    1.029   .     S
H367   C871    1.083   .     S
H368   C417    1.084   .     S
N373   Zn384   2.016   .     S
N373   N374    1.301   .     D
N374   Zn383   2.016   .     S
O375   Zn383   1.961   .     S
O375   C400    1.276   .     S
O376   Zn384   1.969   .     S
O377   Zn383   1.948   .     S
O377   C411    1.287   .     S
O378   Zn384   1.927   .     S
O379   Zn383   1.969   .     S
O380   Zn384   1.961   .     S
O380   C470    1.271   1_455 S
O381   Zn383   1.927   .     S
O382   Zn384   1.948   .     S
O382   C471    1.302   1_455 S
C385   O386    1.223   .     D
O387   H388    1.008   .     S
O387   C43     1.396   1_565 S
C389   C394    1.408   .     A
C389   C390    1.410   .     A
C390   C391    1.399   .     A
C390   H395    1.078   .     S
C391   H396    1.083   .     S
C391   C392    1.397   .     A
C392   C393    1.396   .     A
C392   H55     1.083   1_565 S
C393   C394    1.397   .     A
C393   H911    1.079   1_554 S
C394   H912    1.084   1_554 S
H398   C906    1.079   .     S
H399   C907    1.084   .     S
C400   O433    1.284   .     A
C400   C410    1.402   .     S
C401   C402    1.396   .     A
C401   C916    1.404   .     S
C401   C932    1.407   .     S
C402   C409    1.412   .     A
C402   C406    1.415   .     A
C403   C407    1.407   .     A
C403   C914    1.404   1_554 S
C403   C917    1.411   1_554 S
C404   C405    1.401   .     A
C404   C916    1.411   .     S
C404   C928    1.400   .     S
C405   H423    1.084   .     S
C405   C406    1.400   .     A
C406   H428    1.081   .     S
C407   C416    1.407   .     A
C407   C446    1.498   .     S
C408   C416    1.407   .     A
C408   C415    1.397   .     A
C408   H477    1.083   .     S
C409   C411    1.449   .     S
C409   C417    1.407   .     A
C410   C13     1.336   1_565 S
C410   H87     1.090   1_565 S
C411   O435    1.297   .     A
C412   C413    1.401   .     S
C412   C442    1.478   .     S
C413   O436    1.289   .     A
C413   O494    1.271   .     S
C414   O438    1.287   .     A
C414   C416    1.456   .     S
C414   O496    1.302   .     S
C415   C917    1.400   1_554 S
C415   H937    1.083   1_554 S
C417   C931    1.385   .     S
C418   C419    1.387   .     A
C418   H427    1.081   .     S
C418   C930    1.385   1_554 S
C419   H426    1.080   .     S
C419   C914    1.407   1_554 S
H421   N430    1.029   .     S
H422   N431    1.029   .     S
H424   C928    1.083   .     S
H425   C474    1.084   .     S
N430   Zn441   2.016   .     S
N430   N431    1.301   .     D
N431   Zn440   2.016   .     S
O432   Zn440   1.961   .     S
O432   C457    1.276   .     S
O433   Zn441   1.969   .     S
O434   Zn440   1.948   .     S
O434   C468    1.287   .     S
O435   Zn441   1.927   .     S
O436   Zn440   1.969   .     S
O437   Zn441   1.961   .     S
O438   Zn440   1.927   .     S
O439   Zn441   1.948   .     S
C442   O443    1.223   .     D
O444   H445    1.008   .     S
O444   C100    1.396   1_565 S
C446   C451    1.408   .     A
C446   C447    1.410   .     A
C447   C448    1.399   .     A
C447   H452    1.078   .     S
C448   H453    1.083   .     S
C448   C449    1.397   .     A
C449   C450    1.396   .     A
C449   H112    1.083   1_565 S
C450   C451    1.397   .     A
C450   H968    1.079   1_554 S
C451   H969    1.084   1_554 S
H455   C963    1.079   .     S
H456   C964    1.084   .     S
C457   O490    1.284   .     A
C457   C467    1.402   .     S
C458   C459    1.396   .     A
C458   C973    1.404   .     S
C458   C989    1.407   .     S
C459   C466    1.412   .     A
C459   C463    1.415   .     A
C460   C464    1.407   .     A
C460   C971    1.404   1_554 S
C460   C974    1.411   1_554 S
C461   C462    1.401   .     A
C461   C973    1.411   .     S
C461   C985    1.400   .     S
C462   H480    1.084   .     S
C462   C463    1.400   .     A
C463   H485    1.081   .     S
C464   C473    1.407   .     A
C464   C503    1.498   .     S
C465   C473    1.407   .     A
C465   C472    1.397   .     A
C465   H363    1.083   1_655 S
C466   C468    1.449   .     S
C466   C474    1.407   .     A
C467   C70     1.336   1_565 S
C467   H144    1.090   1_565 S
C468   O492    1.297   .     A
C469   C470    1.401   .     S
C469   C499    1.478   .     S
C469   C182    1.336   1_655 S
C470   O493    1.289   .     A
C470   O380    1.271   1_655 S
C471   O495    1.287   .     A
C471   C473    1.456   .     S
C471   O382    1.302   1_655 S
C472   C974    1.400   1_554 S
C472   H994    1.083   1_554 S
C474   C988    1.385   .     S
C475   C476    1.387   .     A
C475   H484    1.081   .     S
C475   C987    1.385   1_554 S
C476   H483    1.080   .     S
C476   C971    1.407   1_554 S
H478   N487    1.029   .     S
H479   N488    1.029   .     S
H481   C985    1.083   .     S
H482   C360    1.084   1_655 S
N487   Zn498   2.016   .     S
N487   N488    1.301   .     D
N488   Zn497   2.016   .     S
O489   Zn497   1.961   .     S
O489   C343    1.276   1_655 S
O490   Zn498   1.969   .     S
O491   Zn497   1.948   .     S
O491   C354    1.287   1_655 S
O492   Zn498   1.927   .     S
O493   Zn497   1.969   .     S
O494   Zn498   1.961   .     S
O495   Zn497   1.927   .     S
O496   Zn498   1.948   .     S
C499   O500    1.223   .     D
O501   H502    1.008   .     S
O501   C157    1.396   1_565 S
C503   C508    1.408   .     A
C503   C504    1.410   .     A
C504   C505    1.399   .     A
C504   H509    1.078   .     S
C505   H510    1.083   .     S
C505   C506    1.397   .     A
C506   C507    1.396   .     A
C506   H169    1.083   1_565 S
C507   C508    1.397   .     A
C507   H1025   1.079   1_554 S
C508   H1026   1.084   1_554 S
H512   C1020   1.079   .     S
H513   C1021   1.084   .     S
C514   O547    1.284   .     A
C514   C524    1.402   .     S
C514   O660    1.276   1_455 S
C515   C516    1.396   .     A
C515   C4      1.404   1_556 S
C515   C20     1.407   1_556 S
C516   C523    1.412   .     A
C516   C520    1.415   .     A
C517   C521    1.407   .     A
C518   C519    1.401   .     A
C518   C4      1.411   1_556 S
C518   C16     1.400   1_556 S
C519   H537    1.084   .     S
C519   C520    1.400   .     A
C520   H542    1.081   .     S
C521   C530    1.407   .     A
C521   C560    1.498   .     S
C522   C530    1.407   .     A
C522   C529    1.397   .     A
C522   H591    1.083   .     S
C523   C525    1.449   .     S
C523   C531    1.407   .     A
C524   C811    1.336   1_455 S
C524   H714    1.090   .     S
C525   O549    1.297   .     A
C525   O662    1.287   1_455 S
C526   C527    1.401   .     S
C526   C556    1.478   .     S
C526   C923    1.336   1_545 S
C527   O550    1.289   .     A
C527   O608    1.271   .     S
C528   O552    1.287   .     A
C528   C530    1.456   .     S
C528   O610    1.302   .     S
C531   C19     1.385   1_556 S
C531   H653    1.084   1_455 S
C532   C533    1.387   .     A
C532   H541    1.081   .     S
C533   H540    1.080   .     S
H534   C636    1.083   1_455 S
H535   N544    1.029   .     S
H536   N545    1.029   .     S
H538   C16     1.083   1_556 S
H539   C588    1.084   .     S
H543   C866    1.090   1_545 S
N544   Zn555   2.016   .     S
N544   N545    1.301   .     D
N545   Zn554   2.016   .     S
O546   Zn554   1.961   .     S
O546   C571    1.276   .     S
O547   Zn555   1.969   .     S
O548   Zn554   1.948   .     S
O548   C582    1.287   .     S
O549   Zn555   1.927   .     S
O550   Zn554   1.969   .     S
O551   Zn555   1.961   .     S
O551   C641    1.271   1_455 S
O552   Zn554   1.927   .     S
O553   Zn555   1.948   .     S
O553   C642    1.302   1_455 S
C556   O557    1.223   .     D
C556   O900    1.396   1_545 S
O558   H559    1.008   .     S
O558   C727    1.396   .     S
C560   C565    1.408   .     A
C560   C561    1.410   .     A
C561   C562    1.399   .     A
C561   H566    1.078   .     S
C562   H567    1.083   .     S
C562   C563    1.397   .     A
C563   C564    1.396   .     A
C563   H739    1.083   .     S
C564   C565    1.397   .     A
H568   C905    1.083   1_545 S
H569   C51     1.079   1_556 S
H570   C52     1.084   1_556 S
C571   O604    1.284   .     A
C571   C581    1.402   .     S
C572   C573    1.396   .     A
C572   C61     1.404   1_556 S
C572   C77     1.407   1_556 S
C573   C580    1.412   .     A
C573   C577    1.415   .     A
C574   C578    1.407   .     A
C575   C576    1.401   .     A
C575   C61     1.411   1_556 S
C575   C73     1.400   1_556 S
C576   H594    1.084   .     S
C576   C577    1.400   .     A
C577   H599    1.081   .     S
C578   C587    1.407   .     A
C578   C617    1.498   .     S
C579   C587    1.407   .     A
C579   C586    1.397   .     A
C579   H648    1.083   .     S
C580   C582    1.449   .     S
C580   C588    1.407   .     A
C581   C697    1.336   .     S
C581   H771    1.090   .     S
C582   O606    1.297   .     A
C583   C584    1.401   .     S
C583   C613    1.478   .     S
C583   C980    1.336   1_545 S
C584   O607    1.289   .     A
C584   O665    1.271   .     S
C585   O609    1.287   .     A
C585   C587    1.456   .     S
C585   O667    1.302   .     S
C588   C76     1.385   1_556 S
C589   C590    1.387   .     A
C589   H598    1.081   .     S
C590   H597    1.080   .     S
H592   N601    1.029   .     S
H593   N602    1.029   .     S
H595   C73     1.083   1_556 S
H596   C645    1.084   .     S
H600   C923    1.090   1_545 S
N601   Zn612   2.016   .     S
N601   N602    1.301   .     D
N602   Zn611   2.016   .     S
O603   Zn611   1.961   .     S
O603   C628    1.276   .     S
O604   Zn612   1.969   .     S
O605   Zn611   1.948   .     S
O605   C639    1.287   .     S
O606   Zn612   1.927   .     S
O607   Zn611   1.969   .     S
O608   Zn612   1.961   .     S
O609   Zn611   1.927   .     S
O610   Zn612   1.948   .     S
C613   O614    1.223   .     D
C613   O957    1.396   1_545 S
O615   H616    1.008   .     S
O615   C784    1.396   .     S
C617   C622    1.408   .     A
C617   C618    1.410   .     A
C618   C619    1.399   .     A
C618   H623    1.078   .     S
C619   H624    1.083   .     S
C619   C620    1.397   .     A
C620   C621    1.396   .     A
C620   H796    1.083   .     S
C621   C622    1.397   .     A
H625   C962    1.083   1_545 S
H626   C108    1.079   1_556 S
H627   C109    1.084   1_556 S
C628   O661    1.284   .     A
C628   C638    1.402   .     S
C629   C630    1.396   .     A
C629   C118    1.404   1_556 S
C629   C134    1.407   1_556 S
C630   C637    1.412   .     A
C630   C634    1.415   .     A
C631   C635    1.407   .     A
C632   C633    1.401   .     A
C632   C118    1.411   1_556 S
C632   C130    1.400   1_556 S
C633   H651    1.084   .     S
C633   C634    1.400   .     A
C634   H656    1.081   .     S
C635   C644    1.407   .     A
C635   C674    1.498   .     S
C636   C644    1.407   .     A
C636   C643    1.397   .     A
C636   H534    1.083   1_655 S
C637   C639    1.449   .     S
C637   C645    1.407   .     A
C638   C754    1.336   .     S
C638   H828    1.090   .     S
C639   O663    1.297   .     A
C640   C641    1.401   .     S
C640   C670    1.478   .     S
C640   C866    1.336   1_645 S
C641   O664    1.289   .     A
C641   O551    1.271   1_655 S
C642   O666    1.287   .     A
C642   C644    1.456   .     S
C642   O553    1.302   1_655 S
C645   C133    1.385   1_556 S
C646   C647    1.387   .     A
C646   H655    1.081   .     S
C647   H654    1.080   .     S
H649   N658    1.029   .     S
H650   N659    1.029   .     S
H652   C130    1.083   1_556 S
H653   C531    1.084   1_655 S
H657   C980    1.090   1_545 S
N658   Zn669   2.016   .     S
N658   N659    1.301   .     D
N659   Zn668   2.016   .     S
O660   Zn668   1.961   .     S
O660   C514    1.276   1_655 S
O661   Zn669   1.969   .     S
O662   Zn668   1.948   .     S
O662   C525    1.287   1_655 S
O663   Zn669   1.927   .     S
O664   Zn668   1.969   .     S
O665   Zn669   1.961   .     S
O666   Zn668   1.927   .     S
O667   Zn669   1.948   .     S
C670   O671    1.223   .     D
C670   O1014   1.396   1_545 S
O672   H673    1.008   .     S
O672   C841    1.396   .     S
C674   C679    1.408   .     A
C674   C675    1.410   .     A
C675   C676    1.399   .     A
C675   H680    1.078   .     S
C676   H681    1.083   .     S
C676   C677    1.397   .     A
C677   C678    1.396   .     A
C677   H853    1.083   .     S
C678   C679    1.397   .     A
H682   C1019   1.083   1_545 S
H683   C165    1.079   1_556 S
H684   C166    1.084   1_556 S
C685   O718    1.284   .     A
C685   C695    1.402   .     S
C685   O831    1.276   1_455 S
C686   C687    1.396   .     A
C686   C175    1.404   1_556 S
C686   C191    1.407   1_556 S
C687   C694    1.412   .     A
C687   C691    1.415   .     A
C688   C692    1.407   .     A
C689   C690    1.401   .     A
C689   C175    1.411   1_556 S
C689   C187    1.400   1_556 S
C690   H708    1.084   .     S
C690   C691    1.400   .     A
C691   H713    1.081   .     S
C692   C701    1.407   .     A
C692   C731    1.498   .     S
C693   C701    1.407   .     A
C693   C700    1.397   .     A
C693   H762    1.083   .     S
C694   C696    1.449   .     S
C694   C702    1.407   .     A
C695   C982    1.336   1_455 S
C695   H885    1.090   .     S
C696   O720    1.297   .     A
C696   O833    1.287   1_455 S
C697   C698    1.401   .     S
C697   C727    1.478   .     S
C698   O721    1.289   .     A
C698   O779    1.271   .     S
C699   O723    1.287   .     A
C699   C701    1.456   .     S
C699   O781    1.302   .     S
C702   C190    1.385   1_556 S
C702   H824    1.084   1_455 S
C703   C704    1.387   .     A
C703   H712    1.081   .     S
C704   H711    1.080   .     S
H705   C807    1.083   1_455 S
H706   N715    1.029   .     S
H707   N716    1.029   .     S
H709   C187    1.083   1_556 S
H710   C759    1.084   .     S
N715   Zn726   2.016   .     S
N715   N716    1.301   .     D
N716   Zn725   2.016   .     S
O717   Zn725   1.961   .     S
O717   C742    1.276   .     S
O718   Zn726   1.969   .     S
O719   Zn725   1.948   .     S
O719   C753    1.287   .     S
O720   Zn726   1.927   .     S
O721   Zn725   1.969   .     S
O722   Zn726   1.961   .     S
O722   C812    1.271   1_455 S
O723   Zn725   1.927   .     S
O724   Zn726   1.948   .     S
O724   C813    1.302   1_455 S
C727   O728    1.223   .     D
O729   H730    1.008   .     S
O729   C898    1.396   .     S
C731   C736    1.408   .     A
C731   C732    1.410   .     A
C732   C733    1.399   .     A
C732   H737    1.078   .     S
C733   H738    1.083   .     S
C733   C734    1.397   .     A
C734   C735    1.396   .     A
C734   H910    1.083   .     S
C735   C736    1.397   .     A
H740   C222    1.079   1_556 S
H741   C223    1.084   1_556 S
C742   O775    1.284   .     A
C742   C752    1.402   .     S
C743   C744    1.396   .     A
C743   C232    1.404   1_556 S
C743   C248    1.407   1_556 S
C744   C751    1.412   .     A
C744   C748    1.415   .     A
C745   C749    1.407   .     A
C746   C747    1.401   .     A
C746   C232    1.411   1_556 S
C746   C244    1.400   1_556 S
C747   H765    1.084   .     S
C747   C748    1.400   .     A
C748   H770    1.081   .     S
C749   C758    1.407   .     A
C749   C788    1.498   .     S
C750   C758    1.407   .     A
C750   C757    1.397   .     A
C750   H819    1.083   .     S
C751   C753    1.449   .     S
C751   C759    1.407   .     A
C752   C868    1.336   .     S
C752   H942    1.090   .     S
C753   O777    1.297   .     A
C754   C755    1.401   .     S
C754   C784    1.478   .     S
C755   O778    1.289   .     A
C755   O836    1.271   .     S
C756   O780    1.287   .     A
C756   C758    1.456   .     S
C756   O838    1.302   .     S
C759   C247    1.385   1_556 S
C760   C761    1.387   .     A
C760   H769    1.081   .     S
C761   H768    1.080   .     S
H763   N772    1.029   .     S
H764   N773    1.029   .     S
H766   C244    1.083   1_556 S
H767   C816    1.084   .     S
N772   Zn783   2.016   .     S
N772   N773    1.301   .     D
N773   Zn782   2.016   .     S
O774   Zn782   1.961   .     S
O774   C799    1.276   .     S
O775   Zn783   1.969   .     S
O776   Zn782   1.948   .     S
O776   C810    1.287   .     S
O777   Zn783   1.927   .     S
O778   Zn782   1.969   .     S
O779   Zn783   1.961   .     S
O780   Zn782   1.927   .     S
O781   Zn783   1.948   .     S
C784   O785    1.223   .     D
O786   H787    1.008   .     S
O786   C955    1.396   .     S
C788   C793    1.408   .     A
C788   C789    1.410   .     A
C789   C790    1.399   .     A
C789   H794    1.078   .     S
C790   H795    1.083   .     S
C790   C791    1.397   .     A
C791   C792    1.396   .     A
C791   H967    1.083   .     S
C792   C793    1.397   .     A
H797   C279    1.079   1_556 S
H798   C280    1.084   1_556 S
C799   O832    1.284   .     A
C799   C809    1.402   .     S
C800   C801    1.396   .     A
C800   C289    1.404   1_556 S
C800   C305    1.407   1_556 S
C801   C808    1.412   .     A
C801   C805    1.415   .     A
C802   C806    1.407   .     A
C803   C804    1.401   .     A
C803   C289    1.411   1_556 S
C803   C301    1.400   1_556 S
C804   H822    1.084   .     S
C804   C805    1.400   .     A
C805   H827    1.081   .     S
C806   C815    1.407   .     A
C806   C845    1.498   .     S
C807   C815    1.407   .     A
C807   C814    1.397   .     A
C807   H705    1.083   1_655 S
C808   C810    1.449   .     S
C808   C816    1.407   .     A
C809   C925    1.336   .     S
C809   H999    1.090   .     S
C810   O834    1.297   .     A
C811   C812    1.401   .     S
C811   C841    1.478   .     S
C811   C524    1.336   1_655 S
C812   O835    1.289   .     A
C812   O722    1.271   1_655 S
C813   O837    1.287   .     A
C813   C815    1.456   .     S
C813   O724    1.302   1_655 S
C816   C304    1.385   1_556 S
C817   C818    1.387   .     A
C817   H826    1.081   .     S
C818   H825    1.080   .     S
H820   N829    1.029   .     S
H821   N830    1.029   .     S
H823   C301    1.083   1_556 S
H824   C702    1.084   1_655 S
N829   Zn840   2.016   .     S
N829   N830    1.301   .     D
N830   Zn839   2.016   .     S
O831   Zn839   1.961   .     S
O831   C685    1.276   1_655 S
O832   Zn840   1.969   .     S
O833   Zn839   1.948   .     S
O833   C696    1.287   1_655 S
O834   Zn840   1.927   .     S
O835   Zn839   1.969   .     S
O836   Zn840   1.961   .     S
O837   Zn839   1.927   .     S
O838   Zn840   1.948   .     S
C841   O842    1.223   .     D
O843   H844    1.008   .     S
O843   C1012   1.396   .     S
C845   C850    1.408   .     A
C845   C846    1.410   .     A
C846   C847    1.399   .     A
C846   H851    1.078   .     S
C847   H852    1.083   .     S
C847   C848    1.397   .     A
C848   C849    1.396   .     A
C848   H1024   1.083   .     S
C849   C850    1.397   .     A
H854   C336    1.079   1_556 S
H855   C337    1.084   1_556 S
C856   O889    1.284   .     A
C856   C866    1.402   .     S
C856   O1002   1.276   1_455 S
C857   C858    1.396   .     A
C857   C346    1.404   1_556 S
C857   C362    1.407   1_556 S
C858   C865    1.412   .     A
C858   C862    1.415   .     A
C859   C863    1.407   .     A
C860   C861    1.401   .     A
C860   C346    1.411   1_556 S
C860   C358    1.400   1_556 S
C861   H879    1.084   .     S
C861   C862    1.400   .     A
C862   H884    1.081   .     S
C863   C872    1.407   .     A
C863   C902    1.498   .     S
C864   C872    1.407   .     A
C864   C871    1.397   .     A
C864   H933    1.083   .     S
C865   C867    1.449   .     S
C865   C873    1.407   .     A
C866   C640    1.336   1_465 S
C866   H543    1.090   1_565 S
C867   O891    1.297   .     A
C867   O1004   1.287   1_455 S
C868   C869    1.401   .     S
C868   C898    1.478   .     S
C869   O892    1.289   .     A
C869   O950    1.271   .     S
C870   O894    1.287   .     A
C870   C872    1.456   .     S
C870   O952    1.302   .     S
C873   C361    1.385   1_556 S
C873   H995    1.084   1_455 S
C874   C875    1.387   .     A
C874   H883    1.081   .     S
C875   H882    1.080   .     S
H876   C978    1.083   1_455 S
H877   N886    1.029   .     S
H878   N887    1.029   .     S
H880   C358    1.083   1_556 S
H881   C930    1.084   .     S
N886   Zn897   2.016   .     S
N886   N887    1.301   .     D
N887   Zn896   2.016   .     S
O888   Zn896   1.961   .     S
O888   C913    1.276   .     S
O889   Zn897   1.969   .     S
O890   Zn896   1.948   .     S
O890   C924    1.287   .     S
O891   Zn897   1.927   .     S
O892   Zn896   1.969   .     S
O893   Zn897   1.961   .     S
O893   C983    1.271   1_455 S
O894   Zn896   1.927   .     S
O895   Zn897   1.948   .     S
O895   C984    1.302   1_455 S
C898   O899    1.223   .     D
O900   H901    1.008   .     S
O900   C556    1.396   1_565 S
C902   C907    1.408   .     A
C902   C903    1.410   .     A
C903   C904    1.399   .     A
C903   H908    1.078   .     S
C904   H909    1.083   .     S
C904   C905    1.397   .     A
C905   C906    1.396   .     A
C905   H568    1.083   1_565 S
C906   C907    1.397   .     A
H911   C393    1.079   1_556 S
H912   C394    1.084   1_556 S
C913   O946    1.284   .     A
C913   C923    1.402   .     S
C914   C915    1.396   .     A
C914   C403    1.404   1_556 S
C914   C419    1.407   1_556 S
C915   C922    1.412   .     A
C915   C919    1.415   .     A
C916   C920    1.407   .     A
C917   C918    1.401   .     A
C917   C403    1.411   1_556 S
C917   C415    1.400   1_556 S
C918   H936    1.084   .     S
C918   C919    1.400   .     A
C919   H941    1.081   .     S
C920   C929    1.407   .     A
C920   C959    1.498   .     S
C921   C929    1.407   .     A
C921   C928    1.397   .     A
C921   H990    1.083   .     S
C922   C924    1.449   .     S
C922   C930    1.407   .     A
C923   C526    1.336   1_565 S
C923   H600    1.090   1_565 S
C924   O948    1.297   .     A
C925   C926    1.401   .     S
C925   C955    1.478   .     S
C926   O949    1.289   .     A
C926   O1007   1.271   .     S
C927   O951    1.287   .     A
C927   C929    1.456   .     S
C927   O1009   1.302   .     S
C930   C418    1.385   1_556 S
C931   C932    1.387   .     A
C931   H940    1.081   .     S
C932   H939    1.080   .     S
H934   N943    1.029   .     S
H935   N944    1.029   .     S
H937   C415    1.083   1_556 S
H938   C987    1.084   .     S
N943   Zn954   2.016   .     S
N943   N944    1.301   .     D
N944   Zn953   2.016   .     S
O945   Zn953   1.961   .     S
O945   C970    1.276   .     S
O946   Zn954   1.969   .     S
O947   Zn953   1.948   .     S
O947   C981    1.287   .     S
O948   Zn954   1.927   .     S
O949   Zn953   1.969   .     S
O950   Zn954   1.961   .     S
O951   Zn953   1.927   .     S
O952   Zn954   1.948   .     S
C955   O956    1.223   .     D
O957   H958    1.008   .     S
O957   C613    1.396   1_565 S
C959   C964    1.408   .     A
C959   C960    1.410   .     A
C960   C961    1.399   .     A
C960   H965    1.078   .     S
C961   H966    1.083   .     S
C961   C962    1.397   .     A
C962   C963    1.396   .     A
C962   H625    1.083   1_565 S
C963   C964    1.397   .     A
H968   C450    1.079   1_556 S
H969   C451    1.084   1_556 S
C970   O1003   1.284   .     A
C970   C980    1.402   .     S
C971   C972    1.396   .     A
C971   C460    1.404   1_556 S
C971   C476    1.407   1_556 S
C972   C979    1.412   .     A
C972   C976    1.415   .     A
C973   C977    1.407   .     A
C974   C975    1.401   .     A
C974   C460    1.411   1_556 S
C974   C472    1.400   1_556 S
C975   H993    1.084   .     S
C975   C976    1.400   .     A
C976   H998    1.081   .     S
C977   C986    1.407   .     A
C977   C1016   1.498   .     S
C978   C986    1.407   .     A
C978   C985    1.397   .     A
C978   H876    1.083   1_655 S
C979   C981    1.449   .     S
C979   C987    1.407   .     A
C980   C583    1.336   1_565 S
C980   H657    1.090   1_565 S
C981   O1005   1.297   .     A
C982   C983    1.401   .     S
C982   C1012   1.478   .     S
C982   C695    1.336   1_655 S
C983   O1006   1.289   .     A
C983   O893    1.271   1_655 S
C984   O1008   1.287   .     A
C984   C986    1.456   .     S
C984   O895    1.302   1_655 S
C987   C475    1.385   1_556 S
C988   C989    1.387   .     A
C988   H997    1.081   .     S
C989   H996    1.080   .     S
H991   N1000   1.029   .     S
H992   N1001   1.029   .     S
H994   C472    1.083   1_556 S
H995   C873    1.084   1_655 S
N1000  Zn1011  2.016   .     S
N1000  N1001   1.301   .     D
N1001  Zn1010  2.016   .     S
O1002  Zn1010  1.961   .     S
O1002  C856    1.276   1_655 S
O1003  Zn1011  1.969   .     S
O1004  Zn1010  1.948   .     S
O1004  C867    1.287   1_655 S
O1005  Zn1011  1.927   .     S
O1006  Zn1010  1.969   .     S
O1007  Zn1011  1.961   .     S
O1008  Zn1010  1.927   .     S
O1009  Zn1011  1.948   .     S
C1012  O1013   1.223   .     D
O1014  H1015   1.008   .     S
O1014  C670    1.396   1_565 S
C1016  C1021   1.408   .     A
C1016  C1017   1.410   .     A
C1017  C1018   1.399   .     A
C1017  H1022   1.078   .     S
C1018  H1023   1.083   .     S
C1018  C1019   1.397   .     A
C1019  C1020   1.396   .     A
C1019  H682    1.083   1_565 S
C1020  C1021   1.397   .     A
H1025  C507    1.079   1_556 S
H1026  C508    1.084   1_556 S
