data_str_m3_o2_o5_pcu_sym.67
_audit_creation_date              2020-01-03
_audit_creation_method            'Materials Studio'
_symmetry_space_group_name_H-M    'P1'
_symmetry_Int_Tables_number       1
_symmetry_cell_setting            triclinic
loop_
_symmetry_equiv_pos_as_xyz
  x,y,z
_cell_length_a                    30.1407
_cell_length_b                    28.7595
_cell_length_c                    26.8912
_cell_angle_alpha                 90.1551
_cell_angle_beta                  96.4094
_cell_angle_gamma                 90.1683
loop_
_atom_site_label
_atom_site_type_symbol
_atom_site_fract_x
_atom_site_fract_y
_atom_site_fract_z
_atom_site_U_iso_or_equiv
_atom_site_adp_type
_atom_site_occupancy
C1     C     0.16369   0.24997   0.16658   0.00000  Uiso   1.00
C2     C     0.22015   0.44728   0.13337   0.00000  Uiso   1.00
C3     C     0.24984   0.24996   0.07294   0.00000  Uiso   1.00
C4     C     0.25007   0.25004   0.26038   0.00000  Uiso   1.00
C5     C     0.24886   0.02633   0.16714   0.00000  Uiso   1.00
C6     C     0.24894   0.47335   0.16711   0.00000  Uiso   1.00
C7     C     0.24993   0.24998   0.02177   0.00000  Uiso   1.00
C8     C     0.25000   0.25010   0.31156   0.00000  Uiso   1.00
C9     C     0.04510   0.29048   0.14005   0.00000  Uiso   1.00
C10    C     0.44640   0.21468   0.12331   0.00000  Uiso   1.00
C11    C     0.45536   0.28720   0.16915   0.00000  Uiso   1.00
C12    C     0.33585   0.25004   0.16451   0.00000  Uiso   1.00
C13    C     0.04450   0.20775   0.15577   0.00000  Uiso   1.00
C14    C     0.09094   0.29193   0.15149   0.00000  Uiso   1.00
C15    C     0.40131   0.21380   0.12956   0.00000  Uiso   1.00
C16    C     0.41039   0.28808   0.17440   0.00000  Uiso   1.00
C17    C     0.09082   0.20763   0.16447   0.00000  Uiso   1.00
C18    C     0.11474   0.24994   0.16173   0.00000  Uiso   1.00
C19    C     0.38303   0.25024   0.15675   0.00000  Uiso   1.00
C20    C     0.02170   0.24904   0.14384   0.00000  Uiso   1.00
C21    C     0.47357   0.25066   0.14412   0.00000  Uiso   1.00
C22    C     0.22694   0.10093   0.12770   0.00000  Uiso   1.00
C23    C     0.27735   0.39902   0.20211   0.00000  Uiso   1.00
C24    C     0.27250   0.10111   0.20588   0.00000  Uiso   1.00
C25    C     0.22246   0.39835   0.13107   0.00000  Uiso   1.00
C26    C     0.22902   0.05195   0.12667   0.00000  Uiso   1.00
C27    C     0.27829   0.44797   0.20049   0.00000  Uiso   1.00
C28    C     0.26910   0.05224   0.20747   0.00000  Uiso   1.00
H29    H     0.02749   0.32268   0.13086   0.00000  Uiso   1.00
H30    H     0.33946   0.31408   0.28962   0.00000  Uiso   1.00
H31    H     0.34880   0.18370   0.27999   0.00000  Uiso   1.00
H32    H     0.15862   0.31321   0.04553   0.00000  Uiso   1.00
H33    H     0.10026   0.35504   0.18415   0.00000  Uiso   1.00
H34    H     0.10291   0.35483   0.12191   0.00000  Uiso   1.00
H35    H     0.34746   0.18997   0.08417   0.00000  Uiso   1.00
H36    H     0.36446   0.15490   0.13408   0.00000  Uiso   1.00
H37    H     0.39897   0.35713   0.17723   0.00000  Uiso   1.00
H38    H     0.41113   0.33155   0.23362   0.00000  Uiso   1.00
H39    H     0.10095   0.15251   0.21089   0.00000  Uiso   1.00
H40    H     0.46035   0.18684   0.10275   0.00000  Uiso   1.00
H41    H     0.10438   0.14045   0.14985   0.00000  Uiso   1.00
H42    H     0.47620   0.31498   0.18622   0.00000  Uiso   1.00
H43    H     0.02637   0.17577   0.16059   0.00000  Uiso   1.00
H44    H     0.21506   0.03407   0.09327   0.00000  Uiso   1.00
H45    H     0.30177   0.46604   0.22690   0.00000  Uiso   1.00
H46    H     0.28261   0.03467   0.24108   0.00000  Uiso   1.00
H47    H     0.19641   0.46488   0.10711   0.00000  Uiso   1.00
H48    H     0.15479   0.18426   0.05049   0.00000  Uiso   1.00
N49    N     0.25000   0.12623   0.16667   0.00000  Uiso   1.00
N50    N     0.25000   0.37376   0.16667   0.00000  Uiso   1.00
N51    N     0.11238   0.33660   0.15497   0.00000  Uiso   1.00
N52    N     0.37504   0.17635   0.10637   0.00000  Uiso   1.00
N53    N     0.39322   0.32761   0.19823   0.00000  Uiso   1.00
N54    N     0.11296   0.16475   0.17833   0.00000  Uiso   1.00
O55    O     0.18453   0.28974   0.16667   0.00000  Uiso   1.00
O56    O     0.16392   0.08948   0.04963   0.00000  Uiso   1.00
O57    O     0.16585   0.17240   0.08414   0.00000  Uiso   1.00
O58    O     0.34748   0.40657   0.27245   0.00000  Uiso   1.00
O59    O     0.27739   0.37803   0.29747   0.00000  Uiso   1.00
O60    O     0.32700   0.32137   0.25486   0.00000  Uiso   1.00
O61    O     0.27448   0.13999   0.29600   0.00000  Uiso   1.00
O62    O     0.33613   0.08906   0.28307   0.00000  Uiso   1.00
O63    O     0.33724   0.17093   0.24678   0.00000  Uiso   1.00
O64    O     0.16114   0.40731   0.05060   0.00000  Uiso   1.00
O65    O     0.23021   0.36710   0.03984   0.00000  Uiso   1.00
O66    O     0.31547   0.21026   0.16666   0.00000  Uiso   1.00
O67    O     0.16914   0.32294   0.08023   0.00000  Uiso   1.00
O68    O     0.31547   0.28974   0.16666   0.00000  Uiso   1.00
O69    O     0.18453   0.21026   0.16667   0.00000  Uiso   1.00
O70    O     0.25000   0.28973   0.09511   0.00000  Uiso   1.00
O71    O     0.25000   0.21027   0.23822   0.00000  Uiso   1.00
O72    O     0.25000   0.28973   0.23822   0.00000  Uiso   1.00
O73    O     0.25000   0.21027   0.09511   0.00000  Uiso   1.00
O74    O     0.22824   0.13729   0.03735   0.00000  Uiso   1.00
S75    S     0.19594   0.12528   0.07374   0.00000  Uiso   1.00
S76    S     0.30785   0.37577   0.25717   0.00000  Uiso   1.00
S77    S     0.30531   0.12558   0.25892   0.00000  Uiso   1.00
S78    S     0.19524   0.37381   0.07462   0.00000  Uiso   1.00
Zn79   Zn    0.25000   0.30307   0.16667   0.00000  Uiso   1.00
Zn80   Zn    0.25000   0.19693   0.16667   0.00000  Uiso   1.00
C81    C     0.66369   0.24997   0.16658   0.00000  Uiso   1.00
C82    C     0.72015   0.44728   0.13337   0.00000  Uiso   1.00
C83    C     0.74984   0.24996   0.07294   0.00000  Uiso   1.00
C84    C     0.75007   0.25004   0.26038   0.00000  Uiso   1.00
C85    C     0.74886   0.02633   0.16714   0.00000  Uiso   1.00
C86    C     0.74894   0.47335   0.16711   0.00000  Uiso   1.00
C87    C     0.74993   0.24998   0.02177   0.00000  Uiso   1.00
C88    C     0.75000   0.25010   0.31156   0.00000  Uiso   1.00
C89    C     0.54510   0.29048   0.14005   0.00000  Uiso   1.00
C90    C     0.94640   0.21468   0.12331   0.00000  Uiso   1.00
C91    C     0.95536   0.28720   0.16915   0.00000  Uiso   1.00
C92    C     0.83585   0.25004   0.16451   0.00000  Uiso   1.00
C93    C     0.54450   0.20775   0.15577   0.00000  Uiso   1.00
C94    C     0.59094   0.29193   0.15149   0.00000  Uiso   1.00
C95    C     0.90131   0.21380   0.12956   0.00000  Uiso   1.00
C96    C     0.91039   0.28808   0.17440   0.00000  Uiso   1.00
C97    C     0.59082   0.20763   0.16447   0.00000  Uiso   1.00
C98    C     0.61474   0.24994   0.16173   0.00000  Uiso   1.00
C99    C     0.88303   0.25024   0.15675   0.00000  Uiso   1.00
C100   C     0.52170   0.24904   0.14384   0.00000  Uiso   1.00
C101   C     0.97357   0.25066   0.14412   0.00000  Uiso   1.00
C102   C     0.72694   0.10093   0.12770   0.00000  Uiso   1.00
C103   C     0.77735   0.39902   0.20211   0.00000  Uiso   1.00
C104   C     0.77250   0.10111   0.20588   0.00000  Uiso   1.00
C105   C     0.72246   0.39835   0.13107   0.00000  Uiso   1.00
C106   C     0.72902   0.05195   0.12667   0.00000  Uiso   1.00
C107   C     0.77829   0.44797   0.20049   0.00000  Uiso   1.00
C108   C     0.76910   0.05224   0.20747   0.00000  Uiso   1.00
H109   H     0.52749   0.32268   0.13086   0.00000  Uiso   1.00
H110   H     0.83946   0.31408   0.28962   0.00000  Uiso   1.00
H111   H     0.84880   0.18370   0.27999   0.00000  Uiso   1.00
H112   H     0.65862   0.31321   0.04553   0.00000  Uiso   1.00
H113   H     0.60026   0.35504   0.18415   0.00000  Uiso   1.00
H114   H     0.60291   0.35483   0.12191   0.00000  Uiso   1.00
H115   H     0.84746   0.18997   0.08417   0.00000  Uiso   1.00
H116   H     0.86446   0.15490   0.13408   0.00000  Uiso   1.00
H117   H     0.89897   0.35713   0.17723   0.00000  Uiso   1.00
H118   H     0.91113   0.33155   0.23362   0.00000  Uiso   1.00
H119   H     0.60095   0.15251   0.21089   0.00000  Uiso   1.00
H120   H     0.96035   0.18684   0.10275   0.00000  Uiso   1.00
H121   H     0.60438   0.14045   0.14985   0.00000  Uiso   1.00
H122   H     0.97620   0.31498   0.18622   0.00000  Uiso   1.00
H123   H     0.52637   0.17577   0.16059   0.00000  Uiso   1.00
H124   H     0.71506   0.03407   0.09327   0.00000  Uiso   1.00
H125   H     0.80177   0.46604   0.22690   0.00000  Uiso   1.00
H126   H     0.78261   0.03467   0.24108   0.00000  Uiso   1.00
H127   H     0.69641   0.46488   0.10711   0.00000  Uiso   1.00
H128   H     0.65479   0.18426   0.05049   0.00000  Uiso   1.00
N129   N     0.75000   0.12623   0.16667   0.00000  Uiso   1.00
N130   N     0.75000   0.37376   0.16667   0.00000  Uiso   1.00
N131   N     0.61238   0.33660   0.15497   0.00000  Uiso   1.00
N132   N     0.87504   0.17635   0.10637   0.00000  Uiso   1.00
N133   N     0.89322   0.32761   0.19823   0.00000  Uiso   1.00
N134   N     0.61296   0.16475   0.17833   0.00000  Uiso   1.00
O135   O     0.68453   0.28974   0.16667   0.00000  Uiso   1.00
O136   O     0.66392   0.08948   0.04963   0.00000  Uiso   1.00
O137   O     0.66585   0.17240   0.08414   0.00000  Uiso   1.00
O138   O     0.84748   0.40657   0.27245   0.00000  Uiso   1.00
O139   O     0.77739   0.37803   0.29747   0.00000  Uiso   1.00
O140   O     0.82700   0.32137   0.25486   0.00000  Uiso   1.00
O141   O     0.77448   0.13999   0.29600   0.00000  Uiso   1.00
O142   O     0.83613   0.08906   0.28307   0.00000  Uiso   1.00
O143   O     0.83724   0.17093   0.24678   0.00000  Uiso   1.00
O144   O     0.66114   0.40731   0.05060   0.00000  Uiso   1.00
O145   O     0.73021   0.36710   0.03984   0.00000  Uiso   1.00
O146   O     0.81547   0.21026   0.16666   0.00000  Uiso   1.00
O147   O     0.66914   0.32294   0.08023   0.00000  Uiso   1.00
O148   O     0.81547   0.28974   0.16666   0.00000  Uiso   1.00
O149   O     0.68453   0.21026   0.16667   0.00000  Uiso   1.00
O150   O     0.75000   0.28973   0.09511   0.00000  Uiso   1.00
O151   O     0.75000   0.21027   0.23822   0.00000  Uiso   1.00
O152   O     0.75000   0.28973   0.23822   0.00000  Uiso   1.00
O153   O     0.75000   0.21027   0.09511   0.00000  Uiso   1.00
O154   O     0.72824   0.13729   0.03735   0.00000  Uiso   1.00
S155   S     0.69594   0.12528   0.07374   0.00000  Uiso   1.00
S156   S     0.80785   0.37577   0.25717   0.00000  Uiso   1.00
S157   S     0.80531   0.12558   0.25892   0.00000  Uiso   1.00
S158   S     0.69524   0.37381   0.07462   0.00000  Uiso   1.00
Zn159  Zn    0.75000   0.30307   0.16667   0.00000  Uiso   1.00
Zn160  Zn    0.75000   0.19693   0.16667   0.00000  Uiso   1.00
C161   C     0.16369   0.74997   0.16658   0.00000  Uiso   1.00
C162   C     0.22015   0.94728   0.13337   0.00000  Uiso   1.00
C163   C     0.24984   0.74996   0.07294   0.00000  Uiso   1.00
C164   C     0.25007   0.75004   0.26038   0.00000  Uiso   1.00
C165   C     0.24886   0.52633   0.16714   0.00000  Uiso   1.00
C166   C     0.24894   0.97335   0.16711   0.00000  Uiso   1.00
C167   C     0.24993   0.74998   0.02177   0.00000  Uiso   1.00
C168   C     0.25000   0.75010   0.31156   0.00000  Uiso   1.00
C169   C     0.04510   0.79048   0.14005   0.00000  Uiso   1.00
C170   C     0.44640   0.71468   0.12331   0.00000  Uiso   1.00
C171   C     0.45536   0.78720   0.16915   0.00000  Uiso   1.00
C172   C     0.33585   0.75004   0.16451   0.00000  Uiso   1.00
C173   C     0.04450   0.70775   0.15577   0.00000  Uiso   1.00
C174   C     0.09094   0.79193   0.15149   0.00000  Uiso   1.00
C175   C     0.40131   0.71380   0.12956   0.00000  Uiso   1.00
C176   C     0.41039   0.78808   0.17440   0.00000  Uiso   1.00
C177   C     0.09082   0.70763   0.16447   0.00000  Uiso   1.00
C178   C     0.11474   0.74994   0.16173   0.00000  Uiso   1.00
C179   C     0.38303   0.75024   0.15675   0.00000  Uiso   1.00
C180   C     0.02170   0.74904   0.14384   0.00000  Uiso   1.00
C181   C     0.47357   0.75066   0.14412   0.00000  Uiso   1.00
C182   C     0.22694   0.60093   0.12770   0.00000  Uiso   1.00
C183   C     0.27735   0.89902   0.20211   0.00000  Uiso   1.00
C184   C     0.27250   0.60111   0.20588   0.00000  Uiso   1.00
C185   C     0.22246   0.89835   0.13107   0.00000  Uiso   1.00
C186   C     0.22902   0.55195   0.12667   0.00000  Uiso   1.00
C187   C     0.27829   0.94797   0.20049   0.00000  Uiso   1.00
C188   C     0.26910   0.55224   0.20747   0.00000  Uiso   1.00
H189   H     0.02749   0.82268   0.13086   0.00000  Uiso   1.00
H190   H     0.33946   0.81408   0.28962   0.00000  Uiso   1.00
H191   H     0.34880   0.68370   0.27999   0.00000  Uiso   1.00
H192   H     0.15862   0.81321   0.04553   0.00000  Uiso   1.00
H193   H     0.10026   0.85504   0.18415   0.00000  Uiso   1.00
H194   H     0.10291   0.85483   0.12191   0.00000  Uiso   1.00
H195   H     0.34746   0.68997   0.08417   0.00000  Uiso   1.00
H196   H     0.36446   0.65490   0.13408   0.00000  Uiso   1.00
H197   H     0.39897   0.85713   0.17723   0.00000  Uiso   1.00
H198   H     0.41113   0.83155   0.23362   0.00000  Uiso   1.00
H199   H     0.10095   0.65251   0.21089   0.00000  Uiso   1.00
H200   H     0.46035   0.68684   0.10275   0.00000  Uiso   1.00
H201   H     0.10438   0.64045   0.14985   0.00000  Uiso   1.00
H202   H     0.47620   0.81498   0.18622   0.00000  Uiso   1.00
H203   H     0.02637   0.67577   0.16059   0.00000  Uiso   1.00
H204   H     0.21506   0.53407   0.09327   0.00000  Uiso   1.00
H205   H     0.30177   0.96604   0.22690   0.00000  Uiso   1.00
H206   H     0.28261   0.53467   0.24108   0.00000  Uiso   1.00
H207   H     0.19641   0.96488   0.10711   0.00000  Uiso   1.00
H208   H     0.15479   0.68426   0.05049   0.00000  Uiso   1.00
N209   N     0.25000   0.62623   0.16667   0.00000  Uiso   1.00
N210   N     0.25000   0.87376   0.16667   0.00000  Uiso   1.00
N211   N     0.11238   0.83660   0.15497   0.00000  Uiso   1.00
N212   N     0.37504   0.67635   0.10637   0.00000  Uiso   1.00
N213   N     0.39322   0.82761   0.19823   0.00000  Uiso   1.00
N214   N     0.11296   0.66475   0.17833   0.00000  Uiso   1.00
O215   O     0.18453   0.78974   0.16667   0.00000  Uiso   1.00
O216   O     0.16392   0.58948   0.04963   0.00000  Uiso   1.00
O217   O     0.16585   0.67240   0.08414   0.00000  Uiso   1.00
O218   O     0.34748   0.90657   0.27245   0.00000  Uiso   1.00
O219   O     0.27739   0.87803   0.29747   0.00000  Uiso   1.00
O220   O     0.32700   0.82137   0.25486   0.00000  Uiso   1.00
O221   O     0.27448   0.63999   0.29600   0.00000  Uiso   1.00
O222   O     0.33613   0.58906   0.28307   0.00000  Uiso   1.00
O223   O     0.33724   0.67093   0.24678   0.00000  Uiso   1.00
O224   O     0.16114   0.90731   0.05060   0.00000  Uiso   1.00
O225   O     0.23021   0.86710   0.03984   0.00000  Uiso   1.00
O226   O     0.31547   0.71026   0.16666   0.00000  Uiso   1.00
O227   O     0.16914   0.82294   0.08023   0.00000  Uiso   1.00
O228   O     0.31547   0.78974   0.16666   0.00000  Uiso   1.00
O229   O     0.18453   0.71026   0.16667   0.00000  Uiso   1.00
O230   O     0.25000   0.78973   0.09511   0.00000  Uiso   1.00
O231   O     0.25000   0.71027   0.23822   0.00000  Uiso   1.00
O232   O     0.25000   0.78973   0.23822   0.00000  Uiso   1.00
O233   O     0.25000   0.71027   0.09511   0.00000  Uiso   1.00
O234   O     0.22824   0.63729   0.03735   0.00000  Uiso   1.00
S235   S     0.19594   0.62528   0.07374   0.00000  Uiso   1.00
S236   S     0.30785   0.87577   0.25717   0.00000  Uiso   1.00
S237   S     0.30531   0.62558   0.25892   0.00000  Uiso   1.00
S238   S     0.19524   0.87381   0.07462   0.00000  Uiso   1.00
Zn239  Zn    0.25000   0.80307   0.16667   0.00000  Uiso   1.00
Zn240  Zn    0.25000   0.69693   0.16667   0.00000  Uiso   1.00
C241   C     0.66369   0.74997   0.16658   0.00000  Uiso   1.00
C242   C     0.72015   0.94728   0.13337   0.00000  Uiso   1.00
C243   C     0.74984   0.74996   0.07294   0.00000  Uiso   1.00
C244   C     0.75007   0.75004   0.26038   0.00000  Uiso   1.00
C245   C     0.74886   0.52633   0.16714   0.00000  Uiso   1.00
C246   C     0.74894   0.97335   0.16711   0.00000  Uiso   1.00
C247   C     0.74993   0.74998   0.02177   0.00000  Uiso   1.00
C248   C     0.75000   0.75010   0.31156   0.00000  Uiso   1.00
C249   C     0.54510   0.79048   0.14005   0.00000  Uiso   1.00
C250   C     0.94640   0.71468   0.12331   0.00000  Uiso   1.00
C251   C     0.95536   0.78720   0.16915   0.00000  Uiso   1.00
C252   C     0.83585   0.75004   0.16451   0.00000  Uiso   1.00
C253   C     0.54450   0.70775   0.15577   0.00000  Uiso   1.00
C254   C     0.59094   0.79193   0.15149   0.00000  Uiso   1.00
C255   C     0.90131   0.71380   0.12956   0.00000  Uiso   1.00
C256   C     0.91039   0.78808   0.17440   0.00000  Uiso   1.00
C257   C     0.59082   0.70763   0.16447   0.00000  Uiso   1.00
C258   C     0.61474   0.74994   0.16173   0.00000  Uiso   1.00
C259   C     0.88303   0.75024   0.15675   0.00000  Uiso   1.00
C260   C     0.52170   0.74904   0.14384   0.00000  Uiso   1.00
C261   C     0.97357   0.75066   0.14412   0.00000  Uiso   1.00
C262   C     0.72694   0.60093   0.12770   0.00000  Uiso   1.00
C263   C     0.77735   0.89902   0.20211   0.00000  Uiso   1.00
C264   C     0.77250   0.60111   0.20588   0.00000  Uiso   1.00
C265   C     0.72246   0.89835   0.13107   0.00000  Uiso   1.00
C266   C     0.72902   0.55195   0.12667   0.00000  Uiso   1.00
C267   C     0.77829   0.94797   0.20049   0.00000  Uiso   1.00
C268   C     0.76910   0.55224   0.20747   0.00000  Uiso   1.00
H269   H     0.52749   0.82268   0.13086   0.00000  Uiso   1.00
H270   H     0.83946   0.81408   0.28962   0.00000  Uiso   1.00
H271   H     0.84880   0.68370   0.27999   0.00000  Uiso   1.00
H272   H     0.65862   0.81321   0.04553   0.00000  Uiso   1.00
H273   H     0.60026   0.85504   0.18415   0.00000  Uiso   1.00
H274   H     0.60291   0.85483   0.12191   0.00000  Uiso   1.00
H275   H     0.84746   0.68997   0.08417   0.00000  Uiso   1.00
H276   H     0.86446   0.65490   0.13408   0.00000  Uiso   1.00
H277   H     0.89897   0.85713   0.17723   0.00000  Uiso   1.00
H278   H     0.91113   0.83155   0.23362   0.00000  Uiso   1.00
H279   H     0.60095   0.65251   0.21089   0.00000  Uiso   1.00
H280   H     0.96035   0.68684   0.10275   0.00000  Uiso   1.00
H281   H     0.60438   0.64045   0.14985   0.00000  Uiso   1.00
H282   H     0.97620   0.81498   0.18622   0.00000  Uiso   1.00
H283   H     0.52637   0.67577   0.16059   0.00000  Uiso   1.00
H284   H     0.71506   0.53407   0.09327   0.00000  Uiso   1.00
H285   H     0.80177   0.96604   0.22690   0.00000  Uiso   1.00
H286   H     0.78261   0.53467   0.24108   0.00000  Uiso   1.00
H287   H     0.69641   0.96488   0.10711   0.00000  Uiso   1.00
H288   H     0.65479   0.68426   0.05049   0.00000  Uiso   1.00
N289   N     0.75000   0.62623   0.16667   0.00000  Uiso   1.00
N290   N     0.75000   0.87376   0.16667   0.00000  Uiso   1.00
N291   N     0.61238   0.83660   0.15497   0.00000  Uiso   1.00
N292   N     0.87504   0.67635   0.10637   0.00000  Uiso   1.00
N293   N     0.89322   0.82761   0.19823   0.00000  Uiso   1.00
N294   N     0.61296   0.66475   0.17833   0.00000  Uiso   1.00
O295   O     0.68453   0.78974   0.16667   0.00000  Uiso   1.00
O296   O     0.66392   0.58948   0.04963   0.00000  Uiso   1.00
O297   O     0.66585   0.67240   0.08414   0.00000  Uiso   1.00
O298   O     0.84748   0.90657   0.27245   0.00000  Uiso   1.00
O299   O     0.77739   0.87803   0.29747   0.00000  Uiso   1.00
O300   O     0.82700   0.82137   0.25486   0.00000  Uiso   1.00
O301   O     0.77448   0.63999   0.29600   0.00000  Uiso   1.00
O302   O     0.83613   0.58906   0.28307   0.00000  Uiso   1.00
O303   O     0.83724   0.67093   0.24678   0.00000  Uiso   1.00
O304   O     0.66114   0.90731   0.05060   0.00000  Uiso   1.00
O305   O     0.73021   0.86710   0.03984   0.00000  Uiso   1.00
O306   O     0.81547   0.71026   0.16666   0.00000  Uiso   1.00
O307   O     0.66914   0.82294   0.08023   0.00000  Uiso   1.00
O308   O     0.81547   0.78974   0.16666   0.00000  Uiso   1.00
O309   O     0.68453   0.71026   0.16667   0.00000  Uiso   1.00
O310   O     0.75000   0.78973   0.09511   0.00000  Uiso   1.00
O311   O     0.75000   0.71027   0.23822   0.00000  Uiso   1.00
O312   O     0.75000   0.78973   0.23822   0.00000  Uiso   1.00
O313   O     0.75000   0.71027   0.09511   0.00000  Uiso   1.00
O314   O     0.72824   0.63729   0.03735   0.00000  Uiso   1.00
S315   S     0.69594   0.62528   0.07374   0.00000  Uiso   1.00
S316   S     0.80785   0.87577   0.25717   0.00000  Uiso   1.00
S317   S     0.80531   0.62558   0.25892   0.00000  Uiso   1.00
S318   S     0.69524   0.87381   0.07462   0.00000  Uiso   1.00
Zn319  Zn    0.75000   0.80307   0.16667   0.00000  Uiso   1.00
Zn320  Zn    0.75000   0.69693   0.16667   0.00000  Uiso   1.00
C321   C     0.16369   0.24997   0.49992   0.00000  Uiso   1.00
C322   C     0.22015   0.44728   0.46670   0.00000  Uiso   1.00
C323   C     0.24984   0.24996   0.40628   0.00000  Uiso   1.00
C324   C     0.25007   0.25004   0.59371   0.00000  Uiso   1.00
C325   C     0.24886   0.02633   0.50048   0.00000  Uiso   1.00
C326   C     0.24894   0.47335   0.50044   0.00000  Uiso   1.00
C327   C     0.24993   0.24998   0.35511   0.00000  Uiso   1.00
C328   C     0.25000   0.25010   0.64489   0.00000  Uiso   1.00
C329   C     0.04510   0.29048   0.47338   0.00000  Uiso   1.00
C330   C     0.44640   0.21468   0.45664   0.00000  Uiso   1.00
C331   C     0.45536   0.28720   0.50249   0.00000  Uiso   1.00
C332   C     0.33585   0.25004   0.49785   0.00000  Uiso   1.00
C333   C     0.04450   0.20775   0.48910   0.00000  Uiso   1.00
C334   C     0.09094   0.29193   0.48482   0.00000  Uiso   1.00
C335   C     0.40131   0.21380   0.46290   0.00000  Uiso   1.00
C336   C     0.41039   0.28808   0.50773   0.00000  Uiso   1.00
C337   C     0.09082   0.20763   0.49780   0.00000  Uiso   1.00
C338   C     0.11474   0.24994   0.49506   0.00000  Uiso   1.00
C339   C     0.38303   0.25024   0.49009   0.00000  Uiso   1.00
C340   C     0.02170   0.24904   0.47717   0.00000  Uiso   1.00
C341   C     0.47357   0.25066   0.47745   0.00000  Uiso   1.00
C342   C     0.22694   0.10093   0.46103   0.00000  Uiso   1.00
C343   C     0.27735   0.39902   0.53545   0.00000  Uiso   1.00
C344   C     0.27250   0.10111   0.53922   0.00000  Uiso   1.00
C345   C     0.22246   0.39835   0.46441   0.00000  Uiso   1.00
C346   C     0.22902   0.05195   0.46000   0.00000  Uiso   1.00
C347   C     0.27829   0.44797   0.53382   0.00000  Uiso   1.00
C348   C     0.26910   0.05224   0.54080   0.00000  Uiso   1.00
H349   H     0.02749   0.32268   0.46419   0.00000  Uiso   1.00
H350   H     0.33946   0.31408   0.62295   0.00000  Uiso   1.00
H351   H     0.34880   0.18370   0.61333   0.00000  Uiso   1.00
H352   H     0.15862   0.31321   0.37886   0.00000  Uiso   1.00
H353   H     0.10026   0.35504   0.51749   0.00000  Uiso   1.00
H354   H     0.10291   0.35483   0.45524   0.00000  Uiso   1.00
H355   H     0.34746   0.18997   0.41750   0.00000  Uiso   1.00
H356   H     0.36446   0.15490   0.46741   0.00000  Uiso   1.00
H357   H     0.39897   0.35713   0.51056   0.00000  Uiso   1.00
H358   H     0.41113   0.33155   0.56695   0.00000  Uiso   1.00
H359   H     0.10095   0.15251   0.54422   0.00000  Uiso   1.00
H360   H     0.46035   0.18684   0.43609   0.00000  Uiso   1.00
H361   H     0.10438   0.14045   0.48319   0.00000  Uiso   1.00
H362   H     0.47620   0.31498   0.51955   0.00000  Uiso   1.00
H363   H     0.02637   0.17577   0.49392   0.00000  Uiso   1.00
H364   H     0.21506   0.03407   0.42660   0.00000  Uiso   1.00
H365   H     0.30177   0.46604   0.56023   0.00000  Uiso   1.00
H366   H     0.28261   0.03467   0.57442   0.00000  Uiso   1.00
H367   H     0.19641   0.46488   0.44045   0.00000  Uiso   1.00
H368   H     0.15479   0.18426   0.38382   0.00000  Uiso   1.00
N369   N     0.25000   0.12623   0.50000   0.00000  Uiso   1.00
N370   N     0.25000   0.37376   0.50000   0.00000  Uiso   1.00
N371   N     0.11238   0.33660   0.48830   0.00000  Uiso   1.00
N372   N     0.37504   0.17635   0.43971   0.00000  Uiso   1.00
N373   N     0.39322   0.32761   0.53156   0.00000  Uiso   1.00
N374   N     0.11296   0.16475   0.51166   0.00000  Uiso   1.00
O375   O     0.18453   0.28974   0.50000   0.00000  Uiso   1.00
O376   O     0.16392   0.08948   0.38296   0.00000  Uiso   1.00
O377   O     0.16585   0.17240   0.41748   0.00000  Uiso   1.00
O378   O     0.34748   0.40657   0.60578   0.00000  Uiso   1.00
O379   O     0.27739   0.37803   0.63080   0.00000  Uiso   1.00
O380   O     0.32700   0.32137   0.58820   0.00000  Uiso   1.00
O381   O     0.27448   0.13999   0.62933   0.00000  Uiso   1.00
O382   O     0.33613   0.08906   0.61641   0.00000  Uiso   1.00
O383   O     0.33724   0.17093   0.58011   0.00000  Uiso   1.00
O384   O     0.16114   0.40731   0.38394   0.00000  Uiso   1.00
O385   O     0.23021   0.36710   0.37317   0.00000  Uiso   1.00
O386   O     0.31547   0.21026   0.50000   0.00000  Uiso   1.00
O387   O     0.16914   0.32294   0.41356   0.00000  Uiso   1.00
O388   O     0.31547   0.28974   0.50000   0.00000  Uiso   1.00
O389   O     0.18453   0.21026   0.50000   0.00000  Uiso   1.00
O390   O     0.25000   0.28973   0.42845   0.00000  Uiso   1.00
O391   O     0.25000   0.21027   0.57155   0.00000  Uiso   1.00
O392   O     0.25000   0.28973   0.57155   0.00000  Uiso   1.00
O393   O     0.25000   0.21027   0.42845   0.00000  Uiso   1.00
O394   O     0.22824   0.13729   0.37068   0.00000  Uiso   1.00
S395   S     0.19594   0.12528   0.40707   0.00000  Uiso   1.00
S396   S     0.30785   0.37577   0.59051   0.00000  Uiso   1.00
S397   S     0.30531   0.12558   0.59225   0.00000  Uiso   1.00
S398   S     0.19524   0.37381   0.40795   0.00000  Uiso   1.00
Zn399  Zn    0.25000   0.30307   0.50000   0.00000  Uiso   1.00
Zn400  Zn    0.25000   0.19693   0.50000   0.00000  Uiso   1.00
C401   C     0.66369   0.24997   0.49992   0.00000  Uiso   1.00
C402   C     0.72015   0.44728   0.46670   0.00000  Uiso   1.00
C403   C     0.74984   0.24996   0.40628   0.00000  Uiso   1.00
C404   C     0.75007   0.25004   0.59371   0.00000  Uiso   1.00
C405   C     0.74886   0.02633   0.50048   0.00000  Uiso   1.00
C406   C     0.74894   0.47335   0.50044   0.00000  Uiso   1.00
C407   C     0.74993   0.24998   0.35511   0.00000  Uiso   1.00
C408   C     0.75000   0.25010   0.64489   0.00000  Uiso   1.00
C409   C     0.54510   0.29048   0.47338   0.00000  Uiso   1.00
C410   C     0.94640   0.21468   0.45664   0.00000  Uiso   1.00
C411   C     0.95536   0.28720   0.50249   0.00000  Uiso   1.00
C412   C     0.83585   0.25004   0.49785   0.00000  Uiso   1.00
C413   C     0.54450   0.20775   0.48910   0.00000  Uiso   1.00
C414   C     0.59094   0.29193   0.48482   0.00000  Uiso   1.00
C415   C     0.90131   0.21380   0.46290   0.00000  Uiso   1.00
C416   C     0.91039   0.28808   0.50773   0.00000  Uiso   1.00
C417   C     0.59082   0.20763   0.49780   0.00000  Uiso   1.00
C418   C     0.61474   0.24994   0.49506   0.00000  Uiso   1.00
C419   C     0.88303   0.25024   0.49009   0.00000  Uiso   1.00
C420   C     0.52170   0.24904   0.47717   0.00000  Uiso   1.00
C421   C     0.97357   0.25066   0.47745   0.00000  Uiso   1.00
C422   C     0.72694   0.10093   0.46103   0.00000  Uiso   1.00
C423   C     0.77735   0.39902   0.53545   0.00000  Uiso   1.00
C424   C     0.77250   0.10111   0.53922   0.00000  Uiso   1.00
C425   C     0.72246   0.39835   0.46441   0.00000  Uiso   1.00
C426   C     0.72902   0.05195   0.46000   0.00000  Uiso   1.00
C427   C     0.77829   0.44797   0.53382   0.00000  Uiso   1.00
C428   C     0.76910   0.05224   0.54080   0.00000  Uiso   1.00
H429   H     0.52749   0.32268   0.46419   0.00000  Uiso   1.00
H430   H     0.83946   0.31408   0.62295   0.00000  Uiso   1.00
H431   H     0.84880   0.18370   0.61333   0.00000  Uiso   1.00
H432   H     0.65862   0.31321   0.37886   0.00000  Uiso   1.00
H433   H     0.60026   0.35504   0.51749   0.00000  Uiso   1.00
H434   H     0.60291   0.35483   0.45524   0.00000  Uiso   1.00
H435   H     0.84746   0.18997   0.41750   0.00000  Uiso   1.00
H436   H     0.86446   0.15490   0.46741   0.00000  Uiso   1.00
H437   H     0.89897   0.35713   0.51056   0.00000  Uiso   1.00
H438   H     0.91113   0.33155   0.56695   0.00000  Uiso   1.00
H439   H     0.60095   0.15251   0.54422   0.00000  Uiso   1.00
H440   H     0.96035   0.18684   0.43609   0.00000  Uiso   1.00
H441   H     0.60438   0.14045   0.48319   0.00000  Uiso   1.00
H442   H     0.97620   0.31498   0.51955   0.00000  Uiso   1.00
H443   H     0.52637   0.17577   0.49392   0.00000  Uiso   1.00
H444   H     0.71506   0.03407   0.42660   0.00000  Uiso   1.00
H445   H     0.80177   0.46604   0.56023   0.00000  Uiso   1.00
H446   H     0.78261   0.03467   0.57442   0.00000  Uiso   1.00
H447   H     0.69641   0.46488   0.44045   0.00000  Uiso   1.00
H448   H     0.65479   0.18426   0.38382   0.00000  Uiso   1.00
N449   N     0.75000   0.12623   0.50000   0.00000  Uiso   1.00
N450   N     0.75000   0.37376   0.50000   0.00000  Uiso   1.00
N451   N     0.61238   0.33660   0.48830   0.00000  Uiso   1.00
N452   N     0.87504   0.17635   0.43971   0.00000  Uiso   1.00
N453   N     0.89322   0.32761   0.53156   0.00000  Uiso   1.00
N454   N     0.61296   0.16475   0.51166   0.00000  Uiso   1.00
O455   O     0.68453   0.28974   0.50000   0.00000  Uiso   1.00
O456   O     0.66392   0.08948   0.38296   0.00000  Uiso   1.00
O457   O     0.66585   0.17240   0.41748   0.00000  Uiso   1.00
O458   O     0.84748   0.40657   0.60578   0.00000  Uiso   1.00
O459   O     0.77739   0.37803   0.63080   0.00000  Uiso   1.00
O460   O     0.82700   0.32137   0.58820   0.00000  Uiso   1.00
O461   O     0.77448   0.13999   0.62933   0.00000  Uiso   1.00
O462   O     0.83613   0.08906   0.61641   0.00000  Uiso   1.00
O463   O     0.83724   0.17093   0.58011   0.00000  Uiso   1.00
O464   O     0.66114   0.40731   0.38394   0.00000  Uiso   1.00
O465   O     0.73021   0.36710   0.37317   0.00000  Uiso   1.00
O466   O     0.81547   0.21026   0.50000   0.00000  Uiso   1.00
O467   O     0.66914   0.32294   0.41356   0.00000  Uiso   1.00
O468   O     0.81547   0.28974   0.50000   0.00000  Uiso   1.00
O469   O     0.68453   0.21026   0.50000   0.00000  Uiso   1.00
O470   O     0.75000   0.28973   0.42845   0.00000  Uiso   1.00
O471   O     0.75000   0.21027   0.57155   0.00000  Uiso   1.00
O472   O     0.75000   0.28973   0.57155   0.00000  Uiso   1.00
O473   O     0.75000   0.21027   0.42845   0.00000  Uiso   1.00
O474   O     0.72824   0.13729   0.37068   0.00000  Uiso   1.00
S475   S     0.69594   0.12528   0.40707   0.00000  Uiso   1.00
S476   S     0.80785   0.37577   0.59051   0.00000  Uiso   1.00
S477   S     0.80531   0.12558   0.59225   0.00000  Uiso   1.00
S478   S     0.69524   0.37381   0.40795   0.00000  Uiso   1.00
Zn479  Zn    0.75000   0.30307   0.50000   0.00000  Uiso   1.00
Zn480  Zn    0.75000   0.19693   0.50000   0.00000  Uiso   1.00
C481   C     0.16369   0.74997   0.49992   0.00000  Uiso   1.00
C482   C     0.22015   0.94728   0.46670   0.00000  Uiso   1.00
C483   C     0.24984   0.74996   0.40628   0.00000  Uiso   1.00
C484   C     0.25007   0.75004   0.59371   0.00000  Uiso   1.00
C485   C     0.24886   0.52633   0.50048   0.00000  Uiso   1.00
C486   C     0.24894   0.97335   0.50044   0.00000  Uiso   1.00
C487   C     0.24993   0.74998   0.35511   0.00000  Uiso   1.00
C488   C     0.25000   0.75010   0.64489   0.00000  Uiso   1.00
C489   C     0.04510   0.79048   0.47338   0.00000  Uiso   1.00
C490   C     0.44640   0.71468   0.45664   0.00000  Uiso   1.00
C491   C     0.45536   0.78720   0.50249   0.00000  Uiso   1.00
C492   C     0.33585   0.75004   0.49785   0.00000  Uiso   1.00
C493   C     0.04450   0.70775   0.48910   0.00000  Uiso   1.00
C494   C     0.09094   0.79193   0.48482   0.00000  Uiso   1.00
C495   C     0.40131   0.71380   0.46290   0.00000  Uiso   1.00
C496   C     0.41039   0.78808   0.50773   0.00000  Uiso   1.00
C497   C     0.09082   0.70763   0.49780   0.00000  Uiso   1.00
C498   C     0.11474   0.74994   0.49506   0.00000  Uiso   1.00
C499   C     0.38303   0.75024   0.49009   0.00000  Uiso   1.00
C500   C     0.02170   0.74904   0.47717   0.00000  Uiso   1.00
C501   C     0.47357   0.75066   0.47745   0.00000  Uiso   1.00
C502   C     0.22694   0.60093   0.46103   0.00000  Uiso   1.00
C503   C     0.27735   0.89902   0.53545   0.00000  Uiso   1.00
C504   C     0.27250   0.60111   0.53922   0.00000  Uiso   1.00
C505   C     0.22246   0.89835   0.46441   0.00000  Uiso   1.00
C506   C     0.22902   0.55195   0.46000   0.00000  Uiso   1.00
C507   C     0.27829   0.94797   0.53382   0.00000  Uiso   1.00
C508   C     0.26910   0.55224   0.54080   0.00000  Uiso   1.00
H509   H     0.02749   0.82268   0.46419   0.00000  Uiso   1.00
H510   H     0.33946   0.81408   0.62295   0.00000  Uiso   1.00
H511   H     0.34880   0.68370   0.61333   0.00000  Uiso   1.00
H512   H     0.15862   0.81321   0.37886   0.00000  Uiso   1.00
H513   H     0.10026   0.85504   0.51749   0.00000  Uiso   1.00
H514   H     0.10291   0.85483   0.45524   0.00000  Uiso   1.00
H515   H     0.34746   0.68997   0.41750   0.00000  Uiso   1.00
H516   H     0.36446   0.65490   0.46741   0.00000  Uiso   1.00
H517   H     0.39897   0.85713   0.51056   0.00000  Uiso   1.00
H518   H     0.41113   0.83155   0.56695   0.00000  Uiso   1.00
H519   H     0.10095   0.65251   0.54422   0.00000  Uiso   1.00
H520   H     0.46035   0.68684   0.43609   0.00000  Uiso   1.00
H521   H     0.10438   0.64045   0.48319   0.00000  Uiso   1.00
H522   H     0.47620   0.81498   0.51955   0.00000  Uiso   1.00
H523   H     0.02637   0.67577   0.49392   0.00000  Uiso   1.00
H524   H     0.21506   0.53407   0.42660   0.00000  Uiso   1.00
H525   H     0.30177   0.96604   0.56023   0.00000  Uiso   1.00
H526   H     0.28261   0.53467   0.57442   0.00000  Uiso   1.00
H527   H     0.19641   0.96488   0.44045   0.00000  Uiso   1.00
H528   H     0.15479   0.68426   0.38382   0.00000  Uiso   1.00
N529   N     0.25000   0.62623   0.50000   0.00000  Uiso   1.00
N530   N     0.25000   0.87376   0.50000   0.00000  Uiso   1.00
N531   N     0.11238   0.83660   0.48830   0.00000  Uiso   1.00
N532   N     0.37504   0.67635   0.43971   0.00000  Uiso   1.00
N533   N     0.39322   0.82761   0.53156   0.00000  Uiso   1.00
N534   N     0.11296   0.66475   0.51166   0.00000  Uiso   1.00
O535   O     0.18453   0.78974   0.50000   0.00000  Uiso   1.00
O536   O     0.16392   0.58948   0.38296   0.00000  Uiso   1.00
O537   O     0.16585   0.67240   0.41748   0.00000  Uiso   1.00
O538   O     0.34748   0.90657   0.60578   0.00000  Uiso   1.00
O539   O     0.27739   0.87803   0.63080   0.00000  Uiso   1.00
O540   O     0.32700   0.82137   0.58820   0.00000  Uiso   1.00
O541   O     0.27448   0.63999   0.62933   0.00000  Uiso   1.00
O542   O     0.33613   0.58906   0.61641   0.00000  Uiso   1.00
O543   O     0.33724   0.67093   0.58011   0.00000  Uiso   1.00
O544   O     0.16114   0.90731   0.38394   0.00000  Uiso   1.00
O545   O     0.23021   0.86710   0.37317   0.00000  Uiso   1.00
O546   O     0.31547   0.71026   0.50000   0.00000  Uiso   1.00
O547   O     0.16914   0.82294   0.41356   0.00000  Uiso   1.00
O548   O     0.31547   0.78974   0.50000   0.00000  Uiso   1.00
O549   O     0.18453   0.71026   0.50000   0.00000  Uiso   1.00
O550   O     0.25000   0.78973   0.42845   0.00000  Uiso   1.00
O551   O     0.25000   0.71027   0.57155   0.00000  Uiso   1.00
O552   O     0.25000   0.78973   0.57155   0.00000  Uiso   1.00
O553   O     0.25000   0.71027   0.42845   0.00000  Uiso   1.00
O554   O     0.22824   0.63729   0.37068   0.00000  Uiso   1.00
S555   S     0.19594   0.62528   0.40707   0.00000  Uiso   1.00
S556   S     0.30785   0.87577   0.59051   0.00000  Uiso   1.00
S557   S     0.30531   0.62558   0.59225   0.00000  Uiso   1.00
S558   S     0.19524   0.87381   0.40795   0.00000  Uiso   1.00
Zn559  Zn    0.25000   0.80307   0.50000   0.00000  Uiso   1.00
Zn560  Zn    0.25000   0.69693   0.50000   0.00000  Uiso   1.00
C561   C     0.66369   0.74997   0.49992   0.00000  Uiso   1.00
C562   C     0.72015   0.94728   0.46670   0.00000  Uiso   1.00
C563   C     0.74984   0.74996   0.40628   0.00000  Uiso   1.00
C564   C     0.75007   0.75004   0.59371   0.00000  Uiso   1.00
C565   C     0.74886   0.52633   0.50048   0.00000  Uiso   1.00
C566   C     0.74894   0.97335   0.50044   0.00000  Uiso   1.00
C567   C     0.74993   0.74998   0.35511   0.00000  Uiso   1.00
C568   C     0.75000   0.75010   0.64489   0.00000  Uiso   1.00
C569   C     0.54510   0.79048   0.47338   0.00000  Uiso   1.00
C570   C     0.94640   0.71468   0.45664   0.00000  Uiso   1.00
C571   C     0.95536   0.78720   0.50249   0.00000  Uiso   1.00
C572   C     0.83585   0.75004   0.49785   0.00000  Uiso   1.00
C573   C     0.54450   0.70775   0.48910   0.00000  Uiso   1.00
C574   C     0.59094   0.79193   0.48482   0.00000  Uiso   1.00
C575   C     0.90131   0.71380   0.46290   0.00000  Uiso   1.00
C576   C     0.91039   0.78808   0.50773   0.00000  Uiso   1.00
C577   C     0.59082   0.70763   0.49780   0.00000  Uiso   1.00
C578   C     0.61474   0.74994   0.49506   0.00000  Uiso   1.00
C579   C     0.88303   0.75024   0.49009   0.00000  Uiso   1.00
C580   C     0.52170   0.74904   0.47717   0.00000  Uiso   1.00
C581   C     0.97357   0.75066   0.47745   0.00000  Uiso   1.00
C582   C     0.72694   0.60093   0.46103   0.00000  Uiso   1.00
C583   C     0.77735   0.89902   0.53545   0.00000  Uiso   1.00
C584   C     0.77250   0.60111   0.53922   0.00000  Uiso   1.00
C585   C     0.72246   0.89835   0.46441   0.00000  Uiso   1.00
C586   C     0.72902   0.55195   0.46000   0.00000  Uiso   1.00
C587   C     0.77829   0.94797   0.53382   0.00000  Uiso   1.00
C588   C     0.76910   0.55224   0.54080   0.00000  Uiso   1.00
H589   H     0.52749   0.82268   0.46419   0.00000  Uiso   1.00
H590   H     0.83946   0.81408   0.62295   0.00000  Uiso   1.00
H591   H     0.84880   0.68370   0.61333   0.00000  Uiso   1.00
H592   H     0.65862   0.81321   0.37886   0.00000  Uiso   1.00
H593   H     0.60026   0.85504   0.51749   0.00000  Uiso   1.00
H594   H     0.60291   0.85483   0.45524   0.00000  Uiso   1.00
H595   H     0.84746   0.68997   0.41750   0.00000  Uiso   1.00
H596   H     0.86446   0.65490   0.46741   0.00000  Uiso   1.00
H597   H     0.89897   0.85713   0.51056   0.00000  Uiso   1.00
H598   H     0.91113   0.83155   0.56695   0.00000  Uiso   1.00
H599   H     0.60095   0.65251   0.54422   0.00000  Uiso   1.00
H600   H     0.96035   0.68684   0.43609   0.00000  Uiso   1.00
H601   H     0.60438   0.64045   0.48319   0.00000  Uiso   1.00
H602   H     0.97620   0.81498   0.51955   0.00000  Uiso   1.00
H603   H     0.52637   0.67577   0.49392   0.00000  Uiso   1.00
H604   H     0.71506   0.53407   0.42660   0.00000  Uiso   1.00
H605   H     0.80177   0.96604   0.56023   0.00000  Uiso   1.00
H606   H     0.78261   0.53467   0.57442   0.00000  Uiso   1.00
H607   H     0.69641   0.96488   0.44045   0.00000  Uiso   1.00
H608   H     0.65479   0.68426   0.38382   0.00000  Uiso   1.00
N609   N     0.75000   0.62623   0.50000   0.00000  Uiso   1.00
N610   N     0.75000   0.87376   0.50000   0.00000  Uiso   1.00
N611   N     0.61238   0.83660   0.48830   0.00000  Uiso   1.00
N612   N     0.87504   0.67635   0.43971   0.00000  Uiso   1.00
N613   N     0.89322   0.82761   0.53156   0.00000  Uiso   1.00
N614   N     0.61296   0.66475   0.51166   0.00000  Uiso   1.00
O615   O     0.68453   0.78974   0.50000   0.00000  Uiso   1.00
O616   O     0.66392   0.58948   0.38296   0.00000  Uiso   1.00
O617   O     0.66585   0.67240   0.41748   0.00000  Uiso   1.00
O618   O     0.84748   0.90657   0.60578   0.00000  Uiso   1.00
O619   O     0.77739   0.87803   0.63080   0.00000  Uiso   1.00
O620   O     0.82700   0.82137   0.58820   0.00000  Uiso   1.00
O621   O     0.77448   0.63999   0.62933   0.00000  Uiso   1.00
O622   O     0.83613   0.58906   0.61641   0.00000  Uiso   1.00
O623   O     0.83724   0.67093   0.58011   0.00000  Uiso   1.00
O624   O     0.66114   0.90731   0.38394   0.00000  Uiso   1.00
O625   O     0.73021   0.86710   0.37317   0.00000  Uiso   1.00
O626   O     0.81547   0.71026   0.50000   0.00000  Uiso   1.00
O627   O     0.66914   0.82294   0.41356   0.00000  Uiso   1.00
O628   O     0.81547   0.78974   0.50000   0.00000  Uiso   1.00
O629   O     0.68453   0.71026   0.50000   0.00000  Uiso   1.00
O630   O     0.75000   0.78973   0.42845   0.00000  Uiso   1.00
O631   O     0.75000   0.71027   0.57155   0.00000  Uiso   1.00
O632   O     0.75000   0.78973   0.57155   0.00000  Uiso   1.00
O633   O     0.75000   0.71027   0.42845   0.00000  Uiso   1.00
O634   O     0.72824   0.63729   0.37068   0.00000  Uiso   1.00
S635   S     0.69594   0.62528   0.40707   0.00000  Uiso   1.00
S636   S     0.80785   0.87577   0.59051   0.00000  Uiso   1.00
S637   S     0.80531   0.62558   0.59225   0.00000  Uiso   1.00
S638   S     0.69524   0.87381   0.40795   0.00000  Uiso   1.00
Zn639  Zn    0.75000   0.80307   0.50000   0.00000  Uiso   1.00
Zn640  Zn    0.75000   0.69693   0.50000   0.00000  Uiso   1.00
C641   C     0.16369   0.24997   0.83325   0.00000  Uiso   1.00
C642   C     0.22015   0.44728   0.80004   0.00000  Uiso   1.00
C643   C     0.24984   0.24996   0.73961   0.00000  Uiso   1.00
C644   C     0.25007   0.25004   0.92705   0.00000  Uiso   1.00
C645   C     0.24886   0.02633   0.83381   0.00000  Uiso   1.00
C646   C     0.24894   0.47335   0.83377   0.00000  Uiso   1.00
C647   C     0.24993   0.24998   0.68844   0.00000  Uiso   1.00
C648   C     0.25000   0.25010   0.97823   0.00000  Uiso   1.00
C649   C     0.04510   0.29048   0.80672   0.00000  Uiso   1.00
C650   C     0.44640   0.21468   0.78998   0.00000  Uiso   1.00
C651   C     0.45536   0.28720   0.83582   0.00000  Uiso   1.00
C652   C     0.33585   0.25004   0.83118   0.00000  Uiso   1.00
C653   C     0.04450   0.20775   0.82244   0.00000  Uiso   1.00
C654   C     0.09094   0.29193   0.81815   0.00000  Uiso   1.00
C655   C     0.40131   0.21380   0.79623   0.00000  Uiso   1.00
C656   C     0.41039   0.28808   0.84107   0.00000  Uiso   1.00
C657   C     0.09082   0.20763   0.83114   0.00000  Uiso   1.00
C658   C     0.11474   0.24994   0.82839   0.00000  Uiso   1.00
C659   C     0.38303   0.25024   0.82342   0.00000  Uiso   1.00
C660   C     0.02170   0.24904   0.81051   0.00000  Uiso   1.00
C661   C     0.47357   0.25066   0.81078   0.00000  Uiso   1.00
C662   C     0.22694   0.10093   0.79436   0.00000  Uiso   1.00
C663   C     0.27735   0.39902   0.86878   0.00000  Uiso   1.00
C664   C     0.27250   0.10111   0.87255   0.00000  Uiso   1.00
C665   C     0.22246   0.39835   0.79774   0.00000  Uiso   1.00
C666   C     0.22902   0.05195   0.79333   0.00000  Uiso   1.00
C667   C     0.27829   0.44797   0.86715   0.00000  Uiso   1.00
C668   C     0.26910   0.05224   0.87414   0.00000  Uiso   1.00
H669   H     0.02749   0.32268   0.79753   0.00000  Uiso   1.00
H670   H     0.33946   0.31408   0.95629   0.00000  Uiso   1.00
H671   H     0.34880   0.18370   0.94666   0.00000  Uiso   1.00
H672   H     0.15862   0.31321   0.71220   0.00000  Uiso   1.00
H673   H     0.10026   0.35504   0.85082   0.00000  Uiso   1.00
H674   H     0.10291   0.35483   0.78857   0.00000  Uiso   1.00
H675   H     0.34746   0.18997   0.75084   0.00000  Uiso   1.00
H676   H     0.36446   0.15490   0.80074   0.00000  Uiso   1.00
H677   H     0.39897   0.35713   0.84390   0.00000  Uiso   1.00
H678   H     0.41113   0.33155   0.90029   0.00000  Uiso   1.00
H679   H     0.10095   0.15251   0.87756   0.00000  Uiso   1.00
H680   H     0.46035   0.18684   0.76942   0.00000  Uiso   1.00
H681   H     0.10438   0.14045   0.81652   0.00000  Uiso   1.00
H682   H     0.47620   0.31498   0.85289   0.00000  Uiso   1.00
H683   H     0.02637   0.17577   0.82725   0.00000  Uiso   1.00
H684   H     0.21506   0.03407   0.75993   0.00000  Uiso   1.00
H685   H     0.30177   0.46604   0.89357   0.00000  Uiso   1.00
H686   H     0.28261   0.03467   0.90775   0.00000  Uiso   1.00
H687   H     0.19641   0.46488   0.77378   0.00000  Uiso   1.00
H688   H     0.15479   0.18426   0.71716   0.00000  Uiso   1.00
N689   N     0.25000   0.12623   0.83333   0.00000  Uiso   1.00
N690   N     0.25000   0.37376   0.83333   0.00000  Uiso   1.00
N691   N     0.11238   0.33660   0.82164   0.00000  Uiso   1.00
N692   N     0.37504   0.17635   0.77304   0.00000  Uiso   1.00
N693   N     0.39322   0.32761   0.86490   0.00000  Uiso   1.00
N694   N     0.11296   0.16475   0.84500   0.00000  Uiso   1.00
O695   O     0.18453   0.28974   0.83334   0.00000  Uiso   1.00
O696   O     0.16392   0.08948   0.71629   0.00000  Uiso   1.00
O697   O     0.16585   0.17240   0.75081   0.00000  Uiso   1.00
O698   O     0.34748   0.40657   0.93912   0.00000  Uiso   1.00
O699   O     0.27739   0.37803   0.96413   0.00000  Uiso   1.00
O700   O     0.32700   0.32137   0.92153   0.00000  Uiso   1.00
O701   O     0.27448   0.13999   0.96266   0.00000  Uiso   1.00
O702   O     0.33613   0.08906   0.94974   0.00000  Uiso   1.00
O703   O     0.33724   0.17093   0.91345   0.00000  Uiso   1.00
O704   O     0.16114   0.40731   0.71727   0.00000  Uiso   1.00
O705   O     0.23021   0.36710   0.70650   0.00000  Uiso   1.00
O706   O     0.31547   0.21026   0.83333   0.00000  Uiso   1.00
O707   O     0.16914   0.32294   0.74690   0.00000  Uiso   1.00
O708   O     0.31547   0.28974   0.83333   0.00000  Uiso   1.00
O709   O     0.18453   0.21026   0.83334   0.00000  Uiso   1.00
O710   O     0.25000   0.28973   0.76178   0.00000  Uiso   1.00
O711   O     0.25000   0.21027   0.90489   0.00000  Uiso   1.00
O712   O     0.25000   0.28973   0.90489   0.00000  Uiso   1.00
O713   O     0.25000   0.21027   0.76178   0.00000  Uiso   1.00
O714   O     0.22824   0.13729   0.70402   0.00000  Uiso   1.00
S715   S     0.19594   0.12528   0.74040   0.00000  Uiso   1.00
S716   S     0.30785   0.37577   0.92384   0.00000  Uiso   1.00
S717   S     0.30531   0.12558   0.92558   0.00000  Uiso   1.00
S718   S     0.19524   0.37381   0.74129   0.00000  Uiso   1.00
Zn719  Zn    0.25000   0.30307   0.83333   0.00000  Uiso   1.00
Zn720  Zn    0.25000   0.19693   0.83333   0.00000  Uiso   1.00
C721   C     0.66369   0.24997   0.83325   0.00000  Uiso   1.00
C722   C     0.72015   0.44728   0.80004   0.00000  Uiso   1.00
C723   C     0.74984   0.24996   0.73961   0.00000  Uiso   1.00
C724   C     0.75007   0.25004   0.92705   0.00000  Uiso   1.00
C725   C     0.74886   0.02633   0.83381   0.00000  Uiso   1.00
C726   C     0.74894   0.47335   0.83377   0.00000  Uiso   1.00
C727   C     0.74993   0.24998   0.68844   0.00000  Uiso   1.00
C728   C     0.75000   0.25010   0.97823   0.00000  Uiso   1.00
C729   C     0.54510   0.29048   0.80672   0.00000  Uiso   1.00
C730   C     0.94640   0.21468   0.78998   0.00000  Uiso   1.00
C731   C     0.95536   0.28720   0.83582   0.00000  Uiso   1.00
C732   C     0.83585   0.25004   0.83118   0.00000  Uiso   1.00
C733   C     0.54450   0.20775   0.82244   0.00000  Uiso   1.00
C734   C     0.59094   0.29193   0.81815   0.00000  Uiso   1.00
C735   C     0.90131   0.21380   0.79623   0.00000  Uiso   1.00
C736   C     0.91039   0.28808   0.84107   0.00000  Uiso   1.00
C737   C     0.59082   0.20763   0.83114   0.00000  Uiso   1.00
C738   C     0.61474   0.24994   0.82839   0.00000  Uiso   1.00
C739   C     0.88303   0.25024   0.82342   0.00000  Uiso   1.00
C740   C     0.52170   0.24904   0.81051   0.00000  Uiso   1.00
C741   C     0.97357   0.25066   0.81078   0.00000  Uiso   1.00
C742   C     0.72694   0.10093   0.79436   0.00000  Uiso   1.00
C743   C     0.77735   0.39902   0.86878   0.00000  Uiso   1.00
C744   C     0.77250   0.10111   0.87255   0.00000  Uiso   1.00
C745   C     0.72246   0.39835   0.79774   0.00000  Uiso   1.00
C746   C     0.72902   0.05195   0.79333   0.00000  Uiso   1.00
C747   C     0.77829   0.44797   0.86715   0.00000  Uiso   1.00
C748   C     0.76910   0.05224   0.87414   0.00000  Uiso   1.00
H749   H     0.52749   0.32268   0.79753   0.00000  Uiso   1.00
H750   H     0.83946   0.31408   0.95629   0.00000  Uiso   1.00
H751   H     0.84880   0.18370   0.94666   0.00000  Uiso   1.00
H752   H     0.65862   0.31321   0.71220   0.00000  Uiso   1.00
H753   H     0.60026   0.35504   0.85082   0.00000  Uiso   1.00
H754   H     0.60291   0.35483   0.78857   0.00000  Uiso   1.00
H755   H     0.84746   0.18997   0.75084   0.00000  Uiso   1.00
H756   H     0.86446   0.15490   0.80074   0.00000  Uiso   1.00
H757   H     0.89897   0.35713   0.84390   0.00000  Uiso   1.00
H758   H     0.91113   0.33155   0.90029   0.00000  Uiso   1.00
H759   H     0.60095   0.15251   0.87756   0.00000  Uiso   1.00
H760   H     0.96035   0.18684   0.76942   0.00000  Uiso   1.00
H761   H     0.60438   0.14045   0.81652   0.00000  Uiso   1.00
H762   H     0.97620   0.31498   0.85289   0.00000  Uiso   1.00
H763   H     0.52637   0.17577   0.82725   0.00000  Uiso   1.00
H764   H     0.71506   0.03407   0.75993   0.00000  Uiso   1.00
H765   H     0.80177   0.46604   0.89357   0.00000  Uiso   1.00
H766   H     0.78261   0.03467   0.90775   0.00000  Uiso   1.00
H767   H     0.69641   0.46488   0.77378   0.00000  Uiso   1.00
H768   H     0.65479   0.18426   0.71716   0.00000  Uiso   1.00
N769   N     0.75000   0.12623   0.83333   0.00000  Uiso   1.00
N770   N     0.75000   0.37376   0.83333   0.00000  Uiso   1.00
N771   N     0.61238   0.33660   0.82164   0.00000  Uiso   1.00
N772   N     0.87504   0.17635   0.77304   0.00000  Uiso   1.00
N773   N     0.89322   0.32761   0.86490   0.00000  Uiso   1.00
N774   N     0.61296   0.16475   0.84500   0.00000  Uiso   1.00
O775   O     0.68453   0.28974   0.83334   0.00000  Uiso   1.00
O776   O     0.66392   0.08948   0.71629   0.00000  Uiso   1.00
O777   O     0.66585   0.17240   0.75081   0.00000  Uiso   1.00
O778   O     0.84748   0.40657   0.93912   0.00000  Uiso   1.00
O779   O     0.77739   0.37803   0.96413   0.00000  Uiso   1.00
O780   O     0.82700   0.32137   0.92153   0.00000  Uiso   1.00
O781   O     0.77448   0.13999   0.96266   0.00000  Uiso   1.00
O782   O     0.83613   0.08906   0.94974   0.00000  Uiso   1.00
O783   O     0.83724   0.17093   0.91345   0.00000  Uiso   1.00
O784   O     0.66114   0.40731   0.71727   0.00000  Uiso   1.00
O785   O     0.73021   0.36710   0.70650   0.00000  Uiso   1.00
O786   O     0.81547   0.21026   0.83333   0.00000  Uiso   1.00
O787   O     0.66914   0.32294   0.74690   0.00000  Uiso   1.00
O788   O     0.81547   0.28974   0.83333   0.00000  Uiso   1.00
O789   O     0.68453   0.21026   0.83334   0.00000  Uiso   1.00
O790   O     0.75000   0.28973   0.76178   0.00000  Uiso   1.00
O791   O     0.75000   0.21027   0.90489   0.00000  Uiso   1.00
O792   O     0.75000   0.28973   0.90489   0.00000  Uiso   1.00
O793   O     0.75000   0.21027   0.76178   0.00000  Uiso   1.00
O794   O     0.72824   0.13729   0.70402   0.00000  Uiso   1.00
S795   S     0.69594   0.12528   0.74040   0.00000  Uiso   1.00
S796   S     0.80785   0.37577   0.92384   0.00000  Uiso   1.00
S797   S     0.80531   0.12558   0.92558   0.00000  Uiso   1.00
S798   S     0.69524   0.37381   0.74129   0.00000  Uiso   1.00
Zn799  Zn    0.75000   0.30307   0.83333   0.00000  Uiso   1.00
Zn800  Zn    0.75000   0.19693   0.83333   0.00000  Uiso   1.00
C801   C     0.16369   0.74997   0.83325   0.00000  Uiso   1.00
C802   C     0.22015   0.94728   0.80004   0.00000  Uiso   1.00
C803   C     0.24984   0.74996   0.73961   0.00000  Uiso   1.00
C804   C     0.25007   0.75004   0.92705   0.00000  Uiso   1.00
C805   C     0.24886   0.52633   0.83381   0.00000  Uiso   1.00
C806   C     0.24894   0.97335   0.83377   0.00000  Uiso   1.00
C807   C     0.24993   0.74998   0.68844   0.00000  Uiso   1.00
C808   C     0.25000   0.75010   0.97823   0.00000  Uiso   1.00
C809   C     0.04510   0.79048   0.80672   0.00000  Uiso   1.00
C810   C     0.44640   0.71468   0.78998   0.00000  Uiso   1.00
C811   C     0.45536   0.78720   0.83582   0.00000  Uiso   1.00
C812   C     0.33585   0.75004   0.83118   0.00000  Uiso   1.00
C813   C     0.04450   0.70775   0.82244   0.00000  Uiso   1.00
C814   C     0.09094   0.79193   0.81815   0.00000  Uiso   1.00
C815   C     0.40131   0.71380   0.79623   0.00000  Uiso   1.00
C816   C     0.41039   0.78808   0.84107   0.00000  Uiso   1.00
C817   C     0.09082   0.70763   0.83114   0.00000  Uiso   1.00
C818   C     0.11474   0.74994   0.82839   0.00000  Uiso   1.00
C819   C     0.38303   0.75024   0.82342   0.00000  Uiso   1.00
C820   C     0.02170   0.74904   0.81051   0.00000  Uiso   1.00
C821   C     0.47357   0.75066   0.81078   0.00000  Uiso   1.00
C822   C     0.22694   0.60093   0.79436   0.00000  Uiso   1.00
C823   C     0.27735   0.89902   0.86878   0.00000  Uiso   1.00
C824   C     0.27250   0.60111   0.87255   0.00000  Uiso   1.00
C825   C     0.22246   0.89835   0.79774   0.00000  Uiso   1.00
C826   C     0.22902   0.55195   0.79333   0.00000  Uiso   1.00
C827   C     0.27829   0.94797   0.86715   0.00000  Uiso   1.00
C828   C     0.26910   0.55224   0.87414   0.00000  Uiso   1.00
H829   H     0.02749   0.82268   0.79753   0.00000  Uiso   1.00
H830   H     0.33946   0.81408   0.95629   0.00000  Uiso   1.00
H831   H     0.34880   0.68370   0.94666   0.00000  Uiso   1.00
H832   H     0.15862   0.81321   0.71220   0.00000  Uiso   1.00
H833   H     0.10026   0.85504   0.85082   0.00000  Uiso   1.00
H834   H     0.10291   0.85483   0.78857   0.00000  Uiso   1.00
H835   H     0.34746   0.68997   0.75084   0.00000  Uiso   1.00
H836   H     0.36446   0.65490   0.80074   0.00000  Uiso   1.00
H837   H     0.39897   0.85713   0.84390   0.00000  Uiso   1.00
H838   H     0.41113   0.83155   0.90029   0.00000  Uiso   1.00
H839   H     0.10095   0.65251   0.87756   0.00000  Uiso   1.00
H840   H     0.46035   0.68684   0.76942   0.00000  Uiso   1.00
H841   H     0.10438   0.64045   0.81652   0.00000  Uiso   1.00
H842   H     0.47620   0.81498   0.85289   0.00000  Uiso   1.00
H843   H     0.02637   0.67577   0.82725   0.00000  Uiso   1.00
H844   H     0.21506   0.53407   0.75993   0.00000  Uiso   1.00
H845   H     0.30177   0.96604   0.89357   0.00000  Uiso   1.00
H846   H     0.28261   0.53467   0.90775   0.00000  Uiso   1.00
H847   H     0.19641   0.96488   0.77378   0.00000  Uiso   1.00
H848   H     0.15479   0.68426   0.71716   0.00000  Uiso   1.00
N849   N     0.25000   0.62623   0.83333   0.00000  Uiso   1.00
N850   N     0.25000   0.87376   0.83333   0.00000  Uiso   1.00
N851   N     0.11238   0.83660   0.82164   0.00000  Uiso   1.00
N852   N     0.37504   0.67635   0.77304   0.00000  Uiso   1.00
N853   N     0.39322   0.82761   0.86490   0.00000  Uiso   1.00
N854   N     0.11296   0.66475   0.84500   0.00000  Uiso   1.00
O855   O     0.18453   0.78974   0.83334   0.00000  Uiso   1.00
O856   O     0.16392   0.58948   0.71629   0.00000  Uiso   1.00
O857   O     0.16585   0.67240   0.75081   0.00000  Uiso   1.00
O858   O     0.34748   0.90657   0.93912   0.00000  Uiso   1.00
O859   O     0.27739   0.87803   0.96413   0.00000  Uiso   1.00
O860   O     0.32700   0.82137   0.92153   0.00000  Uiso   1.00
O861   O     0.27448   0.63999   0.96266   0.00000  Uiso   1.00
O862   O     0.33613   0.58906   0.94974   0.00000  Uiso   1.00
O863   O     0.33724   0.67093   0.91345   0.00000  Uiso   1.00
O864   O     0.16114   0.90731   0.71727   0.00000  Uiso   1.00
O865   O     0.23021   0.86710   0.70650   0.00000  Uiso   1.00
O866   O     0.31547   0.71026   0.83333   0.00000  Uiso   1.00
O867   O     0.16914   0.82294   0.74690   0.00000  Uiso   1.00
O868   O     0.31547   0.78974   0.83333   0.00000  Uiso   1.00
O869   O     0.18453   0.71026   0.83334   0.00000  Uiso   1.00
O870   O     0.25000   0.78973   0.76178   0.00000  Uiso   1.00
O871   O     0.25000   0.71027   0.90489   0.00000  Uiso   1.00
O872   O     0.25000   0.78973   0.90489   0.00000  Uiso   1.00
O873   O     0.25000   0.71027   0.76178   0.00000  Uiso   1.00
O874   O     0.22824   0.63729   0.70402   0.00000  Uiso   1.00
S875   S     0.19594   0.62528   0.74040   0.00000  Uiso   1.00
S876   S     0.30785   0.87577   0.92384   0.00000  Uiso   1.00
S877   S     0.30531   0.62558   0.92558   0.00000  Uiso   1.00
S878   S     0.19524   0.87381   0.74129   0.00000  Uiso   1.00
Zn879  Zn    0.25000   0.80307   0.83333   0.00000  Uiso   1.00
Zn880  Zn    0.25000   0.69693   0.83333   0.00000  Uiso   1.00
C881   C     0.66369   0.74997   0.83325   0.00000  Uiso   1.00
C882   C     0.72015   0.94728   0.80004   0.00000  Uiso   1.00
C883   C     0.74984   0.74996   0.73961   0.00000  Uiso   1.00
C884   C     0.75007   0.75004   0.92705   0.00000  Uiso   1.00
C885   C     0.74886   0.52633   0.83381   0.00000  Uiso   1.00
C886   C     0.74894   0.97335   0.83377   0.00000  Uiso   1.00
C887   C     0.74993   0.74998   0.68844   0.00000  Uiso   1.00
C888   C     0.75000   0.75010   0.97823   0.00000  Uiso   1.00
C889   C     0.54510   0.79048   0.80672   0.00000  Uiso   1.00
C890   C     0.94640   0.71468   0.78998   0.00000  Uiso   1.00
C891   C     0.95536   0.78720   0.83582   0.00000  Uiso   1.00
C892   C     0.83585   0.75004   0.83118   0.00000  Uiso   1.00
C893   C     0.54450   0.70775   0.82244   0.00000  Uiso   1.00
C894   C     0.59094   0.79193   0.81815   0.00000  Uiso   1.00
C895   C     0.90131   0.71380   0.79623   0.00000  Uiso   1.00
C896   C     0.91039   0.78808   0.84107   0.00000  Uiso   1.00
C897   C     0.59082   0.70763   0.83114   0.00000  Uiso   1.00
C898   C     0.61474   0.74994   0.82839   0.00000  Uiso   1.00
C899   C     0.88303   0.75024   0.82342   0.00000  Uiso   1.00
C900   C     0.52170   0.74904   0.81051   0.00000  Uiso   1.00
C901   C     0.97357   0.75066   0.81078   0.00000  Uiso   1.00
C902   C     0.72694   0.60093   0.79436   0.00000  Uiso   1.00
C903   C     0.77735   0.89902   0.86878   0.00000  Uiso   1.00
C904   C     0.77250   0.60111   0.87255   0.00000  Uiso   1.00
C905   C     0.72246   0.89835   0.79774   0.00000  Uiso   1.00
C906   C     0.72902   0.55195   0.79333   0.00000  Uiso   1.00
C907   C     0.77829   0.94797   0.86715   0.00000  Uiso   1.00
C908   C     0.76910   0.55224   0.87414   0.00000  Uiso   1.00
H909   H     0.52749   0.82268   0.79753   0.00000  Uiso   1.00
H910   H     0.83946   0.81408   0.95629   0.00000  Uiso   1.00
H911   H     0.84880   0.68370   0.94666   0.00000  Uiso   1.00
H912   H     0.65862   0.81321   0.71220   0.00000  Uiso   1.00
H913   H     0.60026   0.85504   0.85082   0.00000  Uiso   1.00
H914   H     0.60291   0.85483   0.78857   0.00000  Uiso   1.00
H915   H     0.84746   0.68997   0.75084   0.00000  Uiso   1.00
H916   H     0.86446   0.65490   0.80074   0.00000  Uiso   1.00
H917   H     0.89897   0.85713   0.84390   0.00000  Uiso   1.00
H918   H     0.91113   0.83155   0.90029   0.00000  Uiso   1.00
H919   H     0.60095   0.65251   0.87756   0.00000  Uiso   1.00
H920   H     0.96035   0.68684   0.76942   0.00000  Uiso   1.00
H921   H     0.60438   0.64045   0.81652   0.00000  Uiso   1.00
H922   H     0.97620   0.81498   0.85289   0.00000  Uiso   1.00
H923   H     0.52637   0.67577   0.82725   0.00000  Uiso   1.00
H924   H     0.71506   0.53407   0.75993   0.00000  Uiso   1.00
H925   H     0.80177   0.96604   0.89357   0.00000  Uiso   1.00
H926   H     0.78261   0.53467   0.90775   0.00000  Uiso   1.00
H927   H     0.69641   0.96488   0.77378   0.00000  Uiso   1.00
H928   H     0.65479   0.68426   0.71716   0.00000  Uiso   1.00
N929   N     0.75000   0.62623   0.83333   0.00000  Uiso   1.00
N930   N     0.75000   0.87376   0.83333   0.00000  Uiso   1.00
N931   N     0.61238   0.83660   0.82164   0.00000  Uiso   1.00
N932   N     0.87504   0.67635   0.77304   0.00000  Uiso   1.00
N933   N     0.89322   0.82761   0.86490   0.00000  Uiso   1.00
N934   N     0.61296   0.66475   0.84500   0.00000  Uiso   1.00
O935   O     0.68453   0.78974   0.83334   0.00000  Uiso   1.00
O936   O     0.66392   0.58948   0.71629   0.00000  Uiso   1.00
O937   O     0.66585   0.67240   0.75081   0.00000  Uiso   1.00
O938   O     0.84748   0.90657   0.93912   0.00000  Uiso   1.00
O939   O     0.77739   0.87803   0.96413   0.00000  Uiso   1.00
O940   O     0.82700   0.82137   0.92153   0.00000  Uiso   1.00
O941   O     0.77448   0.63999   0.96266   0.00000  Uiso   1.00
O942   O     0.83613   0.58906   0.94974   0.00000  Uiso   1.00
O943   O     0.83724   0.67093   0.91345   0.00000  Uiso   1.00
O944   O     0.66114   0.90731   0.71727   0.00000  Uiso   1.00
O945   O     0.73021   0.86710   0.70650   0.00000  Uiso   1.00
O946   O     0.81547   0.71026   0.83333   0.00000  Uiso   1.00
O947   O     0.66914   0.82294   0.74690   0.00000  Uiso   1.00
O948   O     0.81547   0.78974   0.83333   0.00000  Uiso   1.00
O949   O     0.68453   0.71026   0.83334   0.00000  Uiso   1.00
O950   O     0.75000   0.78973   0.76178   0.00000  Uiso   1.00
O951   O     0.75000   0.71027   0.90489   0.00000  Uiso   1.00
O952   O     0.75000   0.78973   0.90489   0.00000  Uiso   1.00
O953   O     0.75000   0.71027   0.76178   0.00000  Uiso   1.00
O954   O     0.72824   0.63729   0.70402   0.00000  Uiso   1.00
S955   S     0.69594   0.62528   0.74040   0.00000  Uiso   1.00
S956   S     0.80785   0.87577   0.92384   0.00000  Uiso   1.00
S957   S     0.80531   0.62558   0.92558   0.00000  Uiso   1.00
S958   S     0.69524   0.87381   0.74129   0.00000  Uiso   1.00
Zn959  Zn    0.75000   0.80307   0.83333   0.00000  Uiso   1.00
Zn960  Zn    0.75000   0.69693   0.83333   0.00000  Uiso   1.00
loop_
_geom_bond_atom_site_label_1
_geom_bond_atom_site_label_2
_geom_bond_distance
_geom_bond_site_symmetry_2
_ccdc_geom_bond_type
C1     C18     1.466   .     S
C1     O69     1.305   .     A
C1     O55     1.303   .     A
C2     C6      1.398   .     A
C2     H47     1.076   .     S
C2     C25     1.411   .     A
C3     C7      1.376   .     S
C3     O70     1.288   .     A
C3     O73     1.289   .     A
C4     O72     1.289   .     A
C4     C8      1.376   .     S
C4     O71     1.288   .     A
C5     C28     1.396   .     A
C5     C26     1.395   .     A
C5     C166    1.524   1_545 S
C6     C27     1.397   .     A
C6     C165    1.524   .     S
C7     C648    1.171   1_554 S
C8     C327    1.171   .     S
C9     H29     1.084   .     S
C9     C14     1.382   .     A
C9     C20     1.393   .     A
C10    C15     1.388   .     A
C10    H40     1.084   .     S
C10    C21     1.394   .     A
C11    H42     1.084   .     S
C11    C21     1.393   .     A
C11    C16     1.379   .     A
C12    O68     1.302   .     A
C12    O66     1.301   .     A
C12    C19     1.460   .     S
C13    H43     1.084   .     S
C13    C20     1.394   .     A
C13    C17     1.390   .     A
C14    C18     1.418   .     A
C14    N51     1.434   .     S
C15    C19     1.423   .     A
C15    N52     1.434   .     S
C16    N53     1.430   .     S
C16    C19     1.412   .     A
C17    C18     1.419   .     A
C17    N54     1.434   .     S
C20    C101    1.452   1_455 S
C21    C100    1.452   .     S
C22    S75     1.782   .     S
C22    N49     1.393   .     A
C22    C26     1.411   .     A
C23    S76     1.786   .     S
C23    C27     1.409   .     A
C23    N50     1.390   .     A
C24    N49     1.393   .     A
C24    C28     1.410   .     A
C24    S77     1.784   .     S
C25    N50     1.391   .     A
C25    S78     1.786   .     S
C26    H44     1.077   .     S
C27    H45     1.077   .     S
C28    H46     1.077   .     S
H30    O60     0.991   .     S
H31    O63     0.991   .     S
H32    O67     0.991   .     S
H33    N51     1.046   .     S
H34    N51     1.046   .     S
H35    N52     1.046   .     S
H36    N52     1.045   .     S
H37    N53     1.046   .     S
H38    N53     1.046   .     S
H39    N54     1.046   .     S
H41    N54     1.046   .     S
H48    O57     0.991   .     S
N49    Zn80    2.033   .     S
N50    Zn79    2.033   .     S
O55    Zn79    2.009   .     S
O56    S75     1.504   .     D
O57    S75     1.673   .     S
O58    S76     1.504   .     D
O59    S76     1.498   .     D
O60    S76     1.672   .     S
O61    S77     1.496   .     D
O62    S77     1.504   .     D
O63    S77     1.673   .     S
O64    S78     1.504   .     D
O65    S78     1.498   .     D
O66    Zn80    2.009   .     S
O67    S78     1.674   .     S
O68    Zn79    2.011   .     S
O69    Zn80    2.011   .     S
O70    Zn79    1.961   .     S
O71    Zn80    1.961   .     S
O72    Zn79    1.963   .     S
O73    Zn80    1.963   .     S
O74    S75     1.496   .     D
C81    C98     1.466   .     S
C81    O149    1.305   .     A
C81    O135    1.303   .     A
C82    C86     1.398   .     A
C82    H127    1.076   .     S
C82    C105    1.411   .     A
C83    C87     1.376   .     S
C83    O150    1.288   .     A
C83    O153    1.289   .     A
C84    O152    1.289   .     A
C84    C88     1.376   .     S
C84    O151    1.288   .     A
C85    C108    1.396   .     A
C85    C106    1.395   .     A
C85    C246    1.524   1_545 S
C86    C107    1.397   .     A
C86    C245    1.524   .     S
C87    C728    1.171   1_554 S
C88    C407    1.171   .     S
C89    H109    1.084   .     S
C89    C94     1.382   .     A
C89    C100    1.393   .     A
C90    C95     1.388   .     A
C90    H120    1.084   .     S
C90    C101    1.394   .     A
C91    H122    1.084   .     S
C91    C101    1.393   .     A
C91    C96     1.379   .     A
C92    O148    1.302   .     A
C92    O146    1.301   .     A
C92    C99     1.460   .     S
C93    H123    1.084   .     S
C93    C100    1.394   .     A
C93    C97     1.390   .     A
C94    C98     1.418   .     A
C94    N131    1.434   .     S
C95    C99     1.423   .     A
C95    N132    1.434   .     S
C96    N133    1.430   .     S
C96    C99     1.412   .     A
C97    C98     1.419   .     A
C97    N134    1.434   .     S
C101   C20     1.452   1_655 S
C102   S155    1.782   .     S
C102   N129    1.393   .     A
C102   C106    1.411   .     A
C103   S156    1.786   .     S
C103   C107    1.409   .     A
C103   N130    1.390   .     A
C104   N129    1.393   .     A
C104   C108    1.410   .     A
C104   S157    1.784   .     S
C105   N130    1.391   .     A
C105   S158    1.786   .     S
C106   H124    1.077   .     S
C107   H125    1.077   .     S
C108   H126    1.077   .     S
H110   O140    0.991   .     S
H111   O143    0.991   .     S
H112   O147    0.991   .     S
H113   N131    1.046   .     S
H114   N131    1.046   .     S
H115   N132    1.046   .     S
H116   N132    1.045   .     S
H117   N133    1.046   .     S
H118   N133    1.046   .     S
H119   N134    1.046   .     S
H121   N134    1.046   .     S
H128   O137    0.991   .     S
N129   Zn160   2.033   .     S
N130   Zn159   2.033   .     S
O135   Zn159   2.009   .     S
O136   S155    1.504   .     D
O137   S155    1.673   .     S
O138   S156    1.504   .     D
O139   S156    1.498   .     D
O140   S156    1.672   .     S
O141   S157    1.496   .     D
O142   S157    1.504   .     D
O143   S157    1.673   .     S
O144   S158    1.504   .     D
O145   S158    1.498   .     D
O146   Zn160   2.009   .     S
O147   S158    1.674   .     S
O148   Zn159   2.011   .     S
O149   Zn160   2.011   .     S
O150   Zn159   1.961   .     S
O151   Zn160   1.961   .     S
O152   Zn159   1.963   .     S
O153   Zn160   1.963   .     S
O154   S155    1.496   .     D
C161   C178    1.466   .     S
C161   O229    1.305   .     A
C161   O215    1.303   .     A
C162   C166    1.398   .     A
C162   H207    1.076   .     S
C162   C185    1.411   .     A
C163   C167    1.376   .     S
C163   O230    1.288   .     A
C163   O233    1.289   .     A
C164   O232    1.289   .     A
C164   C168    1.376   .     S
C164   O231    1.288   .     A
C165   C188    1.396   .     A
C165   C186    1.395   .     A
C166   C187    1.397   .     A
C166   C5      1.524   1_565 S
C167   C808    1.171   1_554 S
C168   C487    1.171   .     S
C169   H189    1.084   .     S
C169   C174    1.382   .     A
C169   C180    1.393   .     A
C170   C175    1.388   .     A
C170   H200    1.084   .     S
C170   C181    1.394   .     A
C171   H202    1.084   .     S
C171   C181    1.393   .     A
C171   C176    1.379   .     A
C172   O228    1.302   .     A
C172   O226    1.301   .     A
C172   C179    1.460   .     S
C173   H203    1.084   .     S
C173   C180    1.394   .     A
C173   C177    1.390   .     A
C174   C178    1.418   .     A
C174   N211    1.434   .     S
C175   C179    1.423   .     A
C175   N212    1.434   .     S
C176   N213    1.430   .     S
C176   C179    1.412   .     A
C177   C178    1.419   .     A
C177   N214    1.434   .     S
C180   C261    1.452   1_455 S
C181   C260    1.452   .     S
C182   S235    1.782   .     S
C182   N209    1.393   .     A
C182   C186    1.411   .     A
C183   S236    1.786   .     S
C183   C187    1.409   .     A
C183   N210    1.390   .     A
C184   N209    1.393   .     A
C184   C188    1.410   .     A
C184   S237    1.784   .     S
C185   N210    1.391   .     A
C185   S238    1.786   .     S
C186   H204    1.077   .     S
C187   H205    1.077   .     S
C188   H206    1.077   .     S
H190   O220    0.991   .     S
H191   O223    0.991   .     S
H192   O227    0.991   .     S
H193   N211    1.046   .     S
H194   N211    1.046   .     S
H195   N212    1.046   .     S
H196   N212    1.045   .     S
H197   N213    1.046   .     S
H198   N213    1.046   .     S
H199   N214    1.046   .     S
H201   N214    1.046   .     S
H208   O217    0.991   .     S
N209   Zn240   2.033   .     S
N210   Zn239   2.033   .     S
O215   Zn239   2.009   .     S
O216   S235    1.504   .     D
O217   S235    1.673   .     S
O218   S236    1.504   .     D
O219   S236    1.498   .     D
O220   S236    1.672   .     S
O221   S237    1.496   .     D
O222   S237    1.504   .     D
O223   S237    1.673   .     S
O224   S238    1.504   .     D
O225   S238    1.498   .     D
O226   Zn240   2.009   .     S
O227   S238    1.674   .     S
O228   Zn239   2.011   .     S
O229   Zn240   2.011   .     S
O230   Zn239   1.961   .     S
O231   Zn240   1.961   .     S
O232   Zn239   1.963   .     S
O233   Zn240   1.963   .     S
O234   S235    1.496   .     D
C241   C258    1.466   .     S
C241   O309    1.305   .     A
C241   O295    1.303   .     A
C242   C246    1.398   .     A
C242   H287    1.076   .     S
C242   C265    1.411   .     A
C243   C247    1.376   .     S
C243   O310    1.288   .     A
C243   O313    1.289   .     A
C244   O312    1.289   .     A
C244   C248    1.376   .     S
C244   O311    1.288   .     A
C245   C268    1.396   .     A
C245   C266    1.395   .     A
C246   C267    1.397   .     A
C246   C85     1.524   1_565 S
C247   C888    1.171   1_554 S
C248   C567    1.171   .     S
C249   H269    1.084   .     S
C249   C254    1.382   .     A
C249   C260    1.393   .     A
C250   C255    1.388   .     A
C250   H280    1.084   .     S
C250   C261    1.394   .     A
C251   H282    1.084   .     S
C251   C261    1.393   .     A
C251   C256    1.379   .     A
C252   O308    1.302   .     A
C252   O306    1.301   .     A
C252   C259    1.460   .     S
C253   H283    1.084   .     S
C253   C260    1.394   .     A
C253   C257    1.390   .     A
C254   C258    1.418   .     A
C254   N291    1.434   .     S
C255   C259    1.423   .     A
C255   N292    1.434   .     S
C256   N293    1.430   .     S
C256   C259    1.412   .     A
C257   C258    1.419   .     A
C257   N294    1.434   .     S
C261   C180    1.452   1_655 S
C262   S315    1.782   .     S
C262   N289    1.393   .     A
C262   C266    1.411   .     A
C263   S316    1.786   .     S
C263   C267    1.409   .     A
C263   N290    1.390   .     A
C264   N289    1.393   .     A
C264   C268    1.410   .     A
C264   S317    1.784   .     S
C265   N290    1.391   .     A
C265   S318    1.786   .     S
C266   H284    1.077   .     S
C267   H285    1.077   .     S
C268   H286    1.077   .     S
H270   O300    0.991   .     S
H271   O303    0.991   .     S
H272   O307    0.991   .     S
H273   N291    1.046   .     S
H274   N291    1.046   .     S
H275   N292    1.046   .     S
H276   N292    1.045   .     S
H277   N293    1.046   .     S
H278   N293    1.046   .     S
H279   N294    1.046   .     S
H281   N294    1.046   .     S
H288   O297    0.991   .     S
N289   Zn320   2.033   .     S
N290   Zn319   2.033   .     S
O295   Zn319   2.009   .     S
O296   S315    1.504   .     D
O297   S315    1.673   .     S
O298   S316    1.504   .     D
O299   S316    1.498   .     D
O300   S316    1.672   .     S
O301   S317    1.496   .     D
O302   S317    1.504   .     D
O303   S317    1.673   .     S
O304   S318    1.504   .     D
O305   S318    1.498   .     D
O306   Zn320   2.009   .     S
O307   S318    1.674   .     S
O308   Zn319   2.011   .     S
O309   Zn320   2.011   .     S
O310   Zn319   1.961   .     S
O311   Zn320   1.961   .     S
O312   Zn319   1.963   .     S
O313   Zn320   1.963   .     S
O314   S315    1.496   .     D
C321   C338    1.466   .     S
C321   O389    1.305   .     A
C321   O375    1.303   .     A
C322   C326    1.398   .     A
C322   H367    1.076   .     S
C322   C345    1.411   .     A
C323   C327    1.376   .     S
C323   O390    1.288   .     A
C323   O393    1.289   .     A
C324   O392    1.289   .     A
C324   C328    1.376   .     S
C324   O391    1.288   .     A
C325   C348    1.396   .     A
C325   C346    1.395   .     A
C325   C486    1.524   1_545 S
C326   C347    1.397   .     A
C326   C485    1.524   .     S
C328   C647    1.171   .     S
C329   H349    1.084   .     S
C329   C334    1.382   .     A
C329   C340    1.393   .     A
C330   C335    1.388   .     A
C330   H360    1.084   .     S
C330   C341    1.394   .     A
C331   H362    1.084   .     S
C331   C341    1.393   .     A
C331   C336    1.379   .     A
C332   O388    1.302   .     A
C332   O386    1.301   .     A
C332   C339    1.460   .     S
C333   H363    1.084   .     S
C333   C340    1.394   .     A
C333   C337    1.390   .     A
C334   C338    1.418   .     A
C334   N371    1.434   .     S
C335   C339    1.423   .     A
C335   N372    1.434   .     S
C336   N373    1.430   .     S
C336   C339    1.412   .     A
C337   C338    1.419   .     A
C337   N374    1.434   .     S
C340   C421    1.452   1_455 S
C341   C420    1.452   .     S
C342   S395    1.782   .     S
C342   N369    1.393   .     A
C342   C346    1.411   .     A
C343   S396    1.786   .     S
C343   C347    1.409   .     A
C343   N370    1.390   .     A
C344   N369    1.393   .     A
C344   C348    1.410   .     A
C344   S397    1.784   .     S
C345   N370    1.391   .     A
C345   S398    1.786   .     S
C346   H364    1.077   .     S
C347   H365    1.077   .     S
C348   H366    1.077   .     S
H350   O380    0.991   .     S
H351   O383    0.991   .     S
H352   O387    0.991   .     S
H353   N371    1.046   .     S
H354   N371    1.046   .     S
H355   N372    1.046   .     S
H356   N372    1.045   .     S
H357   N373    1.046   .     S
H358   N373    1.046   .     S
H359   N374    1.046   .     S
H361   N374    1.046   .     S
H368   O377    0.991   .     S
N369   Zn400   2.033   .     S
N370   Zn399   2.033   .     S
O375   Zn399   2.009   .     S
O376   S395    1.504   .     D
O377   S395    1.673   .     S
O378   S396    1.504   .     D
O379   S396    1.498   .     D
O380   S396    1.672   .     S
O381   S397    1.496   .     D
O382   S397    1.504   .     D
O383   S397    1.673   .     S
O384   S398    1.504   .     D
O385   S398    1.498   .     D
O386   Zn400   2.009   .     S
O387   S398    1.674   .     S
O388   Zn399   2.011   .     S
O389   Zn400   2.011   .     S
O390   Zn399   1.961   .     S
O391   Zn400   1.961   .     S
O392   Zn399   1.963   .     S
O393   Zn400   1.963   .     S
O394   S395    1.496   .     D
C401   C418    1.466   .     S
C401   O469    1.305   .     A
C401   O455    1.303   .     A
C402   C406    1.398   .     A
C402   H447    1.076   .     S
C402   C425    1.411   .     A
C403   C407    1.376   .     S
C403   O470    1.288   .     A
C403   O473    1.289   .     A
C404   O472    1.289   .     A
C404   C408    1.376   .     S
C404   O471    1.288   .     A
C405   C428    1.396   .     A
C405   C426    1.395   .     A
C405   C566    1.524   1_545 S
C406   C427    1.397   .     A
C406   C565    1.524   .     S
C408   C727    1.171   .     S
C409   H429    1.084   .     S
C409   C414    1.382   .     A
C409   C420    1.393   .     A
C410   C415    1.388   .     A
C410   H440    1.084   .     S
C410   C421    1.394   .     A
C411   H442    1.084   .     S
C411   C421    1.393   .     A
C411   C416    1.379   .     A
C412   O468    1.302   .     A
C412   O466    1.301   .     A
C412   C419    1.460   .     S
C413   H443    1.084   .     S
C413   C420    1.394   .     A
C413   C417    1.390   .     A
C414   C418    1.418   .     A
C414   N451    1.434   .     S
C415   C419    1.423   .     A
C415   N452    1.434   .     S
C416   N453    1.430   .     S
C416   C419    1.412   .     A
C417   C418    1.419   .     A
C417   N454    1.434   .     S
C421   C340    1.452   1_655 S
C422   S475    1.782   .     S
C422   N449    1.393   .     A
C422   C426    1.411   .     A
C423   S476    1.786   .     S
C423   C427    1.409   .     A
C423   N450    1.390   .     A
C424   N449    1.393   .     A
C424   C428    1.410   .     A
C424   S477    1.784   .     S
C425   N450    1.391   .     A
C425   S478    1.786   .     S
C426   H444    1.077   .     S
C427   H445    1.077   .     S
C428   H446    1.077   .     S
H430   O460    0.991   .     S
H431   O463    0.991   .     S
H432   O467    0.991   .     S
H433   N451    1.046   .     S
H434   N451    1.046   .     S
H435   N452    1.046   .     S
H436   N452    1.045   .     S
H437   N453    1.046   .     S
H438   N453    1.046   .     S
H439   N454    1.046   .     S
H441   N454    1.046   .     S
H448   O457    0.991   .     S
N449   Zn480   2.033   .     S
N450   Zn479   2.033   .     S
O455   Zn479   2.009   .     S
O456   S475    1.504   .     D
O457   S475    1.673   .     S
O458   S476    1.504   .     D
O459   S476    1.498   .     D
O460   S476    1.672   .     S
O461   S477    1.496   .     D
O462   S477    1.504   .     D
O463   S477    1.673   .     S
O464   S478    1.504   .     D
O465   S478    1.498   .     D
O466   Zn480   2.009   .     S
O467   S478    1.674   .     S
O468   Zn479   2.011   .     S
O469   Zn480   2.011   .     S
O470   Zn479   1.961   .     S
O471   Zn480   1.961   .     S
O472   Zn479   1.963   .     S
O473   Zn480   1.963   .     S
O474   S475    1.496   .     D
C481   C498    1.466   .     S
C481   O549    1.305   .     A
C481   O535    1.303   .     A
C482   C486    1.398   .     A
C482   H527    1.076   .     S
C482   C505    1.411   .     A
C483   C487    1.376   .     S
C483   O550    1.288   .     A
C483   O553    1.289   .     A
C484   O552    1.289   .     A
C484   C488    1.376   .     S
C484   O551    1.288   .     A
C485   C508    1.396   .     A
C485   C506    1.395   .     A
C486   C507    1.397   .     A
C486   C325    1.524   1_565 S
C488   C807    1.171   .     S
C489   H509    1.084   .     S
C489   C494    1.382   .     A
C489   C500    1.393   .     A
C490   C495    1.388   .     A
C490   H520    1.084   .     S
C490   C501    1.394   .     A
C491   H522    1.084   .     S
C491   C501    1.393   .     A
C491   C496    1.379   .     A
C492   O548    1.302   .     A
C492   O546    1.301   .     A
C492   C499    1.460   .     S
C493   H523    1.084   .     S
C493   C500    1.394   .     A
C493   C497    1.390   .     A
C494   C498    1.418   .     A
C494   N531    1.434   .     S
C495   C499    1.423   .     A
C495   N532    1.434   .     S
C496   N533    1.430   .     S
C496   C499    1.412   .     A
C497   C498    1.419   .     A
C497   N534    1.434   .     S
C500   C581    1.452   1_455 S
C501   C580    1.452   .     S
C502   S555    1.782   .     S
C502   N529    1.393   .     A
C502   C506    1.411   .     A
C503   S556    1.786   .     S
C503   C507    1.409   .     A
C503   N530    1.390   .     A
C504   N529    1.393   .     A
C504   C508    1.410   .     A
C504   S557    1.784   .     S
C505   N530    1.391   .     A
C505   S558    1.786   .     S
C506   H524    1.077   .     S
C507   H525    1.077   .     S
C508   H526    1.077   .     S
H510   O540    0.991   .     S
H511   O543    0.991   .     S
H512   O547    0.991   .     S
H513   N531    1.046   .     S
H514   N531    1.046   .     S
H515   N532    1.046   .     S
H516   N532    1.045   .     S
H517   N533    1.046   .     S
H518   N533    1.046   .     S
H519   N534    1.046   .     S
H521   N534    1.046   .     S
H528   O537    0.991   .     S
N529   Zn560   2.033   .     S
N530   Zn559   2.033   .     S
O535   Zn559   2.009   .     S
O536   S555    1.504   .     D
O537   S555    1.673   .     S
O538   S556    1.504   .     D
O539   S556    1.498   .     D
O540   S556    1.672   .     S
O541   S557    1.496   .     D
O542   S557    1.504   .     D
O543   S557    1.673   .     S
O544   S558    1.504   .     D
O545   S558    1.498   .     D
O546   Zn560   2.009   .     S
O547   S558    1.674   .     S
O548   Zn559   2.011   .     S
O549   Zn560   2.011   .     S
O550   Zn559   1.961   .     S
O551   Zn560   1.961   .     S
O552   Zn559   1.963   .     S
O553   Zn560   1.963   .     S
O554   S555    1.496   .     D
C561   C578    1.466   .     S
C561   O629    1.305   .     A
C561   O615    1.303   .     A
C562   C566    1.398   .     A
C562   H607    1.076   .     S
C562   C585    1.411   .     A
C563   C567    1.376   .     S
C563   O630    1.288   .     A
C563   O633    1.289   .     A
C564   O632    1.289   .     A
C564   C568    1.376   .     S
C564   O631    1.288   .     A
C565   C588    1.396   .     A
C565   C586    1.395   .     A
C566   C587    1.397   .     A
C566   C405    1.524   1_565 S
C568   C887    1.171   .     S
C569   H589    1.084   .     S
C569   C574    1.382   .     A
C569   C580    1.393   .     A
C570   C575    1.388   .     A
C570   H600    1.084   .     S
C570   C581    1.394   .     A
C571   H602    1.084   .     S
C571   C581    1.393   .     A
C571   C576    1.379   .     A
C572   O628    1.302   .     A
C572   O626    1.301   .     A
C572   C579    1.460   .     S
C573   H603    1.084   .     S
C573   C580    1.394   .     A
C573   C577    1.390   .     A
C574   C578    1.418   .     A
C574   N611    1.434   .     S
C575   C579    1.423   .     A
C575   N612    1.434   .     S
C576   N613    1.430   .     S
C576   C579    1.412   .     A
C577   C578    1.419   .     A
C577   N614    1.434   .     S
C581   C500    1.452   1_655 S
C582   S635    1.782   .     S
C582   N609    1.393   .     A
C582   C586    1.411   .     A
C583   S636    1.786   .     S
C583   C587    1.409   .     A
C583   N610    1.390   .     A
C584   N609    1.393   .     A
C584   C588    1.410   .     A
C584   S637    1.784   .     S
C585   N610    1.391   .     A
C585   S638    1.786   .     S
C586   H604    1.077   .     S
C587   H605    1.077   .     S
C588   H606    1.077   .     S
H590   O620    0.991   .     S
H591   O623    0.991   .     S
H592   O627    0.991   .     S
H593   N611    1.046   .     S
H594   N611    1.046   .     S
H595   N612    1.046   .     S
H596   N612    1.045   .     S
H597   N613    1.046   .     S
H598   N613    1.046   .     S
H599   N614    1.046   .     S
H601   N614    1.046   .     S
H608   O617    0.991   .     S
N609   Zn640   2.033   .     S
N610   Zn639   2.033   .     S
O615   Zn639   2.009   .     S
O616   S635    1.504   .     D
O617   S635    1.673   .     S
O618   S636    1.504   .     D
O619   S636    1.498   .     D
O620   S636    1.672   .     S
O621   S637    1.496   .     D
O622   S637    1.504   .     D
O623   S637    1.673   .     S
O624   S638    1.504   .     D
O625   S638    1.498   .     D
O626   Zn640   2.009   .     S
O627   S638    1.674   .     S
O628   Zn639   2.011   .     S
O629   Zn640   2.011   .     S
O630   Zn639   1.961   .     S
O631   Zn640   1.961   .     S
O632   Zn639   1.963   .     S
O633   Zn640   1.963   .     S
O634   S635    1.496   .     D
C641   C658    1.466   .     S
C641   O709    1.305   .     A
C641   O695    1.303   .     A
C642   C646    1.398   .     A
C642   H687    1.076   .     S
C642   C665    1.411   .     A
C643   C647    1.376   .     S
C643   O710    1.288   .     A
C643   O713    1.289   .     A
C644   O712    1.289   .     A
C644   C648    1.376   .     S
C644   O711    1.288   .     A
C645   C668    1.396   .     A
C645   C666    1.395   .     A
C645   C806    1.524   1_545 S
C646   C667    1.397   .     A
C646   C805    1.524   .     S
C648   C7      1.171   1_556 S
C649   H669    1.084   .     S
C649   C654    1.382   .     A
C649   C660    1.393   .     A
C650   C655    1.388   .     A
C650   H680    1.084   .     S
C650   C661    1.394   .     A
C651   H682    1.084   .     S
C651   C661    1.393   .     A
C651   C656    1.379   .     A
C652   O708    1.302   .     A
C652   O706    1.301   .     A
C652   C659    1.460   .     S
C653   H683    1.084   .     S
C653   C660    1.394   .     A
C653   C657    1.390   .     A
C654   C658    1.418   .     A
C654   N691    1.434   .     S
C655   C659    1.423   .     A
C655   N692    1.434   .     S
C656   N693    1.430   .     S
C656   C659    1.412   .     A
C657   C658    1.419   .     A
C657   N694    1.434   .     S
C660   C741    1.452   1_455 S
C661   C740    1.452   .     S
C662   S715    1.782   .     S
C662   N689    1.393   .     A
C662   C666    1.411   .     A
C663   S716    1.786   .     S
C663   C667    1.409   .     A
C663   N690    1.390   .     A
C664   N689    1.393   .     A
C664   C668    1.410   .     A
C664   S717    1.784   .     S
C665   N690    1.391   .     A
C665   S718    1.786   .     S
C666   H684    1.077   .     S
C667   H685    1.077   .     S
C668   H686    1.077   .     S
H670   O700    0.991   .     S
H671   O703    0.991   .     S
H672   O707    0.991   .     S
H673   N691    1.046   .     S
H674   N691    1.046   .     S
H675   N692    1.046   .     S
H676   N692    1.045   .     S
H677   N693    1.046   .     S
H678   N693    1.046   .     S
H679   N694    1.046   .     S
H681   N694    1.046   .     S
H688   O697    0.991   .     S
N689   Zn720   2.033   .     S
N690   Zn719   2.033   .     S
O695   Zn719   2.009   .     S
O696   S715    1.504   .     D
O697   S715    1.673   .     S
O698   S716    1.504   .     D
O699   S716    1.498   .     D
O700   S716    1.672   .     S
O701   S717    1.496   .     D
O702   S717    1.504   .     D
O703   S717    1.673   .     S
O704   S718    1.504   .     D
O705   S718    1.498   .     D
O706   Zn720   2.009   .     S
O707   S718    1.674   .     S
O708   Zn719   2.011   .     S
O709   Zn720   2.011   .     S
O710   Zn719   1.961   .     S
O711   Zn720   1.961   .     S
O712   Zn719   1.963   .     S
O713   Zn720   1.963   .     S
O714   S715    1.496   .     D
C721   C738    1.466   .     S
C721   O789    1.305   .     A
C721   O775    1.303   .     A
C722   C726    1.398   .     A
C722   H767    1.076   .     S
C722   C745    1.411   .     A
C723   C727    1.376   .     S
C723   O790    1.288   .     A
C723   O793    1.289   .     A
C724   O792    1.289   .     A
C724   C728    1.376   .     S
C724   O791    1.288   .     A
C725   C748    1.396   .     A
C725   C746    1.395   .     A
C725   C886    1.524   1_545 S
C726   C747    1.397   .     A
C726   C885    1.524   .     S
C728   C87     1.171   1_556 S
C729   H749    1.084   .     S
C729   C734    1.382   .     A
C729   C740    1.393   .     A
C730   C735    1.388   .     A
C730   H760    1.084   .     S
C730   C741    1.394   .     A
C731   H762    1.084   .     S
C731   C741    1.393   .     A
C731   C736    1.379   .     A
C732   O788    1.302   .     A
C732   O786    1.301   .     A
C732   C739    1.460   .     S
C733   H763    1.084   .     S
C733   C740    1.394   .     A
C733   C737    1.390   .     A
C734   C738    1.418   .     A
C734   N771    1.434   .     S
C735   C739    1.423   .     A
C735   N772    1.434   .     S
C736   N773    1.430   .     S
C736   C739    1.412   .     A
C737   C738    1.419   .     A
C737   N774    1.434   .     S
C741   C660    1.452   1_655 S
C742   S795    1.782   .     S
C742   N769    1.393   .     A
C742   C746    1.411   .     A
C743   S796    1.786   .     S
C743   C747    1.409   .     A
C743   N770    1.390   .     A
C744   N769    1.393   .     A
C744   C748    1.410   .     A
C744   S797    1.784   .     S
C745   N770    1.391   .     A
C745   S798    1.786   .     S
C746   H764    1.077   .     S
C747   H765    1.077   .     S
C748   H766    1.077   .     S
H750   O780    0.991   .     S
H751   O783    0.991   .     S
H752   O787    0.991   .     S
H753   N771    1.046   .     S
H754   N771    1.046   .     S
H755   N772    1.046   .     S
H756   N772    1.045   .     S
H757   N773    1.046   .     S
H758   N773    1.046   .     S
H759   N774    1.046   .     S
H761   N774    1.046   .     S
H768   O777    0.991   .     S
N769   Zn800   2.033   .     S
N770   Zn799   2.033   .     S
O775   Zn799   2.009   .     S
O776   S795    1.504   .     D
O777   S795    1.673   .     S
O778   S796    1.504   .     D
O779   S796    1.498   .     D
O780   S796    1.672   .     S
O781   S797    1.496   .     D
O782   S797    1.504   .     D
O783   S797    1.673   .     S
O784   S798    1.504   .     D
O785   S798    1.498   .     D
O786   Zn800   2.009   .     S
O787   S798    1.674   .     S
O788   Zn799   2.011   .     S
O789   Zn800   2.011   .     S
O790   Zn799   1.961   .     S
O791   Zn800   1.961   .     S
O792   Zn799   1.963   .     S
O793   Zn800   1.963   .     S
O794   S795    1.496   .     D
C801   C818    1.466   .     S
C801   O869    1.305   .     A
C801   O855    1.303   .     A
C802   C806    1.398   .     A
C802   H847    1.076   .     S
C802   C825    1.411   .     A
C803   C807    1.376   .     S
C803   O870    1.288   .     A
C803   O873    1.289   .     A
C804   O872    1.289   .     A
C804   C808    1.376   .     S
C804   O871    1.288   .     A
C805   C828    1.396   .     A
C805   C826    1.395   .     A
C806   C827    1.397   .     A
C806   C645    1.524   1_565 S
C808   C167    1.171   1_556 S
C809   H829    1.084   .     S
C809   C814    1.382   .     A
C809   C820    1.393   .     A
C810   C815    1.388   .     A
C810   H840    1.084   .     S
C810   C821    1.394   .     A
C811   H842    1.084   .     S
C811   C821    1.393   .     A
C811   C816    1.379   .     A
C812   O868    1.302   .     A
C812   O866    1.301   .     A
C812   C819    1.460   .     S
C813   H843    1.084   .     S
C813   C820    1.394   .     A
C813   C817    1.390   .     A
C814   C818    1.418   .     A
C814   N851    1.434   .     S
C815   C819    1.423   .     A
C815   N852    1.434   .     S
C816   N853    1.430   .     S
C816   C819    1.412   .     A
C817   C818    1.419   .     A
C817   N854    1.434   .     S
C820   C901    1.452   1_455 S
C821   C900    1.452   .     S
C822   S875    1.782   .     S
C822   N849    1.393   .     A
C822   C826    1.411   .     A
C823   S876    1.786   .     S
C823   C827    1.409   .     A
C823   N850    1.390   .     A
C824   N849    1.393   .     A
C824   C828    1.410   .     A
C824   S877    1.784   .     S
C825   N850    1.391   .     A
C825   S878    1.786   .     S
C826   H844    1.077   .     S
C827   H845    1.077   .     S
C828   H846    1.077   .     S
H830   O860    0.991   .     S
H831   O863    0.991   .     S
H832   O867    0.991   .     S
H833   N851    1.046   .     S
H834   N851    1.046   .     S
H835   N852    1.046   .     S
H836   N852    1.045   .     S
H837   N853    1.046   .     S
H838   N853    1.046   .     S
H839   N854    1.046   .     S
H841   N854    1.046   .     S
H848   O857    0.991   .     S
N849   Zn880   2.033   .     S
N850   Zn879   2.033   .     S
O855   Zn879   2.009   .     S
O856   S875    1.504   .     D
O857   S875    1.673   .     S
O858   S876    1.504   .     D
O859   S876    1.498   .     D
O860   S876    1.672   .     S
O861   S877    1.496   .     D
O862   S877    1.504   .     D
O863   S877    1.673   .     S
O864   S878    1.504   .     D
O865   S878    1.498   .     D
O866   Zn880   2.009   .     S
O867   S878    1.674   .     S
O868   Zn879   2.011   .     S
O869   Zn880   2.011   .     S
O870   Zn879   1.961   .     S
O871   Zn880   1.961   .     S
O872   Zn879   1.963   .     S
O873   Zn880   1.963   .     S
O874   S875    1.496   .     D
C881   C898    1.466   .     S
C881   O949    1.305   .     A
C881   O935    1.303   .     A
C882   C886    1.398   .     A
C882   H927    1.076   .     S
C882   C905    1.411   .     A
C883   C887    1.376   .     S
C883   O950    1.288   .     A
C883   O953    1.289   .     A
C884   O952    1.289   .     A
C884   C888    1.376   .     S
C884   O951    1.288   .     A
C885   C908    1.396   .     A
C885   C906    1.395   .     A
C886   C907    1.397   .     A
C886   C725    1.524   1_565 S
C888   C247    1.171   1_556 S
C889   H909    1.084   .     S
C889   C894    1.382   .     A
C889   C900    1.393   .     A
C890   C895    1.388   .     A
C890   H920    1.084   .     S
C890   C901    1.394   .     A
C891   H922    1.084   .     S
C891   C901    1.393   .     A
C891   C896    1.379   .     A
C892   O948    1.302   .     A
C892   O946    1.301   .     A
C892   C899    1.460   .     S
C893   H923    1.084   .     S
C893   C900    1.394   .     A
C893   C897    1.390   .     A
C894   C898    1.418   .     A
C894   N931    1.434   .     S
C895   C899    1.423   .     A
C895   N932    1.434   .     S
C896   N933    1.430   .     S
C896   C899    1.412   .     A
C897   C898    1.419   .     A
C897   N934    1.434   .     S
C901   C820    1.452   1_655 S
C902   S955    1.782   .     S
C902   N929    1.393   .     A
C902   C906    1.411   .     A
C903   S956    1.786   .     S
C903   C907    1.409   .     A
C903   N930    1.390   .     A
C904   N929    1.393   .     A
C904   C908    1.410   .     A
C904   S957    1.784   .     S
C905   N930    1.391   .     A
C905   S958    1.786   .     S
C906   H924    1.077   .     S
C907   H925    1.077   .     S
C908   H926    1.077   .     S
H910   O940    0.991   .     S
H911   O943    0.991   .     S
H912   O947    0.991   .     S
H913   N931    1.046   .     S
H914   N931    1.046   .     S
H915   N932    1.046   .     S
H916   N932    1.045   .     S
H917   N933    1.046   .     S
H918   N933    1.046   .     S
H919   N934    1.046   .     S
H921   N934    1.046   .     S
H928   O937    0.991   .     S
N929   Zn960   2.033   .     S
N930   Zn959   2.033   .     S
O935   Zn959   2.009   .     S
O936   S955    1.504   .     D
O937   S955    1.673   .     S
O938   S956    1.504   .     D
O939   S956    1.498   .     D
O940   S956    1.672   .     S
O941   S957    1.496   .     D
O942   S957    1.504   .     D
O943   S957    1.673   .     S
O944   S958    1.504   .     D
O945   S958    1.498   .     D
O946   Zn960   2.009   .     S
O947   S958    1.674   .     S
O948   Zn959   2.011   .     S
O949   Zn960   2.011   .     S
O950   Zn959   1.961   .     S
O951   Zn960   1.961   .     S
O952   Zn959   1.963   .     S
O953   Zn960   1.963   .     S
O954   S955    1.496   .     D
