data_str_m3_o1_o17_pcu_sym.101
_audit_creation_date              2020-01-03
_audit_creation_method            'Materials Studio'
_symmetry_space_group_name_H-M    'P1'
_symmetry_Int_Tables_number       1
_symmetry_cell_setting            triclinic
loop_
_symmetry_equiv_pos_as_xyz
  x,y,z
_cell_length_a                    32.3734
_cell_length_b                    29.6645
_cell_length_c                    29.8900
_cell_angle_alpha                 89.8828
_cell_angle_beta                  90.9322
_cell_angle_gamma                 89.0031
loop_
_atom_site_label
_atom_site_type_symbol
_atom_site_fract_x
_atom_site_fract_y
_atom_site_fract_z
_atom_site_U_iso_or_equiv
_atom_site_adp_type
_atom_site_occupancy
C1     C     0.08678   0.16705   0.25348   0.00000  Uiso   1.00
C2     C     0.24655   0.16628   0.24652   0.00000  Uiso   1.00
C3     C     0.09336   0.14697   0.02258   0.00000  Uiso   1.00
C4     C     0.23997   0.18636   0.47742   0.00000  Uiso   1.00
C5     C     0.02162   0.12642   0.26077   0.00000  Uiso   1.00
C6     C     0.31172   0.20692   0.23923   0.00000  Uiso   1.00
C7     C     0.31342   0.12485   0.24980   0.00000  Uiso   1.00
C8     C     0.01992   0.20849   0.25020   0.00000  Uiso   1.00
C9     C     0.29106   0.16564   0.24311   0.00000  Uiso   1.00
C10    C     0.04228   0.16769   0.25689   0.00000  Uiso   1.00
C11    C     0.19099   0.02339   0.27969   0.00000  Uiso   1.00
C12    C     0.14234   0.30994   0.22031   0.00000  Uiso   1.00
C13    C     0.14210   0.02448   0.22053   0.00000  Uiso   1.00
C14    C     0.19123   0.30885   0.27947   0.00000  Uiso   1.00
C15    C     0.16680   0.16667   0.16371   0.00000  Uiso   1.00
C16    C     0.16654   0.16667   0.33629   0.00000  Uiso   1.00
C17    C     0.20406   0.16715   0.40697   0.00000  Uiso   1.00
C18    C     0.12927   0.16619   0.09303   0.00000  Uiso   1.00
C19    C     0.16634   0.16683   0.38399   0.00000  Uiso   1.00
C20    C     0.16700   0.16650   0.11601   0.00000  Uiso   1.00
C21    C     0.12862   0.16727   0.40592   0.00000  Uiso   1.00
C22    C     0.20471   0.16606   0.09408   0.00000  Uiso   1.00
C23    C     0.12862   0.16116   0.45256   0.00000  Uiso   1.00
C24    C     0.20471   0.17217   0.04744   0.00000  Uiso   1.00
C25    C     0.16654   0.16688   0.47654   0.00000  Uiso   1.00
C26    C     0.16680   0.16646   0.02346   0.00000  Uiso   1.00
C27    C     0.20414   0.17329   0.45346   0.00000  Uiso   1.00
C28    C     0.12919   0.16004   0.04654   0.00000  Uiso   1.00
C29    C     0.09278   0.14835   0.47584   0.00000  Uiso   1.00
C30    C     0.24056   0.18498   0.02416   0.00000  Uiso   1.00
N31    N     0.16667   0.28573   0.25000   0.00000  Uiso   1.00
N32    N     0.16667   0.04760   0.25000   0.00000  Uiso   1.00
O33    O     0.10559   0.20487   0.25000   0.00000  Uiso   1.00
O34    O     0.22774   0.12846   0.25000   0.00000  Uiso   1.00
O35    O     0.22774   0.20487   0.25001   0.00000  Uiso   1.00
O36    O     0.10559   0.12846   0.25000   0.00000  Uiso   1.00
O37    O     0.16666   0.20489   0.18393   0.00000  Uiso   1.00
O38    O     0.16667   0.12844   0.31608   0.00000  Uiso   1.00
O39    O     0.16667   0.20489   0.31608   0.00000  Uiso   1.00
O40    O     0.16666   0.12844   0.18393   0.00000  Uiso   1.00
Zn41   Zn    0.16667   0.21771   0.25000   0.00000  Uiso   1.00
Zn42   Zn    0.16667   0.11563   0.25000   0.00000  Uiso   1.00
Cl43   Cl    0.24968   0.15461   0.37664   0.00000  Uiso   1.00
Cl44   Cl    0.08365   0.17873   0.12336   0.00000  Uiso   1.00
C45    C     0.09093   0.17689   0.38029   0.00000  Uiso   1.00
N46    N     0.06096   0.18489   0.35995   0.00000  Uiso   1.00
C47    C     0.24241   0.15645   0.11971   0.00000  Uiso   1.00
N48    N     0.27237   0.14844   0.14005   0.00000  Uiso   1.00
C49    C     0.05632   0.13173   0.45267   0.00000  Uiso   1.00
N50    N     0.02718   0.11831   0.43451   0.00000  Uiso   1.00
C51    C     0.27701   0.20160   0.04733   0.00000  Uiso   1.00
N52    N     0.30616   0.21502   0.06549   0.00000  Uiso   1.00
Cl53   Cl    0.05119   0.12099   0.04942   0.00000  Uiso   1.00
Cl54   Cl    0.28214   0.21234   0.45058   0.00000  Uiso   1.00
C55    C     0.04179   0.08600   0.27907   0.00000  Uiso   1.00
N56    N     0.05778   0.05398   0.29384   0.00000  Uiso   1.00
C57    C     0.29154   0.24733   0.22094   0.00000  Uiso   1.00
N58    N     0.27555   0.27936   0.20616   0.00000  Uiso   1.00
C59    C     0.29560   0.08094   0.24150   0.00000  Uiso   1.00
N60    N     0.28187   0.04588   0.23440   0.00000  Uiso   1.00
C61    C     0.03774   0.25239   0.25850   0.00000  Uiso   1.00
N62    N     0.05146   0.28746   0.26560   0.00000  Uiso   1.00
Cl63   Cl    0.22216   0.05164   0.31897   0.00000  Uiso   1.00
Cl64   Cl    0.11118   0.28170   0.18103   0.00000  Uiso   1.00
Cl65   Cl    0.10927   0.05419   0.18286   0.00000  Uiso   1.00
Cl66   Cl    0.22406   0.27914   0.31714   0.00000  Uiso   1.00
C67    C     0.42011   0.16705   0.25348   0.00000  Uiso   1.00
C68    C     0.57989   0.16628   0.24652   0.00000  Uiso   1.00
C69    C     0.42669   0.14697   0.02258   0.00000  Uiso   1.00
C70    C     0.57331   0.18636   0.47742   0.00000  Uiso   1.00
C71    C     0.35495   0.12642   0.26077   0.00000  Uiso   1.00
C72    C     0.64505   0.20692   0.23923   0.00000  Uiso   1.00
C73    C     0.64675   0.12485   0.24980   0.00000  Uiso   1.00
C74    C     0.35325   0.20849   0.25020   0.00000  Uiso   1.00
C75    C     0.62439   0.16564   0.24311   0.00000  Uiso   1.00
C76    C     0.37561   0.16769   0.25689   0.00000  Uiso   1.00
C77    C     0.52433   0.02339   0.27969   0.00000  Uiso   1.00
C78    C     0.47567   0.30994   0.22031   0.00000  Uiso   1.00
C79    C     0.47544   0.02448   0.22053   0.00000  Uiso   1.00
C80    C     0.52456   0.30885   0.27947   0.00000  Uiso   1.00
C81    C     0.50013   0.16667   0.16371   0.00000  Uiso   1.00
C82    C     0.49987   0.16667   0.33629   0.00000  Uiso   1.00
C83    C     0.53739   0.16715   0.40697   0.00000  Uiso   1.00
C84    C     0.46261   0.16619   0.09303   0.00000  Uiso   1.00
C85    C     0.49967   0.16683   0.38399   0.00000  Uiso   1.00
C86    C     0.50033   0.16650   0.11601   0.00000  Uiso   1.00
C87    C     0.46195   0.16727   0.40592   0.00000  Uiso   1.00
C88    C     0.53805   0.16606   0.09408   0.00000  Uiso   1.00
C89    C     0.46196   0.16116   0.45256   0.00000  Uiso   1.00
C90    C     0.53804   0.17217   0.04744   0.00000  Uiso   1.00
C91    C     0.49987   0.16688   0.47654   0.00000  Uiso   1.00
C92    C     0.50013   0.16646   0.02346   0.00000  Uiso   1.00
C93    C     0.53748   0.17329   0.45346   0.00000  Uiso   1.00
C94    C     0.46252   0.16004   0.04654   0.00000  Uiso   1.00
C95    C     0.42611   0.14835   0.47584   0.00000  Uiso   1.00
C96    C     0.57389   0.18498   0.02416   0.00000  Uiso   1.00
N97    N     0.50000   0.28573   0.25000   0.00000  Uiso   1.00
N98    N     0.50000   0.04760   0.25000   0.00000  Uiso   1.00
O99    O     0.43892   0.20487   0.25000   0.00000  Uiso   1.00
O100   O     0.56108   0.12846   0.25000   0.00000  Uiso   1.00
O101   O     0.56108   0.20487   0.25001   0.00000  Uiso   1.00
O102   O     0.43892   0.12846   0.25000   0.00000  Uiso   1.00
O103   O     0.49999   0.20489   0.18393   0.00000  Uiso   1.00
O104   O     0.50001   0.12844   0.31608   0.00000  Uiso   1.00
O105   O     0.50001   0.20489   0.31608   0.00000  Uiso   1.00
O106   O     0.49999   0.12844   0.18393   0.00000  Uiso   1.00
Zn107  Zn    0.50000   0.21771   0.25000   0.00000  Uiso   1.00
Zn108  Zn    0.50000   0.11563   0.25000   0.00000  Uiso   1.00
Cl109  Cl    0.58301   0.15461   0.37664   0.00000  Uiso   1.00
Cl110  Cl    0.41699   0.17873   0.12336   0.00000  Uiso   1.00
C111   C     0.42426   0.17689   0.38029   0.00000  Uiso   1.00
N112   N     0.39429   0.18489   0.35995   0.00000  Uiso   1.00
C113   C     0.57574   0.15645   0.11971   0.00000  Uiso   1.00
N114   N     0.60571   0.14844   0.14005   0.00000  Uiso   1.00
C115   C     0.38965   0.13173   0.45267   0.00000  Uiso   1.00
N116   N     0.36051   0.11831   0.43451   0.00000  Uiso   1.00
C117   C     0.61035   0.20160   0.04733   0.00000  Uiso   1.00
N118   N     0.63949   0.21502   0.06549   0.00000  Uiso   1.00
Cl119  Cl    0.38452   0.12099   0.04942   0.00000  Uiso   1.00
Cl120  Cl    0.61548   0.21234   0.45058   0.00000  Uiso   1.00
C121   C     0.37513   0.08600   0.27907   0.00000  Uiso   1.00
N122   N     0.39112   0.05398   0.29384   0.00000  Uiso   1.00
C123   C     0.62488   0.24733   0.22094   0.00000  Uiso   1.00
N124   N     0.60888   0.27936   0.20616   0.00000  Uiso   1.00
C125   C     0.62893   0.08094   0.24150   0.00000  Uiso   1.00
N126   N     0.61520   0.04588   0.23440   0.00000  Uiso   1.00
C127   C     0.37107   0.25239   0.25850   0.00000  Uiso   1.00
N128   N     0.38480   0.28746   0.26560   0.00000  Uiso   1.00
Cl129  Cl    0.55549   0.05164   0.31897   0.00000  Uiso   1.00
Cl130  Cl    0.44451   0.28170   0.18103   0.00000  Uiso   1.00
Cl131  Cl    0.44261   0.05419   0.18286   0.00000  Uiso   1.00
Cl132  Cl    0.55739   0.27914   0.31714   0.00000  Uiso   1.00
C133   C     0.75345   0.16705   0.25348   0.00000  Uiso   1.00
C134   C     0.91322   0.16628   0.24652   0.00000  Uiso   1.00
C135   C     0.76003   0.14697   0.02258   0.00000  Uiso   1.00
C136   C     0.90664   0.18636   0.47742   0.00000  Uiso   1.00
C137   C     0.68828   0.12642   0.26077   0.00000  Uiso   1.00
C138   C     0.97838   0.20692   0.23923   0.00000  Uiso   1.00
C139   C     0.98008   0.12485   0.24980   0.00000  Uiso   1.00
C140   C     0.68658   0.20849   0.25020   0.00000  Uiso   1.00
C141   C     0.95772   0.16564   0.24311   0.00000  Uiso   1.00
C142   C     0.70894   0.16769   0.25689   0.00000  Uiso   1.00
C143   C     0.85766   0.02339   0.27969   0.00000  Uiso   1.00
C144   C     0.80901   0.30994   0.22031   0.00000  Uiso   1.00
C145   C     0.80877   0.02448   0.22053   0.00000  Uiso   1.00
C146   C     0.85790   0.30885   0.27947   0.00000  Uiso   1.00
C147   C     0.83346   0.16667   0.16371   0.00000  Uiso   1.00
C148   C     0.83320   0.16667   0.33629   0.00000  Uiso   1.00
C149   C     0.87073   0.16715   0.40697   0.00000  Uiso   1.00
C150   C     0.79594   0.16619   0.09303   0.00000  Uiso   1.00
C151   C     0.83300   0.16683   0.38399   0.00000  Uiso   1.00
C152   C     0.83366   0.16650   0.11601   0.00000  Uiso   1.00
C153   C     0.79529   0.16727   0.40592   0.00000  Uiso   1.00
C154   C     0.87138   0.16606   0.09408   0.00000  Uiso   1.00
C155   C     0.79529   0.16116   0.45256   0.00000  Uiso   1.00
C156   C     0.87138   0.17217   0.04744   0.00000  Uiso   1.00
C157   C     0.83320   0.16688   0.47654   0.00000  Uiso   1.00
C158   C     0.83346   0.16646   0.02346   0.00000  Uiso   1.00
C159   C     0.87081   0.17329   0.45346   0.00000  Uiso   1.00
C160   C     0.79586   0.16004   0.04654   0.00000  Uiso   1.00
C161   C     0.75944   0.14835   0.47584   0.00000  Uiso   1.00
C162   C     0.90722   0.18498   0.02416   0.00000  Uiso   1.00
N163   N     0.83333   0.28573   0.25000   0.00000  Uiso   1.00
N164   N     0.83333   0.04760   0.25000   0.00000  Uiso   1.00
O165   O     0.77226   0.20487   0.25000   0.00000  Uiso   1.00
O166   O     0.89441   0.12846   0.25000   0.00000  Uiso   1.00
O167   O     0.89441   0.20487   0.25001   0.00000  Uiso   1.00
O168   O     0.77226   0.12846   0.25000   0.00000  Uiso   1.00
O169   O     0.83333   0.20489   0.18393   0.00000  Uiso   1.00
O170   O     0.83334   0.12844   0.31608   0.00000  Uiso   1.00
O171   O     0.83334   0.20489   0.31608   0.00000  Uiso   1.00
O172   O     0.83333   0.12844   0.18393   0.00000  Uiso   1.00
Zn173  Zn    0.83333   0.21771   0.25000   0.00000  Uiso   1.00
Zn174  Zn    0.83333   0.11563   0.25000   0.00000  Uiso   1.00
Cl175  Cl    0.91635   0.15461   0.37664   0.00000  Uiso   1.00
Cl176  Cl    0.75032   0.17873   0.12336   0.00000  Uiso   1.00
C177   C     0.75759   0.17689   0.38029   0.00000  Uiso   1.00
N178   N     0.72763   0.18489   0.35995   0.00000  Uiso   1.00
C179   C     0.90907   0.15645   0.11971   0.00000  Uiso   1.00
N180   N     0.93904   0.14844   0.14005   0.00000  Uiso   1.00
C181   C     0.72299   0.13173   0.45267   0.00000  Uiso   1.00
N182   N     0.69384   0.11831   0.43451   0.00000  Uiso   1.00
C183   C     0.94368   0.20160   0.04733   0.00000  Uiso   1.00
N184   N     0.97282   0.21502   0.06549   0.00000  Uiso   1.00
Cl185  Cl    0.71786   0.12099   0.04942   0.00000  Uiso   1.00
Cl186  Cl    0.94881   0.21234   0.45058   0.00000  Uiso   1.00
C187   C     0.70846   0.08600   0.27907   0.00000  Uiso   1.00
N188   N     0.72445   0.05398   0.29384   0.00000  Uiso   1.00
C189   C     0.95821   0.24733   0.22094   0.00000  Uiso   1.00
N190   N     0.94222   0.27936   0.20616   0.00000  Uiso   1.00
C191   C     0.96226   0.08094   0.24150   0.00000  Uiso   1.00
N192   N     0.94854   0.04588   0.23440   0.00000  Uiso   1.00
C193   C     0.70440   0.25239   0.25850   0.00000  Uiso   1.00
N194   N     0.71813   0.28746   0.26560   0.00000  Uiso   1.00
Cl195  Cl    0.88882   0.05164   0.31897   0.00000  Uiso   1.00
Cl196  Cl    0.77784   0.28170   0.18103   0.00000  Uiso   1.00
Cl197  Cl    0.77594   0.05419   0.18286   0.00000  Uiso   1.00
Cl198  Cl    0.89073   0.27914   0.31714   0.00000  Uiso   1.00
C199   C     0.08678   0.50038   0.25348   0.00000  Uiso   1.00
C200   C     0.24655   0.49962   0.24652   0.00000  Uiso   1.00
C201   C     0.09336   0.48031   0.02258   0.00000  Uiso   1.00
C202   C     0.23997   0.51969   0.47742   0.00000  Uiso   1.00
C203   C     0.02162   0.45975   0.26077   0.00000  Uiso   1.00
C204   C     0.31172   0.54025   0.23923   0.00000  Uiso   1.00
C205   C     0.31342   0.45818   0.24980   0.00000  Uiso   1.00
C206   C     0.01992   0.54182   0.25020   0.00000  Uiso   1.00
C207   C     0.29106   0.49897   0.24311   0.00000  Uiso   1.00
C208   C     0.04228   0.50103   0.25689   0.00000  Uiso   1.00
C209   C     0.19099   0.35672   0.27969   0.00000  Uiso   1.00
C210   C     0.14234   0.64328   0.22031   0.00000  Uiso   1.00
C211   C     0.14210   0.35782   0.22053   0.00000  Uiso   1.00
C212   C     0.19123   0.64218   0.27947   0.00000  Uiso   1.00
C213   C     0.16680   0.50000   0.16371   0.00000  Uiso   1.00
C214   C     0.16654   0.50000   0.33629   0.00000  Uiso   1.00
C215   C     0.20406   0.50048   0.40697   0.00000  Uiso   1.00
C216   C     0.12927   0.49952   0.09303   0.00000  Uiso   1.00
C217   C     0.16634   0.50016   0.38399   0.00000  Uiso   1.00
C218   C     0.16700   0.49984   0.11601   0.00000  Uiso   1.00
C219   C     0.12862   0.50061   0.40592   0.00000  Uiso   1.00
C220   C     0.20471   0.49939   0.09408   0.00000  Uiso   1.00
C221   C     0.12862   0.49449   0.45256   0.00000  Uiso   1.00
C222   C     0.20471   0.50551   0.04744   0.00000  Uiso   1.00
C223   C     0.16654   0.50021   0.47654   0.00000  Uiso   1.00
C224   C     0.16680   0.49979   0.02346   0.00000  Uiso   1.00
C225   C     0.20414   0.50662   0.45346   0.00000  Uiso   1.00
C226   C     0.12919   0.49338   0.04654   0.00000  Uiso   1.00
C227   C     0.09278   0.48169   0.47584   0.00000  Uiso   1.00
C228   C     0.24056   0.51831   0.02416   0.00000  Uiso   1.00
N229   N     0.16667   0.61907   0.25000   0.00000  Uiso   1.00
N230   N     0.16667   0.38093   0.25000   0.00000  Uiso   1.00
O231   O     0.10559   0.53821   0.25000   0.00000  Uiso   1.00
O232   O     0.22774   0.46179   0.25000   0.00000  Uiso   1.00
O233   O     0.22774   0.53821   0.25001   0.00000  Uiso   1.00
O234   O     0.10559   0.46179   0.25000   0.00000  Uiso   1.00
O235   O     0.16666   0.53823   0.18393   0.00000  Uiso   1.00
O236   O     0.16667   0.46177   0.31608   0.00000  Uiso   1.00
O237   O     0.16667   0.53823   0.31608   0.00000  Uiso   1.00
O238   O     0.16666   0.46177   0.18393   0.00000  Uiso   1.00
Zn239  Zn    0.16667   0.55104   0.25000   0.00000  Uiso   1.00
Zn240  Zn    0.16667   0.44896   0.25000   0.00000  Uiso   1.00
Cl241  Cl    0.24968   0.48794   0.37664   0.00000  Uiso   1.00
Cl242  Cl    0.08365   0.51206   0.12336   0.00000  Uiso   1.00
C243   C     0.09093   0.51022   0.38029   0.00000  Uiso   1.00
N244   N     0.06096   0.51823   0.35995   0.00000  Uiso   1.00
C245   C     0.24241   0.48978   0.11971   0.00000  Uiso   1.00
N246   N     0.27237   0.48177   0.14005   0.00000  Uiso   1.00
C247   C     0.05632   0.46507   0.45267   0.00000  Uiso   1.00
N248   N     0.02718   0.45164   0.43451   0.00000  Uiso   1.00
C249   C     0.27701   0.53493   0.04733   0.00000  Uiso   1.00
N250   N     0.30616   0.54836   0.06549   0.00000  Uiso   1.00
Cl251  Cl    0.05119   0.45433   0.04942   0.00000  Uiso   1.00
Cl252  Cl    0.28214   0.54567   0.45058   0.00000  Uiso   1.00
C253   C     0.04179   0.41933   0.27907   0.00000  Uiso   1.00
N254   N     0.05778   0.38731   0.29384   0.00000  Uiso   1.00
C255   C     0.29154   0.58067   0.22094   0.00000  Uiso   1.00
N256   N     0.27555   0.61269   0.20616   0.00000  Uiso   1.00
C257   C     0.29560   0.41428   0.24150   0.00000  Uiso   1.00
N258   N     0.28187   0.37921   0.23440   0.00000  Uiso   1.00
C259   C     0.03774   0.58572   0.25850   0.00000  Uiso   1.00
N260   N     0.05146   0.62079   0.26560   0.00000  Uiso   1.00
Cl261  Cl    0.22216   0.38497   0.31897   0.00000  Uiso   1.00
Cl262  Cl    0.11118   0.61503   0.18103   0.00000  Uiso   1.00
Cl263  Cl    0.10927   0.38753   0.18286   0.00000  Uiso   1.00
Cl264  Cl    0.22406   0.61247   0.31714   0.00000  Uiso   1.00
C265   C     0.42011   0.50038   0.25348   0.00000  Uiso   1.00
C266   C     0.57989   0.49962   0.24652   0.00000  Uiso   1.00
C267   C     0.42669   0.48031   0.02258   0.00000  Uiso   1.00
C268   C     0.57331   0.51969   0.47742   0.00000  Uiso   1.00
C269   C     0.35495   0.45975   0.26077   0.00000  Uiso   1.00
C270   C     0.64505   0.54025   0.23923   0.00000  Uiso   1.00
C271   C     0.64675   0.45818   0.24980   0.00000  Uiso   1.00
C272   C     0.35325   0.54182   0.25020   0.00000  Uiso   1.00
C273   C     0.62439   0.49897   0.24311   0.00000  Uiso   1.00
C274   C     0.37561   0.50103   0.25689   0.00000  Uiso   1.00
C275   C     0.52433   0.35672   0.27969   0.00000  Uiso   1.00
C276   C     0.47567   0.64328   0.22031   0.00000  Uiso   1.00
C277   C     0.47544   0.35782   0.22053   0.00000  Uiso   1.00
C278   C     0.52456   0.64218   0.27947   0.00000  Uiso   1.00
C279   C     0.50013   0.50000   0.16371   0.00000  Uiso   1.00
C280   C     0.49987   0.50000   0.33629   0.00000  Uiso   1.00
C281   C     0.53739   0.50048   0.40697   0.00000  Uiso   1.00
C282   C     0.46261   0.49952   0.09303   0.00000  Uiso   1.00
C283   C     0.49967   0.50016   0.38399   0.00000  Uiso   1.00
C284   C     0.50033   0.49984   0.11601   0.00000  Uiso   1.00
C285   C     0.46195   0.50061   0.40592   0.00000  Uiso   1.00
C286   C     0.53805   0.49939   0.09408   0.00000  Uiso   1.00
C287   C     0.46196   0.49449   0.45256   0.00000  Uiso   1.00
C288   C     0.53804   0.50551   0.04744   0.00000  Uiso   1.00
C289   C     0.49987   0.50021   0.47654   0.00000  Uiso   1.00
C290   C     0.50013   0.49979   0.02346   0.00000  Uiso   1.00
C291   C     0.53748   0.50662   0.45346   0.00000  Uiso   1.00
C292   C     0.46252   0.49338   0.04654   0.00000  Uiso   1.00
C293   C     0.42611   0.48169   0.47584   0.00000  Uiso   1.00
C294   C     0.57389   0.51831   0.02416   0.00000  Uiso   1.00
N295   N     0.50000   0.61907   0.25000   0.00000  Uiso   1.00
N296   N     0.50000   0.38093   0.25000   0.00000  Uiso   1.00
O297   O     0.43892   0.53821   0.25000   0.00000  Uiso   1.00
O298   O     0.56108   0.46179   0.25000   0.00000  Uiso   1.00
O299   O     0.56108   0.53821   0.25001   0.00000  Uiso   1.00
O300   O     0.43892   0.46179   0.25000   0.00000  Uiso   1.00
O301   O     0.49999   0.53823   0.18393   0.00000  Uiso   1.00
O302   O     0.50001   0.46177   0.31608   0.00000  Uiso   1.00
O303   O     0.50001   0.53823   0.31608   0.00000  Uiso   1.00
O304   O     0.49999   0.46177   0.18393   0.00000  Uiso   1.00
Zn305  Zn    0.50000   0.55104   0.25000   0.00000  Uiso   1.00
Zn306  Zn    0.50000   0.44896   0.25000   0.00000  Uiso   1.00
Cl307  Cl    0.58301   0.48794   0.37664   0.00000  Uiso   1.00
Cl308  Cl    0.41699   0.51206   0.12336   0.00000  Uiso   1.00
C309   C     0.42426   0.51022   0.38029   0.00000  Uiso   1.00
N310   N     0.39429   0.51823   0.35995   0.00000  Uiso   1.00
C311   C     0.57574   0.48978   0.11971   0.00000  Uiso   1.00
N312   N     0.60571   0.48177   0.14005   0.00000  Uiso   1.00
C313   C     0.38965   0.46507   0.45267   0.00000  Uiso   1.00
N314   N     0.36051   0.45164   0.43451   0.00000  Uiso   1.00
C315   C     0.61035   0.53493   0.04733   0.00000  Uiso   1.00
N316   N     0.63949   0.54836   0.06549   0.00000  Uiso   1.00
Cl317  Cl    0.38452   0.45433   0.04942   0.00000  Uiso   1.00
Cl318  Cl    0.61548   0.54567   0.45058   0.00000  Uiso   1.00
C319   C     0.37513   0.41933   0.27907   0.00000  Uiso   1.00
N320   N     0.39112   0.38731   0.29384   0.00000  Uiso   1.00
C321   C     0.62488   0.58067   0.22094   0.00000  Uiso   1.00
N322   N     0.60888   0.61269   0.20616   0.00000  Uiso   1.00
C323   C     0.62893   0.41428   0.24150   0.00000  Uiso   1.00
N324   N     0.61520   0.37921   0.23440   0.00000  Uiso   1.00
C325   C     0.37107   0.58572   0.25850   0.00000  Uiso   1.00
N326   N     0.38480   0.62079   0.26560   0.00000  Uiso   1.00
Cl327  Cl    0.55549   0.38497   0.31897   0.00000  Uiso   1.00
Cl328  Cl    0.44451   0.61503   0.18103   0.00000  Uiso   1.00
Cl329  Cl    0.44261   0.38753   0.18286   0.00000  Uiso   1.00
Cl330  Cl    0.55739   0.61247   0.31714   0.00000  Uiso   1.00
C331   C     0.75345   0.50038   0.25348   0.00000  Uiso   1.00
C332   C     0.91322   0.49962   0.24652   0.00000  Uiso   1.00
C333   C     0.76003   0.48031   0.02258   0.00000  Uiso   1.00
C334   C     0.90664   0.51969   0.47742   0.00000  Uiso   1.00
C335   C     0.68828   0.45975   0.26077   0.00000  Uiso   1.00
C336   C     0.97838   0.54025   0.23923   0.00000  Uiso   1.00
C337   C     0.98008   0.45818   0.24980   0.00000  Uiso   1.00
C338   C     0.68658   0.54182   0.25020   0.00000  Uiso   1.00
C339   C     0.95772   0.49897   0.24311   0.00000  Uiso   1.00
C340   C     0.70894   0.50103   0.25689   0.00000  Uiso   1.00
C341   C     0.85766   0.35672   0.27969   0.00000  Uiso   1.00
C342   C     0.80901   0.64328   0.22031   0.00000  Uiso   1.00
C343   C     0.80877   0.35782   0.22053   0.00000  Uiso   1.00
C344   C     0.85790   0.64218   0.27947   0.00000  Uiso   1.00
C345   C     0.83346   0.50000   0.16371   0.00000  Uiso   1.00
C346   C     0.83320   0.50000   0.33629   0.00000  Uiso   1.00
C347   C     0.87073   0.50048   0.40697   0.00000  Uiso   1.00
C348   C     0.79594   0.49952   0.09303   0.00000  Uiso   1.00
C349   C     0.83300   0.50016   0.38399   0.00000  Uiso   1.00
C350   C     0.83366   0.49984   0.11601   0.00000  Uiso   1.00
C351   C     0.79529   0.50061   0.40592   0.00000  Uiso   1.00
C352   C     0.87138   0.49939   0.09408   0.00000  Uiso   1.00
C353   C     0.79529   0.49449   0.45256   0.00000  Uiso   1.00
C354   C     0.87138   0.50551   0.04744   0.00000  Uiso   1.00
C355   C     0.83320   0.50021   0.47654   0.00000  Uiso   1.00
C356   C     0.83346   0.49979   0.02346   0.00000  Uiso   1.00
C357   C     0.87081   0.50662   0.45346   0.00000  Uiso   1.00
C358   C     0.79586   0.49338   0.04654   0.00000  Uiso   1.00
C359   C     0.75944   0.48169   0.47584   0.00000  Uiso   1.00
C360   C     0.90722   0.51831   0.02416   0.00000  Uiso   1.00
N361   N     0.83333   0.61907   0.25000   0.00000  Uiso   1.00
N362   N     0.83333   0.38093   0.25000   0.00000  Uiso   1.00
O363   O     0.77226   0.53821   0.25000   0.00000  Uiso   1.00
O364   O     0.89441   0.46179   0.25000   0.00000  Uiso   1.00
O365   O     0.89441   0.53821   0.25001   0.00000  Uiso   1.00
O366   O     0.77226   0.46179   0.25000   0.00000  Uiso   1.00
O367   O     0.83333   0.53823   0.18393   0.00000  Uiso   1.00
O368   O     0.83334   0.46177   0.31608   0.00000  Uiso   1.00
O369   O     0.83334   0.53823   0.31608   0.00000  Uiso   1.00
O370   O     0.83333   0.46177   0.18393   0.00000  Uiso   1.00
Zn371  Zn    0.83333   0.55104   0.25000   0.00000  Uiso   1.00
Zn372  Zn    0.83333   0.44896   0.25000   0.00000  Uiso   1.00
Cl373  Cl    0.91635   0.48794   0.37664   0.00000  Uiso   1.00
Cl374  Cl    0.75032   0.51206   0.12336   0.00000  Uiso   1.00
C375   C     0.75759   0.51022   0.38029   0.00000  Uiso   1.00
N376   N     0.72763   0.51823   0.35995   0.00000  Uiso   1.00
C377   C     0.90907   0.48978   0.11971   0.00000  Uiso   1.00
N378   N     0.93904   0.48177   0.14005   0.00000  Uiso   1.00
C379   C     0.72299   0.46507   0.45267   0.00000  Uiso   1.00
N380   N     0.69384   0.45164   0.43451   0.00000  Uiso   1.00
C381   C     0.94368   0.53493   0.04733   0.00000  Uiso   1.00
N382   N     0.97282   0.54836   0.06549   0.00000  Uiso   1.00
Cl383  Cl    0.71786   0.45433   0.04942   0.00000  Uiso   1.00
Cl384  Cl    0.94881   0.54567   0.45058   0.00000  Uiso   1.00
C385   C     0.70846   0.41933   0.27907   0.00000  Uiso   1.00
N386   N     0.72445   0.38731   0.29384   0.00000  Uiso   1.00
C387   C     0.95821   0.58067   0.22094   0.00000  Uiso   1.00
N388   N     0.94222   0.61269   0.20616   0.00000  Uiso   1.00
C389   C     0.96226   0.41428   0.24150   0.00000  Uiso   1.00
N390   N     0.94854   0.37921   0.23440   0.00000  Uiso   1.00
C391   C     0.70440   0.58572   0.25850   0.00000  Uiso   1.00
N392   N     0.71813   0.62079   0.26560   0.00000  Uiso   1.00
Cl393  Cl    0.88882   0.38497   0.31897   0.00000  Uiso   1.00
Cl394  Cl    0.77784   0.61503   0.18103   0.00000  Uiso   1.00
Cl395  Cl    0.77594   0.38753   0.18286   0.00000  Uiso   1.00
Cl396  Cl    0.89073   0.61247   0.31714   0.00000  Uiso   1.00
C397   C     0.08678   0.83372   0.25348   0.00000  Uiso   1.00
C398   C     0.24655   0.83295   0.24652   0.00000  Uiso   1.00
C399   C     0.09336   0.81364   0.02258   0.00000  Uiso   1.00
C400   C     0.23997   0.85303   0.47742   0.00000  Uiso   1.00
C401   C     0.02162   0.79308   0.26077   0.00000  Uiso   1.00
C402   C     0.31172   0.87358   0.23923   0.00000  Uiso   1.00
C403   C     0.31342   0.79151   0.24980   0.00000  Uiso   1.00
C404   C     0.01992   0.87515   0.25020   0.00000  Uiso   1.00
C405   C     0.29106   0.83231   0.24311   0.00000  Uiso   1.00
C406   C     0.04228   0.83436   0.25689   0.00000  Uiso   1.00
C407   C     0.19099   0.69006   0.27969   0.00000  Uiso   1.00
C408   C     0.14234   0.97661   0.22031   0.00000  Uiso   1.00
C409   C     0.14210   0.69115   0.22053   0.00000  Uiso   1.00
C410   C     0.19123   0.97552   0.27947   0.00000  Uiso   1.00
C411   C     0.16680   0.83333   0.16371   0.00000  Uiso   1.00
C412   C     0.16654   0.83333   0.33629   0.00000  Uiso   1.00
C413   C     0.20406   0.83381   0.40697   0.00000  Uiso   1.00
C414   C     0.12927   0.83285   0.09303   0.00000  Uiso   1.00
C415   C     0.16634   0.83350   0.38399   0.00000  Uiso   1.00
C416   C     0.16700   0.83317   0.11601   0.00000  Uiso   1.00
C417   C     0.12862   0.83394   0.40592   0.00000  Uiso   1.00
C418   C     0.20471   0.83273   0.09408   0.00000  Uiso   1.00
C419   C     0.12862   0.82783   0.45256   0.00000  Uiso   1.00
C420   C     0.20471   0.83884   0.04744   0.00000  Uiso   1.00
C421   C     0.16654   0.83354   0.47654   0.00000  Uiso   1.00
C422   C     0.16680   0.83312   0.02346   0.00000  Uiso   1.00
C423   C     0.20414   0.83996   0.45346   0.00000  Uiso   1.00
C424   C     0.12919   0.82671   0.04654   0.00000  Uiso   1.00
C425   C     0.09278   0.81502   0.47584   0.00000  Uiso   1.00
C426   C     0.24056   0.85165   0.02416   0.00000  Uiso   1.00
N427   N     0.16667   0.95240   0.25000   0.00000  Uiso   1.00
N428   N     0.16667   0.71427   0.25000   0.00000  Uiso   1.00
O429   O     0.10559   0.87154   0.25000   0.00000  Uiso   1.00
O430   O     0.22774   0.79513   0.25000   0.00000  Uiso   1.00
O431   O     0.22774   0.87154   0.25001   0.00000  Uiso   1.00
O432   O     0.10559   0.79513   0.25000   0.00000  Uiso   1.00
O433   O     0.16666   0.87156   0.18393   0.00000  Uiso   1.00
O434   O     0.16667   0.79511   0.31608   0.00000  Uiso   1.00
O435   O     0.16667   0.87156   0.31608   0.00000  Uiso   1.00
O436   O     0.16666   0.79511   0.18393   0.00000  Uiso   1.00
Zn437  Zn    0.16667   0.88437   0.25000   0.00000  Uiso   1.00
Zn438  Zn    0.16667   0.78229   0.25000   0.00000  Uiso   1.00
Cl439  Cl    0.24968   0.82127   0.37664   0.00000  Uiso   1.00
Cl440  Cl    0.08365   0.84539   0.12336   0.00000  Uiso   1.00
C441   C     0.09093   0.84355   0.38029   0.00000  Uiso   1.00
N442   N     0.06096   0.85156   0.35995   0.00000  Uiso   1.00
C443   C     0.24241   0.82311   0.11971   0.00000  Uiso   1.00
N444   N     0.27237   0.81511   0.14005   0.00000  Uiso   1.00
C445   C     0.05632   0.79840   0.45267   0.00000  Uiso   1.00
N446   N     0.02718   0.78498   0.43451   0.00000  Uiso   1.00
C447   C     0.27701   0.86827   0.04733   0.00000  Uiso   1.00
N448   N     0.30616   0.88169   0.06549   0.00000  Uiso   1.00
Cl449  Cl    0.05119   0.78766   0.04942   0.00000  Uiso   1.00
Cl450  Cl    0.28214   0.87901   0.45058   0.00000  Uiso   1.00
C451   C     0.04179   0.75267   0.27907   0.00000  Uiso   1.00
N452   N     0.05778   0.72064   0.29384   0.00000  Uiso   1.00
C453   C     0.29154   0.91400   0.22094   0.00000  Uiso   1.00
N454   N     0.27555   0.94602   0.20616   0.00000  Uiso   1.00
C455   C     0.29560   0.74761   0.24150   0.00000  Uiso   1.00
N456   N     0.28187   0.71254   0.23440   0.00000  Uiso   1.00
C457   C     0.03774   0.91906   0.25850   0.00000  Uiso   1.00
N458   N     0.05146   0.95412   0.26560   0.00000  Uiso   1.00
Cl459  Cl    0.22216   0.71830   0.31897   0.00000  Uiso   1.00
Cl460  Cl    0.11118   0.94836   0.18103   0.00000  Uiso   1.00
Cl461  Cl    0.10927   0.72086   0.18286   0.00000  Uiso   1.00
Cl462  Cl    0.22406   0.94581   0.31714   0.00000  Uiso   1.00
C463   C     0.42011   0.83372   0.25348   0.00000  Uiso   1.00
C464   C     0.57989   0.83295   0.24652   0.00000  Uiso   1.00
C465   C     0.42669   0.81364   0.02258   0.00000  Uiso   1.00
C466   C     0.57331   0.85303   0.47742   0.00000  Uiso   1.00
C467   C     0.35495   0.79308   0.26077   0.00000  Uiso   1.00
C468   C     0.64505   0.87358   0.23923   0.00000  Uiso   1.00
C469   C     0.64675   0.79151   0.24980   0.00000  Uiso   1.00
C470   C     0.35325   0.87515   0.25020   0.00000  Uiso   1.00
C471   C     0.62439   0.83231   0.24311   0.00000  Uiso   1.00
C472   C     0.37561   0.83436   0.25689   0.00000  Uiso   1.00
C473   C     0.52433   0.69006   0.27969   0.00000  Uiso   1.00
C474   C     0.47567   0.97661   0.22031   0.00000  Uiso   1.00
C475   C     0.47544   0.69115   0.22053   0.00000  Uiso   1.00
C476   C     0.52456   0.97552   0.27947   0.00000  Uiso   1.00
C477   C     0.50013   0.83333   0.16371   0.00000  Uiso   1.00
C478   C     0.49987   0.83333   0.33629   0.00000  Uiso   1.00
C479   C     0.53739   0.83381   0.40697   0.00000  Uiso   1.00
C480   C     0.46261   0.83285   0.09303   0.00000  Uiso   1.00
C481   C     0.49967   0.83350   0.38399   0.00000  Uiso   1.00
C482   C     0.50033   0.83317   0.11601   0.00000  Uiso   1.00
C483   C     0.46195   0.83394   0.40592   0.00000  Uiso   1.00
C484   C     0.53805   0.83273   0.09408   0.00000  Uiso   1.00
C485   C     0.46196   0.82783   0.45256   0.00000  Uiso   1.00
C486   C     0.53804   0.83884   0.04744   0.00000  Uiso   1.00
C487   C     0.49987   0.83354   0.47654   0.00000  Uiso   1.00
C488   C     0.50013   0.83312   0.02346   0.00000  Uiso   1.00
C489   C     0.53748   0.83996   0.45346   0.00000  Uiso   1.00
C490   C     0.46252   0.82671   0.04654   0.00000  Uiso   1.00
C491   C     0.42611   0.81502   0.47584   0.00000  Uiso   1.00
C492   C     0.57389   0.85165   0.02416   0.00000  Uiso   1.00
N493   N     0.50000   0.95240   0.25000   0.00000  Uiso   1.00
N494   N     0.50000   0.71427   0.25000   0.00000  Uiso   1.00
O495   O     0.43892   0.87154   0.25000   0.00000  Uiso   1.00
O496   O     0.56108   0.79513   0.25000   0.00000  Uiso   1.00
O497   O     0.56108   0.87154   0.25001   0.00000  Uiso   1.00
O498   O     0.43892   0.79513   0.25000   0.00000  Uiso   1.00
O499   O     0.49999   0.87156   0.18393   0.00000  Uiso   1.00
O500   O     0.50001   0.79511   0.31608   0.00000  Uiso   1.00
O501   O     0.50001   0.87156   0.31608   0.00000  Uiso   1.00
O502   O     0.49999   0.79511   0.18393   0.00000  Uiso   1.00
Zn503  Zn    0.50000   0.88437   0.25000   0.00000  Uiso   1.00
Zn504  Zn    0.50000   0.78229   0.25000   0.00000  Uiso   1.00
Cl505  Cl    0.58301   0.82127   0.37664   0.00000  Uiso   1.00
Cl506  Cl    0.41699   0.84539   0.12336   0.00000  Uiso   1.00
C507   C     0.42426   0.84355   0.38029   0.00000  Uiso   1.00
N508   N     0.39429   0.85156   0.35995   0.00000  Uiso   1.00
C509   C     0.57574   0.82311   0.11971   0.00000  Uiso   1.00
N510   N     0.60571   0.81511   0.14005   0.00000  Uiso   1.00
C511   C     0.38965   0.79840   0.45267   0.00000  Uiso   1.00
N512   N     0.36051   0.78498   0.43451   0.00000  Uiso   1.00
C513   C     0.61035   0.86827   0.04733   0.00000  Uiso   1.00
N514   N     0.63949   0.88169   0.06549   0.00000  Uiso   1.00
Cl515  Cl    0.38452   0.78766   0.04942   0.00000  Uiso   1.00
Cl516  Cl    0.61548   0.87901   0.45058   0.00000  Uiso   1.00
C517   C     0.37513   0.75267   0.27907   0.00000  Uiso   1.00
N518   N     0.39112   0.72064   0.29384   0.00000  Uiso   1.00
C519   C     0.62488   0.91400   0.22094   0.00000  Uiso   1.00
N520   N     0.60888   0.94602   0.20616   0.00000  Uiso   1.00
C521   C     0.62893   0.74761   0.24150   0.00000  Uiso   1.00
N522   N     0.61520   0.71254   0.23440   0.00000  Uiso   1.00
C523   C     0.37107   0.91906   0.25850   0.00000  Uiso   1.00
N524   N     0.38480   0.95412   0.26560   0.00000  Uiso   1.00
Cl525  Cl    0.55549   0.71830   0.31897   0.00000  Uiso   1.00
Cl526  Cl    0.44451   0.94836   0.18103   0.00000  Uiso   1.00
Cl527  Cl    0.44261   0.72086   0.18286   0.00000  Uiso   1.00
Cl528  Cl    0.55739   0.94581   0.31714   0.00000  Uiso   1.00
C529   C     0.75345   0.83372   0.25348   0.00000  Uiso   1.00
C530   C     0.91322   0.83295   0.24652   0.00000  Uiso   1.00
C531   C     0.76003   0.81364   0.02258   0.00000  Uiso   1.00
C532   C     0.90664   0.85303   0.47742   0.00000  Uiso   1.00
C533   C     0.68828   0.79308   0.26077   0.00000  Uiso   1.00
C534   C     0.97838   0.87358   0.23923   0.00000  Uiso   1.00
C535   C     0.98008   0.79151   0.24980   0.00000  Uiso   1.00
C536   C     0.68658   0.87515   0.25020   0.00000  Uiso   1.00
C537   C     0.95772   0.83231   0.24311   0.00000  Uiso   1.00
C538   C     0.70894   0.83436   0.25689   0.00000  Uiso   1.00
C539   C     0.85766   0.69006   0.27969   0.00000  Uiso   1.00
C540   C     0.80901   0.97661   0.22031   0.00000  Uiso   1.00
C541   C     0.80877   0.69115   0.22053   0.00000  Uiso   1.00
C542   C     0.85790   0.97552   0.27947   0.00000  Uiso   1.00
C543   C     0.83346   0.83333   0.16371   0.00000  Uiso   1.00
C544   C     0.83320   0.83333   0.33629   0.00000  Uiso   1.00
C545   C     0.87073   0.83381   0.40697   0.00000  Uiso   1.00
C546   C     0.79594   0.83285   0.09303   0.00000  Uiso   1.00
C547   C     0.83300   0.83350   0.38399   0.00000  Uiso   1.00
C548   C     0.83366   0.83317   0.11601   0.00000  Uiso   1.00
C549   C     0.79529   0.83394   0.40592   0.00000  Uiso   1.00
C550   C     0.87138   0.83273   0.09408   0.00000  Uiso   1.00
C551   C     0.79529   0.82783   0.45256   0.00000  Uiso   1.00
C552   C     0.87138   0.83884   0.04744   0.00000  Uiso   1.00
C553   C     0.83320   0.83354   0.47654   0.00000  Uiso   1.00
C554   C     0.83346   0.83312   0.02346   0.00000  Uiso   1.00
C555   C     0.87081   0.83996   0.45346   0.00000  Uiso   1.00
C556   C     0.79586   0.82671   0.04654   0.00000  Uiso   1.00
C557   C     0.75944   0.81502   0.47584   0.00000  Uiso   1.00
C558   C     0.90722   0.85165   0.02416   0.00000  Uiso   1.00
N559   N     0.83333   0.95240   0.25000   0.00000  Uiso   1.00
N560   N     0.83333   0.71427   0.25000   0.00000  Uiso   1.00
O561   O     0.77226   0.87154   0.25000   0.00000  Uiso   1.00
O562   O     0.89441   0.79513   0.25000   0.00000  Uiso   1.00
O563   O     0.89441   0.87154   0.25001   0.00000  Uiso   1.00
O564   O     0.77226   0.79513   0.25000   0.00000  Uiso   1.00
O565   O     0.83333   0.87156   0.18393   0.00000  Uiso   1.00
O566   O     0.83334   0.79511   0.31608   0.00000  Uiso   1.00
O567   O     0.83334   0.87156   0.31608   0.00000  Uiso   1.00
O568   O     0.83333   0.79511   0.18393   0.00000  Uiso   1.00
Zn569  Zn    0.83333   0.88437   0.25000   0.00000  Uiso   1.00
Zn570  Zn    0.83333   0.78229   0.25000   0.00000  Uiso   1.00
Cl571  Cl    0.91635   0.82127   0.37664   0.00000  Uiso   1.00
Cl572  Cl    0.75032   0.84539   0.12336   0.00000  Uiso   1.00
C573   C     0.75759   0.84355   0.38029   0.00000  Uiso   1.00
N574   N     0.72763   0.85156   0.35995   0.00000  Uiso   1.00
C575   C     0.90907   0.82311   0.11971   0.00000  Uiso   1.00
N576   N     0.93904   0.81511   0.14005   0.00000  Uiso   1.00
C577   C     0.72299   0.79840   0.45267   0.00000  Uiso   1.00
N578   N     0.69384   0.78498   0.43451   0.00000  Uiso   1.00
C579   C     0.94368   0.86827   0.04733   0.00000  Uiso   1.00
N580   N     0.97282   0.88169   0.06549   0.00000  Uiso   1.00
Cl581  Cl    0.71786   0.78766   0.04942   0.00000  Uiso   1.00
Cl582  Cl    0.94881   0.87901   0.45058   0.00000  Uiso   1.00
C583   C     0.70846   0.75267   0.27907   0.00000  Uiso   1.00
N584   N     0.72445   0.72064   0.29384   0.00000  Uiso   1.00
C585   C     0.95821   0.91400   0.22094   0.00000  Uiso   1.00
N586   N     0.94222   0.94602   0.20616   0.00000  Uiso   1.00
C587   C     0.96226   0.74761   0.24150   0.00000  Uiso   1.00
N588   N     0.94854   0.71254   0.23440   0.00000  Uiso   1.00
C589   C     0.70440   0.91906   0.25850   0.00000  Uiso   1.00
N590   N     0.71813   0.95412   0.26560   0.00000  Uiso   1.00
Cl591  Cl    0.88882   0.71830   0.31897   0.00000  Uiso   1.00
Cl592  Cl    0.77784   0.94836   0.18103   0.00000  Uiso   1.00
Cl593  Cl    0.77594   0.72086   0.18286   0.00000  Uiso   1.00
Cl594  Cl    0.89073   0.94581   0.31714   0.00000  Uiso   1.00
C595   C     0.08678   0.16705   0.75348   0.00000  Uiso   1.00
C596   C     0.24655   0.16628   0.74652   0.00000  Uiso   1.00
C597   C     0.09336   0.14697   0.52258   0.00000  Uiso   1.00
C598   C     0.23997   0.18636   0.97742   0.00000  Uiso   1.00
C599   C     0.02162   0.12642   0.76077   0.00000  Uiso   1.00
C600   C     0.31172   0.20692   0.73923   0.00000  Uiso   1.00
C601   C     0.31342   0.12485   0.74980   0.00000  Uiso   1.00
C602   C     0.01992   0.20849   0.75020   0.00000  Uiso   1.00
C603   C     0.29106   0.16564   0.74311   0.00000  Uiso   1.00
C604   C     0.04228   0.16769   0.75689   0.00000  Uiso   1.00
C605   C     0.19099   0.02339   0.77969   0.00000  Uiso   1.00
C606   C     0.14234   0.30994   0.72031   0.00000  Uiso   1.00
C607   C     0.14210   0.02448   0.72053   0.00000  Uiso   1.00
C608   C     0.19123   0.30885   0.77947   0.00000  Uiso   1.00
C609   C     0.16680   0.16667   0.66371   0.00000  Uiso   1.00
C610   C     0.16654   0.16667   0.83629   0.00000  Uiso   1.00
C611   C     0.20406   0.16715   0.90697   0.00000  Uiso   1.00
C612   C     0.12927   0.16619   0.59303   0.00000  Uiso   1.00
C613   C     0.16634   0.16683   0.88399   0.00000  Uiso   1.00
C614   C     0.16700   0.16650   0.61601   0.00000  Uiso   1.00
C615   C     0.12862   0.16727   0.90592   0.00000  Uiso   1.00
C616   C     0.20471   0.16606   0.59408   0.00000  Uiso   1.00
C617   C     0.12862   0.16116   0.95256   0.00000  Uiso   1.00
C618   C     0.20471   0.17217   0.54744   0.00000  Uiso   1.00
C619   C     0.16654   0.16688   0.97654   0.00000  Uiso   1.00
C620   C     0.16680   0.16646   0.52346   0.00000  Uiso   1.00
C621   C     0.20414   0.17329   0.95346   0.00000  Uiso   1.00
C622   C     0.12919   0.16004   0.54654   0.00000  Uiso   1.00
C623   C     0.09278   0.14835   0.97584   0.00000  Uiso   1.00
C624   C     0.24056   0.18498   0.52416   0.00000  Uiso   1.00
N625   N     0.16667   0.28573   0.75000   0.00000  Uiso   1.00
N626   N     0.16667   0.04760   0.75000   0.00000  Uiso   1.00
O627   O     0.10559   0.20487   0.75000   0.00000  Uiso   1.00
O628   O     0.22774   0.12846   0.75000   0.00000  Uiso   1.00
O629   O     0.22774   0.20487   0.75001   0.00000  Uiso   1.00
O630   O     0.10559   0.12846   0.75000   0.00000  Uiso   1.00
O631   O     0.16666   0.20489   0.68393   0.00000  Uiso   1.00
O632   O     0.16667   0.12844   0.81608   0.00000  Uiso   1.00
O633   O     0.16667   0.20489   0.81608   0.00000  Uiso   1.00
O634   O     0.16666   0.12844   0.68393   0.00000  Uiso   1.00
Zn635  Zn    0.16667   0.21771   0.75000   0.00000  Uiso   1.00
Zn636  Zn    0.16667   0.11563   0.75000   0.00000  Uiso   1.00
Cl637  Cl    0.24968   0.15461   0.87664   0.00000  Uiso   1.00
Cl638  Cl    0.08365   0.17873   0.62336   0.00000  Uiso   1.00
C639   C     0.09093   0.17689   0.88029   0.00000  Uiso   1.00
N640   N     0.06096   0.18489   0.85995   0.00000  Uiso   1.00
C641   C     0.24241   0.15645   0.61971   0.00000  Uiso   1.00
N642   N     0.27237   0.14844   0.64005   0.00000  Uiso   1.00
C643   C     0.05632   0.13173   0.95267   0.00000  Uiso   1.00
N644   N     0.02718   0.11831   0.93451   0.00000  Uiso   1.00
C645   C     0.27701   0.20160   0.54733   0.00000  Uiso   1.00
N646   N     0.30616   0.21502   0.56549   0.00000  Uiso   1.00
Cl647  Cl    0.05119   0.12099   0.54942   0.00000  Uiso   1.00
Cl648  Cl    0.28214   0.21234   0.95058   0.00000  Uiso   1.00
C649   C     0.04179   0.08600   0.77907   0.00000  Uiso   1.00
N650   N     0.05778   0.05398   0.79384   0.00000  Uiso   1.00
C651   C     0.29154   0.24733   0.72094   0.00000  Uiso   1.00
N652   N     0.27555   0.27936   0.70616   0.00000  Uiso   1.00
C653   C     0.29560   0.08094   0.74150   0.00000  Uiso   1.00
N654   N     0.28187   0.04588   0.73440   0.00000  Uiso   1.00
C655   C     0.03774   0.25239   0.75850   0.00000  Uiso   1.00
N656   N     0.05146   0.28746   0.76560   0.00000  Uiso   1.00
Cl657  Cl    0.22216   0.05164   0.81897   0.00000  Uiso   1.00
Cl658  Cl    0.11118   0.28170   0.68103   0.00000  Uiso   1.00
Cl659  Cl    0.10927   0.05419   0.68286   0.00000  Uiso   1.00
Cl660  Cl    0.22406   0.27914   0.81714   0.00000  Uiso   1.00
C661   C     0.42011   0.16705   0.75348   0.00000  Uiso   1.00
C662   C     0.57989   0.16628   0.74652   0.00000  Uiso   1.00
C663   C     0.42669   0.14697   0.52258   0.00000  Uiso   1.00
C664   C     0.57331   0.18636   0.97742   0.00000  Uiso   1.00
C665   C     0.35495   0.12642   0.76077   0.00000  Uiso   1.00
C666   C     0.64505   0.20692   0.73923   0.00000  Uiso   1.00
C667   C     0.64675   0.12485   0.74980   0.00000  Uiso   1.00
C668   C     0.35325   0.20849   0.75020   0.00000  Uiso   1.00
C669   C     0.62439   0.16564   0.74311   0.00000  Uiso   1.00
C670   C     0.37561   0.16769   0.75689   0.00000  Uiso   1.00
C671   C     0.52433   0.02339   0.77969   0.00000  Uiso   1.00
C672   C     0.47567   0.30994   0.72031   0.00000  Uiso   1.00
C673   C     0.47544   0.02448   0.72053   0.00000  Uiso   1.00
C674   C     0.52456   0.30885   0.77947   0.00000  Uiso   1.00
C675   C     0.50013   0.16667   0.66371   0.00000  Uiso   1.00
C676   C     0.49987   0.16667   0.83629   0.00000  Uiso   1.00
C677   C     0.53739   0.16715   0.90697   0.00000  Uiso   1.00
C678   C     0.46261   0.16619   0.59303   0.00000  Uiso   1.00
C679   C     0.49967   0.16683   0.88399   0.00000  Uiso   1.00
C680   C     0.50033   0.16650   0.61601   0.00000  Uiso   1.00
C681   C     0.46195   0.16727   0.90592   0.00000  Uiso   1.00
C682   C     0.53805   0.16606   0.59408   0.00000  Uiso   1.00
C683   C     0.46196   0.16116   0.95256   0.00000  Uiso   1.00
C684   C     0.53804   0.17217   0.54744   0.00000  Uiso   1.00
C685   C     0.49987   0.16688   0.97654   0.00000  Uiso   1.00
C686   C     0.50013   0.16646   0.52346   0.00000  Uiso   1.00
C687   C     0.53748   0.17329   0.95346   0.00000  Uiso   1.00
C688   C     0.46252   0.16004   0.54654   0.00000  Uiso   1.00
C689   C     0.42611   0.14835   0.97584   0.00000  Uiso   1.00
C690   C     0.57389   0.18498   0.52416   0.00000  Uiso   1.00
N691   N     0.50000   0.28573   0.75000   0.00000  Uiso   1.00
N692   N     0.50000   0.04760   0.75000   0.00000  Uiso   1.00
O693   O     0.43892   0.20487   0.75000   0.00000  Uiso   1.00
O694   O     0.56108   0.12846   0.75000   0.00000  Uiso   1.00
O695   O     0.56108   0.20487   0.75001   0.00000  Uiso   1.00
O696   O     0.43892   0.12846   0.75000   0.00000  Uiso   1.00
O697   O     0.49999   0.20489   0.68393   0.00000  Uiso   1.00
O698   O     0.50001   0.12844   0.81608   0.00000  Uiso   1.00
O699   O     0.50001   0.20489   0.81608   0.00000  Uiso   1.00
O700   O     0.49999   0.12844   0.68393   0.00000  Uiso   1.00
Zn701  Zn    0.50000   0.21771   0.75000   0.00000  Uiso   1.00
Zn702  Zn    0.50000   0.11563   0.75000   0.00000  Uiso   1.00
Cl703  Cl    0.58301   0.15461   0.87664   0.00000  Uiso   1.00
Cl704  Cl    0.41699   0.17873   0.62336   0.00000  Uiso   1.00
C705   C     0.42426   0.17689   0.88029   0.00000  Uiso   1.00
N706   N     0.39429   0.18489   0.85995   0.00000  Uiso   1.00
C707   C     0.57574   0.15645   0.61971   0.00000  Uiso   1.00
N708   N     0.60571   0.14844   0.64005   0.00000  Uiso   1.00
C709   C     0.38965   0.13173   0.95267   0.00000  Uiso   1.00
N710   N     0.36051   0.11831   0.93451   0.00000  Uiso   1.00
C711   C     0.61035   0.20160   0.54733   0.00000  Uiso   1.00
N712   N     0.63949   0.21502   0.56549   0.00000  Uiso   1.00
Cl713  Cl    0.38452   0.12099   0.54942   0.00000  Uiso   1.00
Cl714  Cl    0.61548   0.21234   0.95058   0.00000  Uiso   1.00
C715   C     0.37513   0.08600   0.77907   0.00000  Uiso   1.00
N716   N     0.39112   0.05398   0.79384   0.00000  Uiso   1.00
C717   C     0.62488   0.24733   0.72094   0.00000  Uiso   1.00
N718   N     0.60888   0.27936   0.70616   0.00000  Uiso   1.00
C719   C     0.62893   0.08094   0.74150   0.00000  Uiso   1.00
N720   N     0.61520   0.04588   0.73440   0.00000  Uiso   1.00
C721   C     0.37107   0.25239   0.75850   0.00000  Uiso   1.00
N722   N     0.38480   0.28746   0.76560   0.00000  Uiso   1.00
Cl723  Cl    0.55549   0.05164   0.81897   0.00000  Uiso   1.00
Cl724  Cl    0.44451   0.28170   0.68103   0.00000  Uiso   1.00
Cl725  Cl    0.44261   0.05419   0.68286   0.00000  Uiso   1.00
Cl726  Cl    0.55739   0.27914   0.81714   0.00000  Uiso   1.00
C727   C     0.75345   0.16705   0.75348   0.00000  Uiso   1.00
C728   C     0.91322   0.16628   0.74652   0.00000  Uiso   1.00
C729   C     0.76003   0.14697   0.52258   0.00000  Uiso   1.00
C730   C     0.90664   0.18636   0.97742   0.00000  Uiso   1.00
C731   C     0.68828   0.12642   0.76077   0.00000  Uiso   1.00
C732   C     0.97838   0.20692   0.73923   0.00000  Uiso   1.00
C733   C     0.98008   0.12485   0.74980   0.00000  Uiso   1.00
C734   C     0.68658   0.20849   0.75020   0.00000  Uiso   1.00
C735   C     0.95772   0.16564   0.74311   0.00000  Uiso   1.00
C736   C     0.70894   0.16769   0.75689   0.00000  Uiso   1.00
C737   C     0.85766   0.02339   0.77969   0.00000  Uiso   1.00
C738   C     0.80901   0.30994   0.72031   0.00000  Uiso   1.00
C739   C     0.80877   0.02448   0.72053   0.00000  Uiso   1.00
C740   C     0.85790   0.30885   0.77947   0.00000  Uiso   1.00
C741   C     0.83346   0.16667   0.66371   0.00000  Uiso   1.00
C742   C     0.83320   0.16667   0.83629   0.00000  Uiso   1.00
C743   C     0.87073   0.16715   0.90697   0.00000  Uiso   1.00
C744   C     0.79594   0.16619   0.59303   0.00000  Uiso   1.00
C745   C     0.83300   0.16683   0.88399   0.00000  Uiso   1.00
C746   C     0.83366   0.16650   0.61601   0.00000  Uiso   1.00
C747   C     0.79529   0.16727   0.90592   0.00000  Uiso   1.00
C748   C     0.87138   0.16606   0.59408   0.00000  Uiso   1.00
C749   C     0.79529   0.16116   0.95256   0.00000  Uiso   1.00
C750   C     0.87138   0.17217   0.54744   0.00000  Uiso   1.00
C751   C     0.83320   0.16688   0.97654   0.00000  Uiso   1.00
C752   C     0.83346   0.16646   0.52346   0.00000  Uiso   1.00
C753   C     0.87081   0.17329   0.95346   0.00000  Uiso   1.00
C754   C     0.79586   0.16004   0.54654   0.00000  Uiso   1.00
C755   C     0.75944   0.14835   0.97584   0.00000  Uiso   1.00
C756   C     0.90722   0.18498   0.52416   0.00000  Uiso   1.00
N757   N     0.83333   0.28573   0.75000   0.00000  Uiso   1.00
N758   N     0.83333   0.04760   0.75000   0.00000  Uiso   1.00
O759   O     0.77226   0.20487   0.75000   0.00000  Uiso   1.00
O760   O     0.89441   0.12846   0.75000   0.00000  Uiso   1.00
O761   O     0.89441   0.20487   0.75001   0.00000  Uiso   1.00
O762   O     0.77226   0.12846   0.75000   0.00000  Uiso   1.00
O763   O     0.83333   0.20489   0.68393   0.00000  Uiso   1.00
O764   O     0.83334   0.12844   0.81608   0.00000  Uiso   1.00
O765   O     0.83334   0.20489   0.81608   0.00000  Uiso   1.00
O766   O     0.83333   0.12844   0.68393   0.00000  Uiso   1.00
Zn767  Zn    0.83333   0.21771   0.75000   0.00000  Uiso   1.00
Zn768  Zn    0.83333   0.11563   0.75000   0.00000  Uiso   1.00
Cl769  Cl    0.91635   0.15461   0.87664   0.00000  Uiso   1.00
Cl770  Cl    0.75032   0.17873   0.62336   0.00000  Uiso   1.00
C771   C     0.75759   0.17689   0.88029   0.00000  Uiso   1.00
N772   N     0.72763   0.18489   0.85995   0.00000  Uiso   1.00
C773   C     0.90907   0.15645   0.61971   0.00000  Uiso   1.00
N774   N     0.93904   0.14844   0.64005   0.00000  Uiso   1.00
C775   C     0.72299   0.13173   0.95267   0.00000  Uiso   1.00
N776   N     0.69384   0.11831   0.93451   0.00000  Uiso   1.00
C777   C     0.94368   0.20160   0.54733   0.00000  Uiso   1.00
N778   N     0.97282   0.21502   0.56549   0.00000  Uiso   1.00
Cl779  Cl    0.71786   0.12099   0.54942   0.00000  Uiso   1.00
Cl780  Cl    0.94881   0.21234   0.95058   0.00000  Uiso   1.00
C781   C     0.70846   0.08600   0.77907   0.00000  Uiso   1.00
N782   N     0.72445   0.05398   0.79384   0.00000  Uiso   1.00
C783   C     0.95821   0.24733   0.72094   0.00000  Uiso   1.00
N784   N     0.94222   0.27936   0.70616   0.00000  Uiso   1.00
C785   C     0.96226   0.08094   0.74150   0.00000  Uiso   1.00
N786   N     0.94854   0.04588   0.73440   0.00000  Uiso   1.00
C787   C     0.70440   0.25239   0.75850   0.00000  Uiso   1.00
N788   N     0.71813   0.28746   0.76560   0.00000  Uiso   1.00
Cl789  Cl    0.88882   0.05164   0.81897   0.00000  Uiso   1.00
Cl790  Cl    0.77784   0.28170   0.68103   0.00000  Uiso   1.00
Cl791  Cl    0.77594   0.05419   0.68286   0.00000  Uiso   1.00
Cl792  Cl    0.89073   0.27914   0.81714   0.00000  Uiso   1.00
C793   C     0.08678   0.50038   0.75348   0.00000  Uiso   1.00
C794   C     0.24655   0.49962   0.74652   0.00000  Uiso   1.00
C795   C     0.09336   0.48031   0.52258   0.00000  Uiso   1.00
C796   C     0.23997   0.51969   0.97742   0.00000  Uiso   1.00
C797   C     0.02162   0.45975   0.76077   0.00000  Uiso   1.00
C798   C     0.31172   0.54025   0.73923   0.00000  Uiso   1.00
C799   C     0.31342   0.45818   0.74980   0.00000  Uiso   1.00
C800   C     0.01992   0.54182   0.75020   0.00000  Uiso   1.00
C801   C     0.29106   0.49897   0.74311   0.00000  Uiso   1.00
C802   C     0.04228   0.50103   0.75689   0.00000  Uiso   1.00
C803   C     0.19099   0.35672   0.77969   0.00000  Uiso   1.00
C804   C     0.14234   0.64328   0.72031   0.00000  Uiso   1.00
C805   C     0.14210   0.35782   0.72053   0.00000  Uiso   1.00
C806   C     0.19123   0.64218   0.77947   0.00000  Uiso   1.00
C807   C     0.16680   0.50000   0.66371   0.00000  Uiso   1.00
C808   C     0.16654   0.50000   0.83629   0.00000  Uiso   1.00
C809   C     0.20406   0.50048   0.90697   0.00000  Uiso   1.00
C810   C     0.12927   0.49952   0.59303   0.00000  Uiso   1.00
C811   C     0.16634   0.50016   0.88399   0.00000  Uiso   1.00
C812   C     0.16700   0.49984   0.61601   0.00000  Uiso   1.00
C813   C     0.12862   0.50061   0.90592   0.00000  Uiso   1.00
C814   C     0.20471   0.49939   0.59408   0.00000  Uiso   1.00
C815   C     0.12862   0.49449   0.95256   0.00000  Uiso   1.00
C816   C     0.20471   0.50551   0.54744   0.00000  Uiso   1.00
C817   C     0.16654   0.50021   0.97654   0.00000  Uiso   1.00
C818   C     0.16680   0.49979   0.52346   0.00000  Uiso   1.00
C819   C     0.20414   0.50662   0.95346   0.00000  Uiso   1.00
C820   C     0.12919   0.49338   0.54654   0.00000  Uiso   1.00
C821   C     0.09278   0.48169   0.97584   0.00000  Uiso   1.00
C822   C     0.24056   0.51831   0.52416   0.00000  Uiso   1.00
N823   N     0.16667   0.61907   0.75000   0.00000  Uiso   1.00
N824   N     0.16667   0.38093   0.75000   0.00000  Uiso   1.00
O825   O     0.10559   0.53821   0.75000   0.00000  Uiso   1.00
O826   O     0.22774   0.46179   0.75000   0.00000  Uiso   1.00
O827   O     0.22774   0.53821   0.75001   0.00000  Uiso   1.00
O828   O     0.10559   0.46179   0.75000   0.00000  Uiso   1.00
O829   O     0.16666   0.53823   0.68393   0.00000  Uiso   1.00
O830   O     0.16667   0.46177   0.81608   0.00000  Uiso   1.00
O831   O     0.16667   0.53823   0.81608   0.00000  Uiso   1.00
O832   O     0.16666   0.46177   0.68393   0.00000  Uiso   1.00
Zn833  Zn    0.16667   0.55104   0.75000   0.00000  Uiso   1.00
Zn834  Zn    0.16667   0.44896   0.75000   0.00000  Uiso   1.00
Cl835  Cl    0.24968   0.48794   0.87664   0.00000  Uiso   1.00
Cl836  Cl    0.08365   0.51206   0.62336   0.00000  Uiso   1.00
C837   C     0.09093   0.51022   0.88029   0.00000  Uiso   1.00
N838   N     0.06096   0.51823   0.85995   0.00000  Uiso   1.00
C839   C     0.24241   0.48978   0.61971   0.00000  Uiso   1.00
N840   N     0.27237   0.48177   0.64005   0.00000  Uiso   1.00
C841   C     0.05632   0.46507   0.95267   0.00000  Uiso   1.00
N842   N     0.02718   0.45164   0.93451   0.00000  Uiso   1.00
C843   C     0.27701   0.53493   0.54733   0.00000  Uiso   1.00
N844   N     0.30616   0.54836   0.56549   0.00000  Uiso   1.00
Cl845  Cl    0.05119   0.45433   0.54942   0.00000  Uiso   1.00
Cl846  Cl    0.28214   0.54567   0.95058   0.00000  Uiso   1.00
C847   C     0.04179   0.41933   0.77907   0.00000  Uiso   1.00
N848   N     0.05778   0.38731   0.79384   0.00000  Uiso   1.00
C849   C     0.29154   0.58067   0.72094   0.00000  Uiso   1.00
N850   N     0.27555   0.61269   0.70616   0.00000  Uiso   1.00
C851   C     0.29560   0.41428   0.74150   0.00000  Uiso   1.00
N852   N     0.28187   0.37921   0.73440   0.00000  Uiso   1.00
C853   C     0.03774   0.58572   0.75850   0.00000  Uiso   1.00
N854   N     0.05146   0.62079   0.76560   0.00000  Uiso   1.00
Cl855  Cl    0.22216   0.38497   0.81897   0.00000  Uiso   1.00
Cl856  Cl    0.11118   0.61503   0.68103   0.00000  Uiso   1.00
Cl857  Cl    0.10927   0.38753   0.68286   0.00000  Uiso   1.00
Cl858  Cl    0.22406   0.61247   0.81714   0.00000  Uiso   1.00
C859   C     0.42011   0.50038   0.75348   0.00000  Uiso   1.00
C860   C     0.57989   0.49962   0.74652   0.00000  Uiso   1.00
C861   C     0.42669   0.48031   0.52258   0.00000  Uiso   1.00
C862   C     0.57331   0.51969   0.97742   0.00000  Uiso   1.00
C863   C     0.35495   0.45975   0.76077   0.00000  Uiso   1.00
C864   C     0.64505   0.54025   0.73923   0.00000  Uiso   1.00
C865   C     0.64675   0.45818   0.74980   0.00000  Uiso   1.00
C866   C     0.35325   0.54182   0.75020   0.00000  Uiso   1.00
C867   C     0.62439   0.49897   0.74311   0.00000  Uiso   1.00
C868   C     0.37561   0.50103   0.75689   0.00000  Uiso   1.00
C869   C     0.52433   0.35672   0.77969   0.00000  Uiso   1.00
C870   C     0.47567   0.64328   0.72031   0.00000  Uiso   1.00
C871   C     0.47544   0.35782   0.72053   0.00000  Uiso   1.00
C872   C     0.52456   0.64218   0.77947   0.00000  Uiso   1.00
C873   C     0.50013   0.50000   0.66371   0.00000  Uiso   1.00
C874   C     0.49987   0.50000   0.83629   0.00000  Uiso   1.00
C875   C     0.53739   0.50048   0.90697   0.00000  Uiso   1.00
C876   C     0.46261   0.49952   0.59303   0.00000  Uiso   1.00
C877   C     0.49967   0.50016   0.88399   0.00000  Uiso   1.00
C878   C     0.50033   0.49984   0.61601   0.00000  Uiso   1.00
C879   C     0.46195   0.50061   0.90592   0.00000  Uiso   1.00
C880   C     0.53805   0.49939   0.59408   0.00000  Uiso   1.00
C881   C     0.46196   0.49449   0.95256   0.00000  Uiso   1.00
C882   C     0.53804   0.50551   0.54744   0.00000  Uiso   1.00
C883   C     0.49987   0.50021   0.97654   0.00000  Uiso   1.00
C884   C     0.50013   0.49979   0.52346   0.00000  Uiso   1.00
C885   C     0.53748   0.50662   0.95346   0.00000  Uiso   1.00
C886   C     0.46252   0.49338   0.54654   0.00000  Uiso   1.00
C887   C     0.42611   0.48169   0.97584   0.00000  Uiso   1.00
C888   C     0.57389   0.51831   0.52416   0.00000  Uiso   1.00
N889   N     0.50000   0.61907   0.75000   0.00000  Uiso   1.00
N890   N     0.50000   0.38093   0.75000   0.00000  Uiso   1.00
O891   O     0.43892   0.53821   0.75000   0.00000  Uiso   1.00
O892   O     0.56108   0.46179   0.75000   0.00000  Uiso   1.00
O893   O     0.56108   0.53821   0.75001   0.00000  Uiso   1.00
O894   O     0.43892   0.46179   0.75000   0.00000  Uiso   1.00
O895   O     0.49999   0.53823   0.68393   0.00000  Uiso   1.00
O896   O     0.50001   0.46177   0.81608   0.00000  Uiso   1.00
O897   O     0.50001   0.53823   0.81608   0.00000  Uiso   1.00
O898   O     0.49999   0.46177   0.68393   0.00000  Uiso   1.00
Zn899  Zn    0.50000   0.55104   0.75000   0.00000  Uiso   1.00
Zn900  Zn    0.50000   0.44896   0.75000   0.00000  Uiso   1.00
Cl901  Cl    0.58301   0.48794   0.87664   0.00000  Uiso   1.00
Cl902  Cl    0.41699   0.51206   0.62336   0.00000  Uiso   1.00
C903   C     0.42426   0.51022   0.88029   0.00000  Uiso   1.00
N904   N     0.39429   0.51823   0.85995   0.00000  Uiso   1.00
C905   C     0.57574   0.48978   0.61971   0.00000  Uiso   1.00
N906   N     0.60571   0.48177   0.64005   0.00000  Uiso   1.00
C907   C     0.38965   0.46507   0.95267   0.00000  Uiso   1.00
N908   N     0.36051   0.45164   0.93451   0.00000  Uiso   1.00
C909   C     0.61035   0.53493   0.54733   0.00000  Uiso   1.00
N910   N     0.63949   0.54836   0.56549   0.00000  Uiso   1.00
Cl911  Cl    0.38452   0.45433   0.54942   0.00000  Uiso   1.00
Cl912  Cl    0.61548   0.54567   0.95058   0.00000  Uiso   1.00
C913   C     0.37513   0.41933   0.77907   0.00000  Uiso   1.00
N914   N     0.39112   0.38731   0.79384   0.00000  Uiso   1.00
C915   C     0.62488   0.58067   0.72094   0.00000  Uiso   1.00
N916   N     0.60888   0.61269   0.70616   0.00000  Uiso   1.00
C917   C     0.62893   0.41428   0.74150   0.00000  Uiso   1.00
N918   N     0.61520   0.37921   0.73440   0.00000  Uiso   1.00
C919   C     0.37107   0.58572   0.75850   0.00000  Uiso   1.00
N920   N     0.38480   0.62079   0.76560   0.00000  Uiso   1.00
Cl921  Cl    0.55549   0.38497   0.81897   0.00000  Uiso   1.00
Cl922  Cl    0.44451   0.61503   0.68103   0.00000  Uiso   1.00
Cl923  Cl    0.44261   0.38753   0.68286   0.00000  Uiso   1.00
Cl924  Cl    0.55739   0.61247   0.81714   0.00000  Uiso   1.00
C925   C     0.75345   0.50038   0.75348   0.00000  Uiso   1.00
C926   C     0.91322   0.49962   0.74652   0.00000  Uiso   1.00
C927   C     0.76003   0.48031   0.52258   0.00000  Uiso   1.00
C928   C     0.90664   0.51969   0.97742   0.00000  Uiso   1.00
C929   C     0.68828   0.45975   0.76077   0.00000  Uiso   1.00
C930   C     0.97838   0.54025   0.73923   0.00000  Uiso   1.00
C931   C     0.98008   0.45818   0.74980   0.00000  Uiso   1.00
C932   C     0.68658   0.54182   0.75020   0.00000  Uiso   1.00
C933   C     0.95772   0.49897   0.74311   0.00000  Uiso   1.00
C934   C     0.70894   0.50103   0.75689   0.00000  Uiso   1.00
C935   C     0.85766   0.35672   0.77969   0.00000  Uiso   1.00
C936   C     0.80901   0.64328   0.72031   0.00000  Uiso   1.00
C937   C     0.80877   0.35782   0.72053   0.00000  Uiso   1.00
C938   C     0.85790   0.64218   0.77947   0.00000  Uiso   1.00
C939   C     0.83346   0.50000   0.66371   0.00000  Uiso   1.00
C940   C     0.83320   0.50000   0.83629   0.00000  Uiso   1.00
C941   C     0.87073   0.50048   0.90697   0.00000  Uiso   1.00
C942   C     0.79594   0.49952   0.59303   0.00000  Uiso   1.00
C943   C     0.83300   0.50016   0.88399   0.00000  Uiso   1.00
C944   C     0.83366   0.49984   0.61601   0.00000  Uiso   1.00
C945   C     0.79529   0.50061   0.90592   0.00000  Uiso   1.00
C946   C     0.87138   0.49939   0.59408   0.00000  Uiso   1.00
C947   C     0.79529   0.49449   0.95256   0.00000  Uiso   1.00
C948   C     0.87138   0.50551   0.54744   0.00000  Uiso   1.00
C949   C     0.83320   0.50021   0.97654   0.00000  Uiso   1.00
C950   C     0.83346   0.49979   0.52346   0.00000  Uiso   1.00
C951   C     0.87081   0.50662   0.95346   0.00000  Uiso   1.00
C952   C     0.79586   0.49338   0.54654   0.00000  Uiso   1.00
C953   C     0.75944   0.48169   0.97584   0.00000  Uiso   1.00
C954   C     0.90722   0.51831   0.52416   0.00000  Uiso   1.00
N955   N     0.83333   0.61907   0.75000   0.00000  Uiso   1.00
N956   N     0.83333   0.38093   0.75000   0.00000  Uiso   1.00
O957   O     0.77226   0.53821   0.75000   0.00000  Uiso   1.00
O958   O     0.89441   0.46179   0.75000   0.00000  Uiso   1.00
O959   O     0.89441   0.53821   0.75001   0.00000  Uiso   1.00
O960   O     0.77226   0.46179   0.75000   0.00000  Uiso   1.00
O961   O     0.83333   0.53823   0.68393   0.00000  Uiso   1.00
O962   O     0.83334   0.46177   0.81608   0.00000  Uiso   1.00
O963   O     0.83334   0.53823   0.81608   0.00000  Uiso   1.00
O964   O     0.83333   0.46177   0.68393   0.00000  Uiso   1.00
Zn965  Zn    0.83333   0.55104   0.75000   0.00000  Uiso   1.00
Zn966  Zn    0.83333   0.44896   0.75000   0.00000  Uiso   1.00
Cl967  Cl    0.91635   0.48794   0.87664   0.00000  Uiso   1.00
Cl968  Cl    0.75032   0.51206   0.62336   0.00000  Uiso   1.00
C969   C     0.75759   0.51022   0.88029   0.00000  Uiso   1.00
N970   N     0.72763   0.51823   0.85995   0.00000  Uiso   1.00
C971   C     0.90907   0.48978   0.61971   0.00000  Uiso   1.00
N972   N     0.93904   0.48177   0.64005   0.00000  Uiso   1.00
C973   C     0.72299   0.46507   0.95267   0.00000  Uiso   1.00
N974   N     0.69384   0.45164   0.93451   0.00000  Uiso   1.00
C975   C     0.94368   0.53493   0.54733   0.00000  Uiso   1.00
N976   N     0.97282   0.54836   0.56549   0.00000  Uiso   1.00
Cl977  Cl    0.71786   0.45433   0.54942   0.00000  Uiso   1.00
Cl978  Cl    0.94881   0.54567   0.95058   0.00000  Uiso   1.00
C979   C     0.70846   0.41933   0.77907   0.00000  Uiso   1.00
N980   N     0.72445   0.38731   0.79384   0.00000  Uiso   1.00
C981   C     0.95821   0.58067   0.72094   0.00000  Uiso   1.00
N982   N     0.94222   0.61269   0.70616   0.00000  Uiso   1.00
C983   C     0.96226   0.41428   0.74150   0.00000  Uiso   1.00
N984   N     0.94854   0.37921   0.73440   0.00000  Uiso   1.00
C985   C     0.70440   0.58572   0.75850   0.00000  Uiso   1.00
N986   N     0.71813   0.62079   0.76560   0.00000  Uiso   1.00
Cl987  Cl    0.88882   0.38497   0.81897   0.00000  Uiso   1.00
Cl988  Cl    0.77784   0.61503   0.68103   0.00000  Uiso   1.00
Cl989  Cl    0.77594   0.38753   0.68286   0.00000  Uiso   1.00
Cl990  Cl    0.89073   0.61247   0.81714   0.00000  Uiso   1.00
C991   C     0.08678   0.83372   0.75348   0.00000  Uiso   1.00
C992   C     0.24655   0.83295   0.74652   0.00000  Uiso   1.00
C993   C     0.09336   0.81364   0.52258   0.00000  Uiso   1.00
C994   C     0.23997   0.85303   0.97742   0.00000  Uiso   1.00
C995   C     0.02162   0.79308   0.76077   0.00000  Uiso   1.00
C996   C     0.31172   0.87358   0.73923   0.00000  Uiso   1.00
C997   C     0.31342   0.79151   0.74980   0.00000  Uiso   1.00
C998   C     0.01992   0.87515   0.75020   0.00000  Uiso   1.00
C999   C     0.29106   0.83231   0.74311   0.00000  Uiso   1.00
C1000  C     0.04228   0.83436   0.75689   0.00000  Uiso   1.00
C1001  C     0.19099   0.69006   0.77969   0.00000  Uiso   1.00
C1002  C     0.14234   0.97661   0.72031   0.00000  Uiso   1.00
C1003  C     0.14210   0.69115   0.72053   0.00000  Uiso   1.00
C1004  C     0.19123   0.97552   0.77947   0.00000  Uiso   1.00
C1005  C     0.16680   0.83333   0.66371   0.00000  Uiso   1.00
C1006  C     0.16654   0.83333   0.83629   0.00000  Uiso   1.00
C1007  C     0.20406   0.83381   0.90697   0.00000  Uiso   1.00
C1008  C     0.12927   0.83285   0.59303   0.00000  Uiso   1.00
C1009  C     0.16634   0.83350   0.88399   0.00000  Uiso   1.00
C1010  C     0.16700   0.83317   0.61601   0.00000  Uiso   1.00
C1011  C     0.12862   0.83394   0.90592   0.00000  Uiso   1.00
C1012  C     0.20471   0.83273   0.59408   0.00000  Uiso   1.00
C1013  C     0.12862   0.82783   0.95256   0.00000  Uiso   1.00
C1014  C     0.20471   0.83884   0.54744   0.00000  Uiso   1.00
C1015  C     0.16654   0.83354   0.97654   0.00000  Uiso   1.00
C1016  C     0.16680   0.83312   0.52346   0.00000  Uiso   1.00
C1017  C     0.20414   0.83996   0.95346   0.00000  Uiso   1.00
C1018  C     0.12919   0.82671   0.54654   0.00000  Uiso   1.00
C1019  C     0.09278   0.81502   0.97584   0.00000  Uiso   1.00
C1020  C     0.24056   0.85165   0.52416   0.00000  Uiso   1.00
N1021  N     0.16667   0.95240   0.75000   0.00000  Uiso   1.00
N1022  N     0.16667   0.71427   0.75000   0.00000  Uiso   1.00
O1023  O     0.10559   0.87154   0.75000   0.00000  Uiso   1.00
O1024  O     0.22774   0.79513   0.75000   0.00000  Uiso   1.00
O1025  O     0.22774   0.87154   0.75001   0.00000  Uiso   1.00
O1026  O     0.10559   0.79513   0.75000   0.00000  Uiso   1.00
O1027  O     0.16666   0.87156   0.68393   0.00000  Uiso   1.00
O1028  O     0.16667   0.79511   0.81608   0.00000  Uiso   1.00
O1029  O     0.16667   0.87156   0.81608   0.00000  Uiso   1.00
O1030  O     0.16666   0.79511   0.68393   0.00000  Uiso   1.00
Zn1031 Zn    0.16667   0.88437   0.75000   0.00000  Uiso   1.00
Zn1032 Zn    0.16667   0.78229   0.75000   0.00000  Uiso   1.00
Cl1033 Cl    0.24968   0.82127   0.87664   0.00000  Uiso   1.00
Cl1034 Cl    0.08365   0.84539   0.62336   0.00000  Uiso   1.00
C1035  C     0.09093   0.84355   0.88029   0.00000  Uiso   1.00
N1036  N     0.06096   0.85156   0.85995   0.00000  Uiso   1.00
C1037  C     0.24241   0.82311   0.61971   0.00000  Uiso   1.00
N1038  N     0.27237   0.81511   0.64005   0.00000  Uiso   1.00
C1039  C     0.05632   0.79840   0.95267   0.00000  Uiso   1.00
N1040  N     0.02718   0.78498   0.93451   0.00000  Uiso   1.00
C1041  C     0.27701   0.86827   0.54733   0.00000  Uiso   1.00
N1042  N     0.30616   0.88169   0.56549   0.00000  Uiso   1.00
Cl1043 Cl    0.05119   0.78766   0.54942   0.00000  Uiso   1.00
Cl1044 Cl    0.28214   0.87901   0.95058   0.00000  Uiso   1.00
C1045  C     0.04179   0.75267   0.77907   0.00000  Uiso   1.00
N1046  N     0.05778   0.72064   0.79384   0.00000  Uiso   1.00
C1047  C     0.29154   0.91400   0.72094   0.00000  Uiso   1.00
N1048  N     0.27555   0.94602   0.70616   0.00000  Uiso   1.00
C1049  C     0.29560   0.74761   0.74150   0.00000  Uiso   1.00
N1050  N     0.28187   0.71254   0.73440   0.00000  Uiso   1.00
C1051  C     0.03774   0.91906   0.75850   0.00000  Uiso   1.00
N1052  N     0.05146   0.95412   0.76560   0.00000  Uiso   1.00
Cl1053 Cl    0.22216   0.71830   0.81897   0.00000  Uiso   1.00
Cl1054 Cl    0.11118   0.94836   0.68103   0.00000  Uiso   1.00
Cl1055 Cl    0.10927   0.72086   0.68286   0.00000  Uiso   1.00
Cl1056 Cl    0.22406   0.94581   0.81714   0.00000  Uiso   1.00
C1057  C     0.42011   0.83372   0.75348   0.00000  Uiso   1.00
C1058  C     0.57989   0.83295   0.74652   0.00000  Uiso   1.00
C1059  C     0.42669   0.81364   0.52258   0.00000  Uiso   1.00
C1060  C     0.57331   0.85303   0.97742   0.00000  Uiso   1.00
C1061  C     0.35495   0.79308   0.76077   0.00000  Uiso   1.00
C1062  C     0.64505   0.87358   0.73923   0.00000  Uiso   1.00
C1063  C     0.64675   0.79151   0.74980   0.00000  Uiso   1.00
C1064  C     0.35325   0.87515   0.75020   0.00000  Uiso   1.00
C1065  C     0.62439   0.83231   0.74311   0.00000  Uiso   1.00
C1066  C     0.37561   0.83436   0.75689   0.00000  Uiso   1.00
C1067  C     0.52433   0.69006   0.77969   0.00000  Uiso   1.00
C1068  C     0.47567   0.97661   0.72031   0.00000  Uiso   1.00
C1069  C     0.47544   0.69115   0.72053   0.00000  Uiso   1.00
C1070  C     0.52456   0.97552   0.77947   0.00000  Uiso   1.00
C1071  C     0.50013   0.83333   0.66371   0.00000  Uiso   1.00
C1072  C     0.49987   0.83333   0.83629   0.00000  Uiso   1.00
C1073  C     0.53739   0.83381   0.90697   0.00000  Uiso   1.00
C1074  C     0.46261   0.83285   0.59303   0.00000  Uiso   1.00
C1075  C     0.49967   0.83350   0.88399   0.00000  Uiso   1.00
C1076  C     0.50033   0.83317   0.61601   0.00000  Uiso   1.00
C1077  C     0.46195   0.83394   0.90592   0.00000  Uiso   1.00
C1078  C     0.53805   0.83273   0.59408   0.00000  Uiso   1.00
C1079  C     0.46196   0.82783   0.95256   0.00000  Uiso   1.00
C1080  C     0.53804   0.83884   0.54744   0.00000  Uiso   1.00
C1081  C     0.49987   0.83354   0.97654   0.00000  Uiso   1.00
C1082  C     0.50013   0.83312   0.52346   0.00000  Uiso   1.00
C1083  C     0.53748   0.83996   0.95346   0.00000  Uiso   1.00
C1084  C     0.46252   0.82671   0.54654   0.00000  Uiso   1.00
C1085  C     0.42611   0.81502   0.97584   0.00000  Uiso   1.00
C1086  C     0.57389   0.85165   0.52416   0.00000  Uiso   1.00
N1087  N     0.50000   0.95240   0.75000   0.00000  Uiso   1.00
N1088  N     0.50000   0.71427   0.75000   0.00000  Uiso   1.00
O1089  O     0.43892   0.87154   0.75000   0.00000  Uiso   1.00
O1090  O     0.56108   0.79513   0.75000   0.00000  Uiso   1.00
O1091  O     0.56108   0.87154   0.75001   0.00000  Uiso   1.00
O1092  O     0.43892   0.79513   0.75000   0.00000  Uiso   1.00
O1093  O     0.49999   0.87156   0.68393   0.00000  Uiso   1.00
O1094  O     0.50001   0.79511   0.81608   0.00000  Uiso   1.00
O1095  O     0.50001   0.87156   0.81608   0.00000  Uiso   1.00
O1096  O     0.49999   0.79511   0.68393   0.00000  Uiso   1.00
Zn1097 Zn    0.50000   0.88437   0.75000   0.00000  Uiso   1.00
Zn1098 Zn    0.50000   0.78229   0.75000   0.00000  Uiso   1.00
Cl1099 Cl    0.58301   0.82127   0.87664   0.00000  Uiso   1.00
Cl1100 Cl    0.41699   0.84539   0.62336   0.00000  Uiso   1.00
C1101  C     0.42426   0.84355   0.88029   0.00000  Uiso   1.00
N1102  N     0.39429   0.85156   0.85995   0.00000  Uiso   1.00
C1103  C     0.57574   0.82311   0.61971   0.00000  Uiso   1.00
N1104  N     0.60571   0.81511   0.64005   0.00000  Uiso   1.00
C1105  C     0.38965   0.79840   0.95267   0.00000  Uiso   1.00
N1106  N     0.36051   0.78498   0.93451   0.00000  Uiso   1.00
C1107  C     0.61035   0.86827   0.54733   0.00000  Uiso   1.00
N1108  N     0.63949   0.88169   0.56549   0.00000  Uiso   1.00
Cl1109 Cl    0.38452   0.78766   0.54942   0.00000  Uiso   1.00
Cl1110 Cl    0.61548   0.87901   0.95058   0.00000  Uiso   1.00
C1111  C     0.37513   0.75267   0.77907   0.00000  Uiso   1.00
N1112  N     0.39112   0.72064   0.79384   0.00000  Uiso   1.00
C1113  C     0.62488   0.91400   0.72094   0.00000  Uiso   1.00
N1114  N     0.60888   0.94602   0.70616   0.00000  Uiso   1.00
C1115  C     0.62893   0.74761   0.74150   0.00000  Uiso   1.00
N1116  N     0.61520   0.71254   0.73440   0.00000  Uiso   1.00
C1117  C     0.37107   0.91906   0.75850   0.00000  Uiso   1.00
N1118  N     0.38480   0.95412   0.76560   0.00000  Uiso   1.00
Cl1119 Cl    0.55549   0.71830   0.81897   0.00000  Uiso   1.00
Cl1120 Cl    0.44451   0.94836   0.68103   0.00000  Uiso   1.00
Cl1121 Cl    0.44261   0.72086   0.68286   0.00000  Uiso   1.00
Cl1122 Cl    0.55739   0.94581   0.81714   0.00000  Uiso   1.00
C1123  C     0.75345   0.83372   0.75348   0.00000  Uiso   1.00
C1124  C     0.91322   0.83295   0.74652   0.00000  Uiso   1.00
C1125  C     0.76003   0.81364   0.52258   0.00000  Uiso   1.00
C1126  C     0.90664   0.85303   0.97742   0.00000  Uiso   1.00
C1127  C     0.68828   0.79308   0.76077   0.00000  Uiso   1.00
C1128  C     0.97838   0.87358   0.73923   0.00000  Uiso   1.00
C1129  C     0.98008   0.79151   0.74980   0.00000  Uiso   1.00
C1130  C     0.68658   0.87515   0.75020   0.00000  Uiso   1.00
C1131  C     0.95772   0.83231   0.74311   0.00000  Uiso   1.00
C1132  C     0.70894   0.83436   0.75689   0.00000  Uiso   1.00
C1133  C     0.85766   0.69006   0.77969   0.00000  Uiso   1.00
C1134  C     0.80901   0.97661   0.72031   0.00000  Uiso   1.00
C1135  C     0.80877   0.69115   0.72053   0.00000  Uiso   1.00
C1136  C     0.85790   0.97552   0.77947   0.00000  Uiso   1.00
C1137  C     0.83346   0.83333   0.66371   0.00000  Uiso   1.00
C1138  C     0.83320   0.83333   0.83629   0.00000  Uiso   1.00
C1139  C     0.87073   0.83381   0.90697   0.00000  Uiso   1.00
C1140  C     0.79594   0.83285   0.59303   0.00000  Uiso   1.00
C1141  C     0.83300   0.83350   0.88399   0.00000  Uiso   1.00
C1142  C     0.83366   0.83317   0.61601   0.00000  Uiso   1.00
C1143  C     0.79529   0.83394   0.90592   0.00000  Uiso   1.00
C1144  C     0.87138   0.83273   0.59408   0.00000  Uiso   1.00
C1145  C     0.79529   0.82783   0.95256   0.00000  Uiso   1.00
C1146  C     0.87138   0.83884   0.54744   0.00000  Uiso   1.00
C1147  C     0.83320   0.83354   0.97654   0.00000  Uiso   1.00
C1148  C     0.83346   0.83312   0.52346   0.00000  Uiso   1.00
C1149  C     0.87081   0.83996   0.95346   0.00000  Uiso   1.00
C1150  C     0.79586   0.82671   0.54654   0.00000  Uiso   1.00
C1151  C     0.75944   0.81502   0.97584   0.00000  Uiso   1.00
C1152  C     0.90722   0.85165   0.52416   0.00000  Uiso   1.00
N1153  N     0.83333   0.95240   0.75000   0.00000  Uiso   1.00
N1154  N     0.83333   0.71427   0.75000   0.00000  Uiso   1.00
O1155  O     0.77226   0.87154   0.75000   0.00000  Uiso   1.00
O1156  O     0.89441   0.79513   0.75000   0.00000  Uiso   1.00
O1157  O     0.89441   0.87154   0.75001   0.00000  Uiso   1.00
O1158  O     0.77226   0.79513   0.75000   0.00000  Uiso   1.00
O1159  O     0.83333   0.87156   0.68393   0.00000  Uiso   1.00
O1160  O     0.83334   0.79511   0.81608   0.00000  Uiso   1.00
O1161  O     0.83334   0.87156   0.81608   0.00000  Uiso   1.00
O1162  O     0.83333   0.79511   0.68393   0.00000  Uiso   1.00
Zn1163 Zn    0.83333   0.88437   0.75000   0.00000  Uiso   1.00
Zn1164 Zn    0.83333   0.78229   0.75000   0.00000  Uiso   1.00
Cl1165 Cl    0.91635   0.82127   0.87664   0.00000  Uiso   1.00
Cl1166 Cl    0.75032   0.84539   0.62336   0.00000  Uiso   1.00
C1167  C     0.75759   0.84355   0.88029   0.00000  Uiso   1.00
N1168  N     0.72763   0.85156   0.85995   0.00000  Uiso   1.00
C1169  C     0.90907   0.82311   0.61971   0.00000  Uiso   1.00
N1170  N     0.93904   0.81511   0.64005   0.00000  Uiso   1.00
C1171  C     0.72299   0.79840   0.95267   0.00000  Uiso   1.00
N1172  N     0.69384   0.78498   0.93451   0.00000  Uiso   1.00
C1173  C     0.94368   0.86827   0.54733   0.00000  Uiso   1.00
N1174  N     0.97282   0.88169   0.56549   0.00000  Uiso   1.00
Cl1175 Cl    0.71786   0.78766   0.54942   0.00000  Uiso   1.00
Cl1176 Cl    0.94881   0.87901   0.95058   0.00000  Uiso   1.00
C1177  C     0.70846   0.75267   0.77907   0.00000  Uiso   1.00
N1178  N     0.72445   0.72064   0.79384   0.00000  Uiso   1.00
C1179  C     0.95821   0.91400   0.72094   0.00000  Uiso   1.00
N1180  N     0.94222   0.94602   0.70616   0.00000  Uiso   1.00
C1181  C     0.96226   0.74761   0.74150   0.00000  Uiso   1.00
N1182  N     0.94854   0.71254   0.73440   0.00000  Uiso   1.00
C1183  C     0.70440   0.91906   0.75850   0.00000  Uiso   1.00
N1184  N     0.71813   0.95412   0.76560   0.00000  Uiso   1.00
Cl1185 Cl    0.88882   0.71830   0.81897   0.00000  Uiso   1.00
Cl1186 Cl    0.77784   0.94836   0.68103   0.00000  Uiso   1.00
Cl1187 Cl    0.77594   0.72086   0.68286   0.00000  Uiso   1.00
Cl1188 Cl    0.89073   0.94581   0.81714   0.00000  Uiso   1.00
loop_
_geom_bond_atom_site_label_1
_geom_bond_atom_site_label_2
_geom_bond_distance
_geom_bond_site_symmetry_2
_ccdc_geom_bond_type
C1     O33     1.291   .     A
C1     C10     1.446   .     S
C1     O36     1.292   .     A
C2     O35     1.292   .     A
C2     O34     1.291   .     A
C2     C9      1.446   .     S
C3     Cl53    1.781   .     S
C3     C28     1.414   .     A
C3     C623    1.398   1_554 S
C4     C27     1.414   .     A
C4     Cl54    1.781   .     S
C4     C624    1.398   .     S
C5     C10     1.411   .     A
C5     C55     1.457   .     S
C5     C139    1.380   1_455 S
C6     C9      1.411   .     A
C6     C57     1.457   .     S
C6     C74     1.380   .     S
C7     C59     1.454   .     S
C7     C9      1.411   .     A
C7     C71     1.380   .     S
C8     C61     1.454   .     S
C8     C10     1.411   .     A
C8     C138    1.380   1_455 S
C11    N32     1.371   .     A
C11    Cl63    1.759   .     S
C11    C410    1.420   1_545 S
C12    N31     1.371   .     A
C12    Cl64    1.759   .     S
C12    C211    1.420   .     S
C13    N32     1.370   .     A
C13    Cl65    1.760   .     S
C13    C408    1.420   1_545 S
C14    N31     1.370   .     A
C14    Cl66    1.760   .     S
C14    C209    1.420   .     S
C15    C20     1.426   .     S
C15    O40     1.284   .     A
C15    O37     1.286   .     A
C16    O39     1.284   .     A
C16    O38     1.286   .     A
C16    C19     1.426   .     S
C17    Cl43    1.780   .     S
C17    C27     1.402   .     A
C17    C19     1.392   .     A
C18    Cl44    1.780   .     S
C18    C28     1.402   .     A
C18    C20     1.392   .     A
C19    C21     1.395   .     A
C20    C22     1.395   .     A
C21    C45     1.454   .     S
C21    C23     1.406   .     A
C22    C47     1.454   .     S
C22    C24     1.406   .     A
C23    C25     1.424   .     A
C23    C29     1.420   .     A
C24    C26     1.424   .     A
C24    C30     1.420   .     A
C25    C27     1.424   .     A
C25    C620    1.402   .     S
C26    C28     1.424   .     A
C26    C619    1.402   1_554 S
C29    C49     1.453   .     S
C29    C597    1.398   .     S
C30    C51     1.453   .     S
C30    C598    1.398   1_554 S
N31    Zn41    2.018   .     S
N32    Zn42    2.018   .     S
O33    Zn41    2.020   .     S
O34    Zn42    2.020   .     S
O35    Zn41    2.007   .     S
O36    Zn42    2.007   .     S
O37    Zn41    2.012   .     S
O38    Zn42    2.012   .     S
O39    Zn41    2.010   .     S
O40    Zn42    2.010   .     S
C45    N46     1.157   .     T
C47    N48     1.157   .     T
C49    N50     1.158   .     T
C51    N52     1.158   .     T
C55    N56     1.157   .     T
C57    N58     1.157   .     T
C59    N60     1.157   .     T
C61    N62     1.157   .     T
C67    O99     1.291   .     A
C67    C76     1.446   .     S
C67    O102    1.292   .     A
C68    O101    1.292   .     A
C68    O100    1.291   .     A
C68    C75     1.446   .     S
C69    Cl119   1.781   .     S
C69    C94     1.414   .     A
C69    C689    1.398   1_554 S
C70    C93     1.414   .     A
C70    Cl120   1.781   .     S
C70    C690    1.398   .     S
C71    C76     1.411   .     A
C71    C121    1.457   .     S
C72    C75     1.411   .     A
C72    C123    1.457   .     S
C72    C140    1.380   .     S
C73    C125    1.454   .     S
C73    C75     1.411   .     A
C73    C137    1.380   .     S
C74    C127    1.454   .     S
C74    C76     1.411   .     A
C77    N98     1.371   .     A
C77    Cl129   1.759   .     S
C77    C476    1.420   1_545 S
C78    N97     1.371   .     A
C78    Cl130   1.759   .     S
C78    C277    1.420   .     S
C79    N98     1.370   .     A
C79    Cl131   1.760   .     S
C79    C474    1.420   1_545 S
C80    N97     1.370   .     A
C80    Cl132   1.760   .     S
C80    C275    1.420   .     S
C81    C86     1.426   .     S
C81    O106    1.284   .     A
C81    O103    1.286   .     A
C82    O105    1.284   .     A
C82    O104    1.286   .     A
C82    C85     1.426   .     S
C83    Cl109   1.780   .     S
C83    C93     1.402   .     A
C83    C85     1.392   .     A
C84    Cl110   1.780   .     S
C84    C94     1.402   .     A
C84    C86     1.392   .     A
C85    C87     1.395   .     A
C86    C88     1.395   .     A
C87    C111    1.454   .     S
C87    C89     1.406   .     A
C88    C113    1.454   .     S
C88    C90     1.406   .     A
C89    C91     1.424   .     A
C89    C95     1.420   .     A
C90    C92     1.424   .     A
C90    C96     1.420   .     A
C91    C93     1.424   .     A
C91    C686    1.402   .     S
C92    C94     1.424   .     A
C92    C685    1.402   1_554 S
C95    C115    1.453   .     S
C95    C663    1.398   .     S
C96    C117    1.453   .     S
C96    C664    1.398   1_554 S
N97    Zn107   2.018   .     S
N98    Zn108   2.018   .     S
O99    Zn107   2.020   .     S
O100   Zn108   2.020   .     S
O101   Zn107   2.007   .     S
O102   Zn108   2.007   .     S
O103   Zn107   2.012   .     S
O104   Zn108   2.012   .     S
O105   Zn107   2.010   .     S
O106   Zn108   2.010   .     S
C111   N112    1.157   .     T
C113   N114    1.157   .     T
C115   N116    1.158   .     T
C117   N118    1.158   .     T
C121   N122    1.157   .     T
C123   N124    1.157   .     T
C125   N126    1.157   .     T
C127   N128    1.157   .     T
C133   O165    1.291   .     A
C133   C142    1.446   .     S
C133   O168    1.292   .     A
C134   O167    1.292   .     A
C134   O166    1.291   .     A
C134   C141    1.446   .     S
C135   Cl185   1.781   .     S
C135   C160    1.414   .     A
C135   C755    1.398   1_554 S
C136   C159    1.414   .     A
C136   Cl186   1.781   .     S
C136   C756    1.398   .     S
C137   C142    1.411   .     A
C137   C187    1.457   .     S
C138   C141    1.411   .     A
C138   C189    1.457   .     S
C138   C8      1.380   1_655 S
C139   C191    1.454   .     S
C139   C141    1.411   .     A
C139   C5      1.380   1_655 S
C140   C193    1.454   .     S
C140   C142    1.411   .     A
C143   N164    1.371   .     A
C143   Cl195   1.759   .     S
C143   C542    1.420   1_545 S
C144   N163    1.371   .     A
C144   Cl196   1.759   .     S
C144   C343    1.420   .     S
C145   N164    1.370   .     A
C145   Cl197   1.760   .     S
C145   C540    1.420   1_545 S
C146   N163    1.370   .     A
C146   Cl198   1.760   .     S
C146   C341    1.420   .     S
C147   C152    1.426   .     S
C147   O172    1.284   .     A
C147   O169    1.286   .     A
C148   O171    1.284   .     A
C148   O170    1.286   .     A
C148   C151    1.426   .     S
C149   Cl175   1.780   .     S
C149   C159    1.402   .     A
C149   C151    1.392   .     A
C150   Cl176   1.780   .     S
C150   C160    1.402   .     A
C150   C152    1.392   .     A
C151   C153    1.395   .     A
C152   C154    1.395   .     A
C153   C177    1.454   .     S
C153   C155    1.406   .     A
C154   C179    1.454   .     S
C154   C156    1.406   .     A
C155   C157    1.424   .     A
C155   C161    1.420   .     A
C156   C158    1.424   .     A
C156   C162    1.420   .     A
C157   C159    1.424   .     A
C157   C752    1.402   .     S
C158   C160    1.424   .     A
C158   C751    1.402   1_554 S
C161   C181    1.453   .     S
C161   C729    1.398   .     S
C162   C183    1.453   .     S
C162   C730    1.398   1_554 S
N163   Zn173   2.018   .     S
N164   Zn174   2.018   .     S
O165   Zn173   2.020   .     S
O166   Zn174   2.020   .     S
O167   Zn173   2.007   .     S
O168   Zn174   2.007   .     S
O169   Zn173   2.012   .     S
O170   Zn174   2.012   .     S
O171   Zn173   2.010   .     S
O172   Zn174   2.010   .     S
C177   N178    1.157   .     T
C179   N180    1.157   .     T
C181   N182    1.158   .     T
C183   N184    1.158   .     T
C187   N188    1.157   .     T
C189   N190    1.157   .     T
C191   N192    1.157   .     T
C193   N194    1.157   .     T
C199   O231    1.291   .     A
C199   C208    1.446   .     S
C199   O234    1.292   .     A
C200   O233    1.292   .     A
C200   O232    1.291   .     A
C200   C207    1.446   .     S
C201   Cl251   1.781   .     S
C201   C226    1.414   .     A
C201   C821    1.398   1_554 S
C202   C225    1.414   .     A
C202   Cl252   1.781   .     S
C202   C822    1.398   .     S
C203   C208    1.411   .     A
C203   C253    1.457   .     S
C203   C337    1.380   1_455 S
C204   C207    1.411   .     A
C204   C255    1.457   .     S
C204   C272    1.380   .     S
C205   C257    1.454   .     S
C205   C207    1.411   .     A
C205   C269    1.380   .     S
C206   C259    1.454   .     S
C206   C208    1.411   .     A
C206   C336    1.380   1_455 S
C209   N230    1.371   .     A
C209   Cl261   1.759   .     S
C210   N229    1.371   .     A
C210   Cl262   1.759   .     S
C210   C409    1.420   .     S
C211   N230    1.370   .     A
C211   Cl263   1.760   .     S
C212   N229    1.370   .     A
C212   Cl264   1.760   .     S
C212   C407    1.420   .     S
C213   C218    1.426   .     S
C213   O238    1.284   .     A
C213   O235    1.286   .     A
C214   O237    1.284   .     A
C214   O236    1.286   .     A
C214   C217    1.426   .     S
C215   Cl241   1.780   .     S
C215   C225    1.402   .     A
C215   C217    1.392   .     A
C216   Cl242   1.780   .     S
C216   C226    1.402   .     A
C216   C218    1.392   .     A
C217   C219    1.395   .     A
C218   C220    1.395   .     A
C219   C243    1.454   .     S
C219   C221    1.406   .     A
C220   C245    1.454   .     S
C220   C222    1.406   .     A
C221   C223    1.424   .     A
C221   C227    1.420   .     A
C222   C224    1.424   .     A
C222   C228    1.420   .     A
C223   C225    1.424   .     A
C223   C818    1.402   .     S
C224   C226    1.424   .     A
C224   C817    1.402   1_554 S
C227   C247    1.453   .     S
C227   C795    1.398   .     S
C228   C249    1.453   .     S
C228   C796    1.398   1_554 S
N229   Zn239   2.018   .     S
N230   Zn240   2.018   .     S
O231   Zn239   2.020   .     S
O232   Zn240   2.020   .     S
O233   Zn239   2.007   .     S
O234   Zn240   2.007   .     S
O235   Zn239   2.012   .     S
O236   Zn240   2.012   .     S
O237   Zn239   2.010   .     S
O238   Zn240   2.010   .     S
C243   N244    1.157   .     T
C245   N246    1.157   .     T
C247   N248    1.158   .     T
C249   N250    1.158   .     T
C253   N254    1.157   .     T
C255   N256    1.157   .     T
C257   N258    1.157   .     T
C259   N260    1.157   .     T
C265   O297    1.291   .     A
C265   C274    1.446   .     S
C265   O300    1.292   .     A
C266   O299    1.292   .     A
C266   O298    1.291   .     A
C266   C273    1.446   .     S
C267   Cl317   1.781   .     S
C267   C292    1.414   .     A
C267   C887    1.398   1_554 S
C268   C291    1.414   .     A
C268   Cl318   1.781   .     S
C268   C888    1.398   .     S
C269   C274    1.411   .     A
C269   C319    1.457   .     S
C270   C273    1.411   .     A
C270   C321    1.457   .     S
C270   C338    1.380   .     S
C271   C323    1.454   .     S
C271   C273    1.411   .     A
C271   C335    1.380   .     S
C272   C325    1.454   .     S
C272   C274    1.411   .     A
C275   N296    1.371   .     A
C275   Cl327   1.759   .     S
C276   N295    1.371   .     A
C276   Cl328   1.759   .     S
C276   C475    1.420   .     S
C277   N296    1.370   .     A
C277   Cl329   1.760   .     S
C278   N295    1.370   .     A
C278   Cl330   1.760   .     S
C278   C473    1.420   .     S
C279   C284    1.426   .     S
C279   O304    1.284   .     A
C279   O301    1.286   .     A
C280   O303    1.284   .     A
C280   O302    1.286   .     A
C280   C283    1.426   .     S
C281   Cl307   1.780   .     S
C281   C291    1.402   .     A
C281   C283    1.392   .     A
C282   Cl308   1.780   .     S
C282   C292    1.402   .     A
C282   C284    1.392   .     A
C283   C285    1.395   .     A
C284   C286    1.395   .     A
C285   C309    1.454   .     S
C285   C287    1.406   .     A
C286   C311    1.454   .     S
C286   C288    1.406   .     A
C287   C289    1.424   .     A
C287   C293    1.420   .     A
C288   C290    1.424   .     A
C288   C294    1.420   .     A
C289   C291    1.424   .     A
C289   C884    1.402   .     S
C290   C292    1.424   .     A
C290   C883    1.402   1_554 S
C293   C313    1.453   .     S
C293   C861    1.398   .     S
C294   C315    1.453   .     S
C294   C862    1.398   1_554 S
N295   Zn305   2.018   .     S
N296   Zn306   2.018   .     S
O297   Zn305   2.020   .     S
O298   Zn306   2.020   .     S
O299   Zn305   2.007   .     S
O300   Zn306   2.007   .     S
O301   Zn305   2.012   .     S
O302   Zn306   2.012   .     S
O303   Zn305   2.010   .     S
O304   Zn306   2.010   .     S
C309   N310    1.157   .     T
C311   N312    1.157   .     T
C313   N314    1.158   .     T
C315   N316    1.158   .     T
C319   N320    1.157   .     T
C321   N322    1.157   .     T
C323   N324    1.157   .     T
C325   N326    1.157   .     T
C331   O363    1.291   .     A
C331   C340    1.446   .     S
C331   O366    1.292   .     A
C332   O365    1.292   .     A
C332   O364    1.291   .     A
C332   C339    1.446   .     S
C333   Cl383   1.781   .     S
C333   C358    1.414   .     A
C333   C953    1.398   1_554 S
C334   C357    1.414   .     A
C334   Cl384   1.781   .     S
C334   C954    1.398   .     S
C335   C340    1.411   .     A
C335   C385    1.457   .     S
C336   C339    1.411   .     A
C336   C387    1.457   .     S
C336   C206    1.380   1_655 S
C337   C389    1.454   .     S
C337   C339    1.411   .     A
C337   C203    1.380   1_655 S
C338   C391    1.454   .     S
C338   C340    1.411   .     A
C341   N362    1.371   .     A
C341   Cl393   1.759   .     S
C342   N361    1.371   .     A
C342   Cl394   1.759   .     S
C342   C541    1.420   .     S
C343   N362    1.370   .     A
C343   Cl395   1.760   .     S
C344   N361    1.370   .     A
C344   Cl396   1.760   .     S
C344   C539    1.420   .     S
C345   C350    1.426   .     S
C345   O370    1.284   .     A
C345   O367    1.286   .     A
C346   O369    1.284   .     A
C346   O368    1.286   .     A
C346   C349    1.426   .     S
C347   Cl373   1.780   .     S
C347   C357    1.402   .     A
C347   C349    1.392   .     A
C348   Cl374   1.780   .     S
C348   C358    1.402   .     A
C348   C350    1.392   .     A
C349   C351    1.395   .     A
C350   C352    1.395   .     A
C351   C375    1.454   .     S
C351   C353    1.406   .     A
C352   C377    1.454   .     S
C352   C354    1.406   .     A
C353   C355    1.424   .     A
C353   C359    1.420   .     A
C354   C356    1.424   .     A
C354   C360    1.420   .     A
C355   C357    1.424   .     A
C355   C950    1.402   .     S
C356   C358    1.424   .     A
C356   C949    1.402   1_554 S
C359   C379    1.453   .     S
C359   C927    1.398   .     S
C360   C381    1.453   .     S
C360   C928    1.398   1_554 S
N361   Zn371   2.018   .     S
N362   Zn372   2.018   .     S
O363   Zn371   2.020   .     S
O364   Zn372   2.020   .     S
O365   Zn371   2.007   .     S
O366   Zn372   2.007   .     S
O367   Zn371   2.012   .     S
O368   Zn372   2.012   .     S
O369   Zn371   2.010   .     S
O370   Zn372   2.010   .     S
C375   N376    1.157   .     T
C377   N378    1.157   .     T
C379   N380    1.158   .     T
C381   N382    1.158   .     T
C385   N386    1.157   .     T
C387   N388    1.157   .     T
C389   N390    1.157   .     T
C391   N392    1.157   .     T
C397   O429    1.291   .     A
C397   C406    1.446   .     S
C397   O432    1.292   .     A
C398   O431    1.292   .     A
C398   O430    1.291   .     A
C398   C405    1.446   .     S
C399   Cl449   1.781   .     S
C399   C424    1.414   .     A
C399   C1019   1.398   1_554 S
C400   C423    1.414   .     A
C400   Cl450   1.781   .     S
C400   C1020   1.398   .     S
C401   C406    1.411   .     A
C401   C451    1.457   .     S
C401   C535    1.380   1_455 S
C402   C405    1.411   .     A
C402   C453    1.457   .     S
C402   C470    1.380   .     S
C403   C455    1.454   .     S
C403   C405    1.411   .     A
C403   C467    1.380   .     S
C404   C457    1.454   .     S
C404   C406    1.411   .     A
C404   C534    1.380   1_455 S
C407   N428    1.371   .     A
C407   Cl459   1.759   .     S
C408   N427    1.371   .     A
C408   Cl460   1.759   .     S
C408   C13     1.420   1_565 S
C409   N428    1.370   .     A
C409   Cl461   1.760   .     S
C410   N427    1.370   .     A
C410   Cl462   1.760   .     S
C410   C11     1.420   1_565 S
C411   C416    1.426   .     S
C411   O436    1.284   .     A
C411   O433    1.286   .     A
C412   O435    1.284   .     A
C412   O434    1.286   .     A
C412   C415    1.426   .     S
C413   Cl439   1.780   .     S
C413   C423    1.402   .     A
C413   C415    1.392   .     A
C414   Cl440   1.780   .     S
C414   C424    1.402   .     A
C414   C416    1.392   .     A
C415   C417    1.395   .     A
C416   C418    1.395   .     A
C417   C441    1.454   .     S
C417   C419    1.406   .     A
C418   C443    1.454   .     S
C418   C420    1.406   .     A
C419   C421    1.424   .     A
C419   C425    1.420   .     A
C420   C422    1.424   .     A
C420   C426    1.420   .     A
C421   C423    1.424   .     A
C421   C1016   1.402   .     S
C422   C424    1.424   .     A
C422   C1015   1.402   1_554 S
C425   C445    1.453   .     S
C425   C993    1.398   .     S
C426   C447    1.453   .     S
C426   C994    1.398   1_554 S
N427   Zn437   2.018   .     S
N428   Zn438   2.018   .     S
O429   Zn437   2.020   .     S
O430   Zn438   2.020   .     S
O431   Zn437   2.007   .     S
O432   Zn438   2.007   .     S
O433   Zn437   2.012   .     S
O434   Zn438   2.012   .     S
O435   Zn437   2.010   .     S
O436   Zn438   2.010   .     S
C441   N442    1.157   .     T
C443   N444    1.157   .     T
C445   N446    1.158   .     T
C447   N448    1.158   .     T
C451   N452    1.157   .     T
C453   N454    1.157   .     T
C455   N456    1.157   .     T
C457   N458    1.157   .     T
C463   O495    1.291   .     A
C463   C472    1.446   .     S
C463   O498    1.292   .     A
C464   O497    1.292   .     A
C464   O496    1.291   .     A
C464   C471    1.446   .     S
C465   Cl515   1.781   .     S
C465   C490    1.414   .     A
C465   C1085   1.398   1_554 S
C466   C489    1.414   .     A
C466   Cl516   1.781   .     S
C466   C1086   1.398   .     S
C467   C472    1.411   .     A
C467   C517    1.457   .     S
C468   C471    1.411   .     A
C468   C519    1.457   .     S
C468   C536    1.380   .     S
C469   C521    1.454   .     S
C469   C471    1.411   .     A
C469   C533    1.380   .     S
C470   C523    1.454   .     S
C470   C472    1.411   .     A
C473   N494    1.371   .     A
C473   Cl525   1.759   .     S
C474   N493    1.371   .     A
C474   Cl526   1.759   .     S
C474   C79     1.420   1_565 S
C475   N494    1.370   .     A
C475   Cl527   1.760   .     S
C476   N493    1.370   .     A
C476   Cl528   1.760   .     S
C476   C77     1.420   1_565 S
C477   C482    1.426   .     S
C477   O502    1.284   .     A
C477   O499    1.286   .     A
C478   O501    1.284   .     A
C478   O500    1.286   .     A
C478   C481    1.426   .     S
C479   Cl505   1.780   .     S
C479   C489    1.402   .     A
C479   C481    1.392   .     A
C480   Cl506   1.780   .     S
C480   C490    1.402   .     A
C480   C482    1.392   .     A
C481   C483    1.395   .     A
C482   C484    1.395   .     A
C483   C507    1.454   .     S
C483   C485    1.406   .     A
C484   C509    1.454   .     S
C484   C486    1.406   .     A
C485   C487    1.424   .     A
C485   C491    1.420   .     A
C486   C488    1.424   .     A
C486   C492    1.420   .     A
C487   C489    1.424   .     A
C487   C1082   1.402   .     S
C488   C490    1.424   .     A
C488   C1081   1.402   1_554 S
C491   C511    1.453   .     S
C491   C1059   1.398   .     S
C492   C513    1.453   .     S
C492   C1060   1.398   1_554 S
N493   Zn503   2.018   .     S
N494   Zn504   2.018   .     S
O495   Zn503   2.020   .     S
O496   Zn504   2.020   .     S
O497   Zn503   2.007   .     S
O498   Zn504   2.007   .     S
O499   Zn503   2.012   .     S
O500   Zn504   2.012   .     S
O501   Zn503   2.010   .     S
O502   Zn504   2.010   .     S
C507   N508    1.157   .     T
C509   N510    1.157   .     T
C511   N512    1.158   .     T
C513   N514    1.158   .     T
C517   N518    1.157   .     T
C519   N520    1.157   .     T
C521   N522    1.157   .     T
C523   N524    1.157   .     T
C529   O561    1.291   .     A
C529   C538    1.446   .     S
C529   O564    1.292   .     A
C530   O563    1.292   .     A
C530   O562    1.291   .     A
C530   C537    1.446   .     S
C531   Cl581   1.781   .     S
C531   C556    1.414   .     A
C531   C1151   1.398   1_554 S
C532   C555    1.414   .     A
C532   Cl582   1.781   .     S
C532   C1152   1.398   .     S
C533   C538    1.411   .     A
C533   C583    1.457   .     S
C534   C537    1.411   .     A
C534   C585    1.457   .     S
C534   C404    1.380   1_655 S
C535   C587    1.454   .     S
C535   C537    1.411   .     A
C535   C401    1.380   1_655 S
C536   C589    1.454   .     S
C536   C538    1.411   .     A
C539   N560    1.371   .     A
C539   Cl591   1.759   .     S
C540   N559    1.371   .     A
C540   Cl592   1.759   .     S
C540   C145    1.420   1_565 S
C541   N560    1.370   .     A
C541   Cl593   1.760   .     S
C542   N559    1.370   .     A
C542   Cl594   1.760   .     S
C542   C143    1.420   1_565 S
C543   C548    1.426   .     S
C543   O568    1.284   .     A
C543   O565    1.286   .     A
C544   O567    1.284   .     A
C544   O566    1.286   .     A
C544   C547    1.426   .     S
C545   Cl571   1.780   .     S
C545   C555    1.402   .     A
C545   C547    1.392   .     A
C546   Cl572   1.780   .     S
C546   C556    1.402   .     A
C546   C548    1.392   .     A
C547   C549    1.395   .     A
C548   C550    1.395   .     A
C549   C573    1.454   .     S
C549   C551    1.406   .     A
C550   C575    1.454   .     S
C550   C552    1.406   .     A
C551   C553    1.424   .     A
C551   C557    1.420   .     A
C552   C554    1.424   .     A
C552   C558    1.420   .     A
C553   C555    1.424   .     A
C553   C1148   1.402   .     S
C554   C556    1.424   .     A
C554   C1147   1.402   1_554 S
C557   C577    1.453   .     S
C557   C1125   1.398   .     S
C558   C579    1.453   .     S
C558   C1126   1.398   1_554 S
N559   Zn569   2.018   .     S
N560   Zn570   2.018   .     S
O561   Zn569   2.020   .     S
O562   Zn570   2.020   .     S
O563   Zn569   2.007   .     S
O564   Zn570   2.007   .     S
O565   Zn569   2.012   .     S
O566   Zn570   2.012   .     S
O567   Zn569   2.010   .     S
O568   Zn570   2.010   .     S
C573   N574    1.157   .     T
C575   N576    1.157   .     T
C577   N578    1.158   .     T
C579   N580    1.158   .     T
C583   N584    1.157   .     T
C585   N586    1.157   .     T
C587   N588    1.157   .     T
C589   N590    1.157   .     T
C595   O627    1.291   .     A
C595   C604    1.446   .     S
C595   O630    1.292   .     A
C596   O629    1.292   .     A
C596   O628    1.291   .     A
C596   C603    1.446   .     S
C597   Cl647   1.781   .     S
C597   C622    1.414   .     A
C598   C621    1.414   .     A
C598   Cl648   1.781   .     S
C598   C30     1.398   1_556 S
C599   C604    1.411   .     A
C599   C649    1.457   .     S
C599   C733    1.380   1_455 S
C600   C603    1.411   .     A
C600   C651    1.457   .     S
C600   C668    1.380   .     S
C601   C653    1.454   .     S
C601   C603    1.411   .     A
C601   C665    1.380   .     S
C602   C655    1.454   .     S
C602   C604    1.411   .     A
C602   C732    1.380   1_455 S
C605   N626    1.371   .     A
C605   Cl657   1.759   .     S
C605   C1004   1.420   1_545 S
C606   N625    1.371   .     A
C606   Cl658   1.759   .     S
C606   C805    1.420   .     S
C607   N626    1.370   .     A
C607   Cl659   1.760   .     S
C607   C1002   1.420   1_545 S
C608   N625    1.370   .     A
C608   Cl660   1.760   .     S
C608   C803    1.420   .     S
C609   C614    1.426   .     S
C609   O634    1.284   .     A
C609   O631    1.286   .     A
C610   O633    1.284   .     A
C610   O632    1.286   .     A
C610   C613    1.426   .     S
C611   Cl637   1.780   .     S
C611   C621    1.402   .     A
C611   C613    1.392   .     A
C612   Cl638   1.780   .     S
C612   C622    1.402   .     A
C612   C614    1.392   .     A
C613   C615    1.395   .     A
C614   C616    1.395   .     A
C615   C639    1.454   .     S
C615   C617    1.406   .     A
C616   C641    1.454   .     S
C616   C618    1.406   .     A
C617   C619    1.424   .     A
C617   C623    1.420   .     A
C618   C620    1.424   .     A
C618   C624    1.420   .     A
C619   C621    1.424   .     A
C619   C26     1.402   1_556 S
C620   C622    1.424   .     A
C623   C643    1.453   .     S
C623   C3      1.398   1_556 S
C624   C645    1.453   .     S
N625   Zn635   2.018   .     S
N626   Zn636   2.018   .     S
O627   Zn635   2.020   .     S
O628   Zn636   2.020   .     S
O629   Zn635   2.007   .     S
O630   Zn636   2.007   .     S
O631   Zn635   2.012   .     S
O632   Zn636   2.012   .     S
O633   Zn635   2.010   .     S
O634   Zn636   2.010   .     S
C639   N640    1.157   .     T
C641   N642    1.157   .     T
C643   N644    1.158   .     T
C645   N646    1.158   .     T
C649   N650    1.157   .     T
C651   N652    1.157   .     T
C653   N654    1.157   .     T
C655   N656    1.157   .     T
C661   O693    1.291   .     A
C661   C670    1.446   .     S
C661   O696    1.292   .     A
C662   O695    1.292   .     A
C662   O694    1.291   .     A
C662   C669    1.446   .     S
C663   Cl713   1.781   .     S
C663   C688    1.414   .     A
C664   C687    1.414   .     A
C664   Cl714   1.781   .     S
C664   C96     1.398   1_556 S
C665   C670    1.411   .     A
C665   C715    1.457   .     S
C666   C669    1.411   .     A
C666   C717    1.457   .     S
C666   C734    1.380   .     S
C667   C719    1.454   .     S
C667   C669    1.411   .     A
C667   C731    1.380   .     S
C668   C721    1.454   .     S
C668   C670    1.411   .     A
C671   N692    1.371   .     A
C671   Cl723   1.759   .     S
C671   C1070   1.420   1_545 S
C672   N691    1.371   .     A
C672   Cl724   1.759   .     S
C672   C871    1.420   .     S
C673   N692    1.370   .     A
C673   Cl725   1.760   .     S
C673   C1068   1.420   1_545 S
C674   N691    1.370   .     A
C674   Cl726   1.760   .     S
C674   C869    1.420   .     S
C675   C680    1.426   .     S
C675   O700    1.284   .     A
C675   O697    1.286   .     A
C676   O699    1.284   .     A
C676   O698    1.286   .     A
C676   C679    1.426   .     S
C677   Cl703   1.780   .     S
C677   C687    1.402   .     A
C677   C679    1.392   .     A
C678   Cl704   1.780   .     S
C678   C688    1.402   .     A
C678   C680    1.392   .     A
C679   C681    1.395   .     A
C680   C682    1.395   .     A
C681   C705    1.454   .     S
C681   C683    1.406   .     A
C682   C707    1.454   .     S
C682   C684    1.406   .     A
C683   C685    1.424   .     A
C683   C689    1.420   .     A
C684   C686    1.424   .     A
C684   C690    1.420   .     A
C685   C687    1.424   .     A
C685   C92     1.402   1_556 S
C686   C688    1.424   .     A
C689   C709    1.453   .     S
C689   C69     1.398   1_556 S
C690   C711    1.453   .     S
N691   Zn701   2.018   .     S
N692   Zn702   2.018   .     S
O693   Zn701   2.020   .     S
O694   Zn702   2.020   .     S
O695   Zn701   2.007   .     S
O696   Zn702   2.007   .     S
O697   Zn701   2.012   .     S
O698   Zn702   2.012   .     S
O699   Zn701   2.010   .     S
O700   Zn702   2.010   .     S
C705   N706    1.157   .     T
C707   N708    1.157   .     T
C709   N710    1.158   .     T
C711   N712    1.158   .     T
C715   N716    1.157   .     T
C717   N718    1.157   .     T
C719   N720    1.157   .     T
C721   N722    1.157   .     T
C727   O759    1.291   .     A
C727   C736    1.446   .     S
C727   O762    1.292   .     A
C728   O761    1.292   .     A
C728   O760    1.291   .     A
C728   C735    1.446   .     S
C729   Cl779   1.781   .     S
C729   C754    1.414   .     A
C730   C753    1.414   .     A
C730   Cl780   1.781   .     S
C730   C162    1.398   1_556 S
C731   C736    1.411   .     A
C731   C781    1.457   .     S
C732   C735    1.411   .     A
C732   C783    1.457   .     S
C732   C602    1.380   1_655 S
C733   C785    1.454   .     S
C733   C735    1.411   .     A
C733   C599    1.380   1_655 S
C734   C787    1.454   .     S
C734   C736    1.411   .     A
C737   N758    1.371   .     A
C737   Cl789   1.759   .     S
C737   C1136   1.420   1_545 S
C738   N757    1.371   .     A
C738   Cl790   1.759   .     S
C738   C937    1.420   .     S
C739   N758    1.370   .     A
C739   Cl791   1.760   .     S
C739   C1134   1.420   1_545 S
C740   N757    1.370   .     A
C740   Cl792   1.760   .     S
C740   C935    1.420   .     S
C741   C746    1.426   .     S
C741   O766    1.284   .     A
C741   O763    1.286   .     A
C742   O765    1.284   .     A
C742   O764    1.286   .     A
C742   C745    1.426   .     S
C743   Cl769   1.780   .     S
C743   C753    1.402   .     A
C743   C745    1.392   .     A
C744   Cl770   1.780   .     S
C744   C754    1.402   .     A
C744   C746    1.392   .     A
C745   C747    1.395   .     A
C746   C748    1.395   .     A
C747   C771    1.454   .     S
C747   C749    1.406   .     A
C748   C773    1.454   .     S
C748   C750    1.406   .     A
C749   C751    1.424   .     A
C749   C755    1.420   .     A
C750   C752    1.424   .     A
C750   C756    1.420   .     A
C751   C753    1.424   .     A
C751   C158    1.402   1_556 S
C752   C754    1.424   .     A
C755   C775    1.453   .     S
C755   C135    1.398   1_556 S
C756   C777    1.453   .     S
N757   Zn767   2.018   .     S
N758   Zn768   2.018   .     S
O759   Zn767   2.020   .     S
O760   Zn768   2.020   .     S
O761   Zn767   2.007   .     S
O762   Zn768   2.007   .     S
O763   Zn767   2.012   .     S
O764   Zn768   2.012   .     S
O765   Zn767   2.010   .     S
O766   Zn768   2.010   .     S
C771   N772    1.157   .     T
C773   N774    1.157   .     T
C775   N776    1.158   .     T
C777   N778    1.158   .     T
C781   N782    1.157   .     T
C783   N784    1.157   .     T
C785   N786    1.157   .     T
C787   N788    1.157   .     T
C793   O825    1.291   .     A
C793   C802    1.446   .     S
C793   O828    1.292   .     A
C794   O827    1.292   .     A
C794   O826    1.291   .     A
C794   C801    1.446   .     S
C795   Cl845   1.781   .     S
C795   C820    1.414   .     A
C796   C819    1.414   .     A
C796   Cl846   1.781   .     S
C796   C228    1.398   1_556 S
C797   C802    1.411   .     A
C797   C847    1.457   .     S
C797   C931    1.380   1_455 S
C798   C801    1.411   .     A
C798   C849    1.457   .     S
C798   C866    1.380   .     S
C799   C851    1.454   .     S
C799   C801    1.411   .     A
C799   C863    1.380   .     S
C800   C853    1.454   .     S
C800   C802    1.411   .     A
C800   C930    1.380   1_455 S
C803   N824    1.371   .     A
C803   Cl855   1.759   .     S
C804   N823    1.371   .     A
C804   Cl856   1.759   .     S
C804   C1003   1.420   .     S
C805   N824    1.370   .     A
C805   Cl857   1.760   .     S
C806   N823    1.370   .     A
C806   Cl858   1.760   .     S
C806   C1001   1.420   .     S
C807   C812    1.426   .     S
C807   O832    1.284   .     A
C807   O829    1.286   .     A
C808   O831    1.284   .     A
C808   O830    1.286   .     A
C808   C811    1.426   .     S
C809   Cl835   1.780   .     S
C809   C819    1.402   .     A
C809   C811    1.392   .     A
C810   Cl836   1.780   .     S
C810   C820    1.402   .     A
C810   C812    1.392   .     A
C811   C813    1.395   .     A
C812   C814    1.395   .     A
C813   C837    1.454   .     S
C813   C815    1.406   .     A
C814   C839    1.454   .     S
C814   C816    1.406   .     A
C815   C817    1.424   .     A
C815   C821    1.420   .     A
C816   C818    1.424   .     A
C816   C822    1.420   .     A
C817   C819    1.424   .     A
C817   C224    1.402   1_556 S
C818   C820    1.424   .     A
C821   C841    1.453   .     S
C821   C201    1.398   1_556 S
C822   C843    1.453   .     S
N823   Zn833   2.018   .     S
N824   Zn834   2.018   .     S
O825   Zn833   2.020   .     S
O826   Zn834   2.020   .     S
O827   Zn833   2.007   .     S
O828   Zn834   2.007   .     S
O829   Zn833   2.012   .     S
O830   Zn834   2.012   .     S
O831   Zn833   2.010   .     S
O832   Zn834   2.010   .     S
C837   N838    1.157   .     T
C839   N840    1.157   .     T
C841   N842    1.158   .     T
C843   N844    1.158   .     T
C847   N848    1.157   .     T
C849   N850    1.157   .     T
C851   N852    1.157   .     T
C853   N854    1.157   .     T
C859   O891    1.291   .     A
C859   C868    1.446   .     S
C859   O894    1.292   .     A
C860   O893    1.292   .     A
C860   O892    1.291   .     A
C860   C867    1.446   .     S
C861   Cl911   1.781   .     S
C861   C886    1.414   .     A
C862   C885    1.414   .     A
C862   Cl912   1.781   .     S
C862   C294    1.398   1_556 S
C863   C868    1.411   .     A
C863   C913    1.457   .     S
C864   C867    1.411   .     A
C864   C915    1.457   .     S
C864   C932    1.380   .     S
C865   C917    1.454   .     S
C865   C867    1.411   .     A
C865   C929    1.380   .     S
C866   C919    1.454   .     S
C866   C868    1.411   .     A
C869   N890    1.371   .     A
C869   Cl921   1.759   .     S
C870   N889    1.371   .     A
C870   Cl922   1.759   .     S
C870   C1069   1.420   .     S
C871   N890    1.370   .     A
C871   Cl923   1.760   .     S
C872   N889    1.370   .     A
C872   Cl924   1.760   .     S
C872   C1067   1.420   .     S
C873   C878    1.426   .     S
C873   O898    1.284   .     A
C873   O895    1.286   .     A
C874   O897    1.284   .     A
C874   O896    1.286   .     A
C874   C877    1.426   .     S
C875   Cl901   1.780   .     S
C875   C885    1.402   .     A
C875   C877    1.392   .     A
C876   Cl902   1.780   .     S
C876   C886    1.402   .     A
C876   C878    1.392   .     A
C877   C879    1.395   .     A
C878   C880    1.395   .     A
C879   C903    1.454   .     S
C879   C881    1.406   .     A
C880   C905    1.454   .     S
C880   C882    1.406   .     A
C881   C883    1.424   .     A
C881   C887    1.420   .     A
C882   C884    1.424   .     A
C882   C888    1.420   .     A
C883   C885    1.424   .     A
C883   C290    1.402   1_556 S
C884   C886    1.424   .     A
C887   C907    1.453   .     S
C887   C267    1.398   1_556 S
C888   C909    1.453   .     S
N889   Zn899   2.018   .     S
N890   Zn900   2.018   .     S
O891   Zn899   2.020   .     S
O892   Zn900   2.020   .     S
O893   Zn899   2.007   .     S
O894   Zn900   2.007   .     S
O895   Zn899   2.012   .     S
O896   Zn900   2.012   .     S
O897   Zn899   2.010   .     S
O898   Zn900   2.010   .     S
C903   N904    1.157   .     T
C905   N906    1.157   .     T
C907   N908    1.158   .     T
C909   N910    1.158   .     T
C913   N914    1.157   .     T
C915   N916    1.157   .     T
C917   N918    1.157   .     T
C919   N920    1.157   .     T
C925   O957    1.291   .     A
C925   C934    1.446   .     S
C925   O960    1.292   .     A
C926   O959    1.292   .     A
C926   O958    1.291   .     A
C926   C933    1.446   .     S
C927   Cl977   1.781   .     S
C927   C952    1.414   .     A
C928   C951    1.414   .     A
C928   Cl978   1.781   .     S
C928   C360    1.398   1_556 S
C929   C934    1.411   .     A
C929   C979    1.457   .     S
C930   C933    1.411   .     A
C930   C981    1.457   .     S
C930   C800    1.380   1_655 S
C931   C983    1.454   .     S
C931   C933    1.411   .     A
C931   C797    1.380   1_655 S
C932   C985    1.454   .     S
C932   C934    1.411   .     A
C935   N956    1.371   .     A
C935   Cl987   1.759   .     S
C936   N955    1.371   .     A
C936   Cl988   1.759   .     S
C936   C1135   1.420   .     S
C937   N956    1.370   .     A
C937   Cl989   1.760   .     S
C938   N955    1.370   .     A
C938   Cl990   1.760   .     S
C938   C1133   1.420   .     S
C939   C944    1.426   .     S
C939   O964    1.284   .     A
C939   O961    1.286   .     A
C940   O963    1.284   .     A
C940   O962    1.286   .     A
C940   C943    1.426   .     S
C941   Cl967   1.780   .     S
C941   C951    1.402   .     A
C941   C943    1.392   .     A
C942   Cl968   1.780   .     S
C942   C952    1.402   .     A
C942   C944    1.392   .     A
C943   C945    1.395   .     A
C944   C946    1.395   .     A
C945   C969    1.454   .     S
C945   C947    1.406   .     A
C946   C971    1.454   .     S
C946   C948    1.406   .     A
C947   C949    1.424   .     A
C947   C953    1.420   .     A
C948   C950    1.424   .     A
C948   C954    1.420   .     A
C949   C951    1.424   .     A
C949   C356    1.402   1_556 S
C950   C952    1.424   .     A
C953   C973    1.453   .     S
C953   C333    1.398   1_556 S
C954   C975    1.453   .     S
N955   Zn965   2.018   .     S
N956   Zn966   2.018   .     S
O957   Zn965   2.020   .     S
O958   Zn966   2.020   .     S
O959   Zn965   2.007   .     S
O960   Zn966   2.007   .     S
O961   Zn965   2.012   .     S
O962   Zn966   2.012   .     S
O963   Zn965   2.010   .     S
O964   Zn966   2.010   .     S
C969   N970    1.157   .     T
C971   N972    1.157   .     T
C973   N974    1.158   .     T
C975   N976    1.158   .     T
C979   N980    1.157   .     T
C981   N982    1.157   .     T
C983   N984    1.157   .     T
C985   N986    1.157   .     T
C991   O1023   1.291   .     A
C991   C1000   1.446   .     S
C991   O1026   1.292   .     A
C992   O1025   1.292   .     A
C992   O1024   1.291   .     A
C992   C999    1.446   .     S
C993   Cl1043  1.781   .     S
C993   C1018   1.414   .     A
C994   C1017   1.414   .     A
C994   Cl1044  1.781   .     S
C994   C426    1.398   1_556 S
C995   C1000   1.411   .     A
C995   C1045   1.457   .     S
C995   C1129   1.380   1_455 S
C996   C999    1.411   .     A
C996   C1047   1.457   .     S
C996   C1064   1.380   .     S
C997   C1049   1.454   .     S
C997   C999    1.411   .     A
C997   C1061   1.380   .     S
C998   C1051   1.454   .     S
C998   C1000   1.411   .     A
C998   C1128   1.380   1_455 S
C1001  N1022   1.371   .     A
C1001  Cl1053  1.759   .     S
C1002  N1021   1.371   .     A
C1002  Cl1054  1.759   .     S
C1002  C607    1.420   1_565 S
C1003  N1022   1.370   .     A
C1003  Cl1055  1.760   .     S
C1004  N1021   1.370   .     A
C1004  Cl1056  1.760   .     S
C1004  C605    1.420   1_565 S
C1005  C1010   1.426   .     S
C1005  O1030   1.284   .     A
C1005  O1027   1.286   .     A
C1006  O1029   1.284   .     A
C1006  O1028   1.286   .     A
C1006  C1009   1.426   .     S
C1007  Cl1033  1.780   .     S
C1007  C1017   1.402   .     A
C1007  C1009   1.392   .     A
C1008  Cl1034  1.780   .     S
C1008  C1018   1.402   .     A
C1008  C1010   1.392   .     A
C1009  C1011   1.395   .     A
C1010  C1012   1.395   .     A
C1011  C1035   1.454   .     S
C1011  C1013   1.406   .     A
C1012  C1037   1.454   .     S
C1012  C1014   1.406   .     A
C1013  C1015   1.424   .     A
C1013  C1019   1.420   .     A
C1014  C1016   1.424   .     A
C1014  C1020   1.420   .     A
C1015  C1017   1.424   .     A
C1015  C422    1.402   1_556 S
C1016  C1018   1.424   .     A
C1019  C1039   1.453   .     S
C1019  C399    1.398   1_556 S
C1020  C1041   1.453   .     S
N1021  Zn1031  2.018   .     S
N1022  Zn1032  2.018   .     S
O1023  Zn1031  2.020   .     S
O1024  Zn1032  2.020   .     S
O1025  Zn1031  2.007   .     S
O1026  Zn1032  2.007   .     S
O1027  Zn1031  2.012   .     S
O1028  Zn1032  2.012   .     S
O1029  Zn1031  2.010   .     S
O1030  Zn1032  2.010   .     S
C1035  N1036   1.157   .     T
C1037  N1038   1.157   .     T
C1039  N1040   1.158   .     T
C1041  N1042   1.158   .     T
C1045  N1046   1.157   .     T
C1047  N1048   1.157   .     T
C1049  N1050   1.157   .     T
C1051  N1052   1.157   .     T
C1057  O1089   1.291   .     A
C1057  C1066   1.446   .     S
C1057  O1092   1.292   .     A
C1058  O1091   1.292   .     A
C1058  O1090   1.291   .     A
C1058  C1065   1.446   .     S
C1059  Cl1109  1.781   .     S
C1059  C1084   1.414   .     A
C1060  C1083   1.414   .     A
C1060  Cl1110  1.781   .     S
C1060  C492    1.398   1_556 S
C1061  C1066   1.411   .     A
C1061  C1111   1.457   .     S
C1062  C1065   1.411   .     A
C1062  C1113   1.457   .     S
C1062  C1130   1.380   .     S
C1063  C1115   1.454   .     S
C1063  C1065   1.411   .     A
C1063  C1127   1.380   .     S
C1064  C1117   1.454   .     S
C1064  C1066   1.411   .     A
C1067  N1088   1.371   .     A
C1067  Cl1119  1.759   .     S
C1068  N1087   1.371   .     A
C1068  Cl1120  1.759   .     S
C1068  C673    1.420   1_565 S
C1069  N1088   1.370   .     A
C1069  Cl1121  1.760   .     S
C1070  N1087   1.370   .     A
C1070  Cl1122  1.760   .     S
C1070  C671    1.420   1_565 S
C1071  C1076   1.426   .     S
C1071  O1096   1.284   .     A
C1071  O1093   1.286   .     A
C1072  O1095   1.284   .     A
C1072  O1094   1.286   .     A
C1072  C1075   1.426   .     S
C1073  Cl1099  1.780   .     S
C1073  C1083   1.402   .     A
C1073  C1075   1.392   .     A
C1074  Cl1100  1.780   .     S
C1074  C1084   1.402   .     A
C1074  C1076   1.392   .     A
C1075  C1077   1.395   .     A
C1076  C1078   1.395   .     A
C1077  C1101   1.454   .     S
C1077  C1079   1.406   .     A
C1078  C1103   1.454   .     S
C1078  C1080   1.406   .     A
C1079  C1081   1.424   .     A
C1079  C1085   1.420   .     A
C1080  C1082   1.424   .     A
C1080  C1086   1.420   .     A
C1081  C1083   1.424   .     A
C1081  C488    1.402   1_556 S
C1082  C1084   1.424   .     A
C1085  C1105   1.453   .     S
C1085  C465    1.398   1_556 S
C1086  C1107   1.453   .     S
N1087  Zn1097  2.018   .     S
N1088  Zn1098  2.018   .     S
O1089  Zn1097  2.020   .     S
O1090  Zn1098  2.020   .     S
O1091  Zn1097  2.007   .     S
O1092  Zn1098  2.007   .     S
O1093  Zn1097  2.012   .     S
O1094  Zn1098  2.012   .     S
O1095  Zn1097  2.010   .     S
O1096  Zn1098  2.010   .     S
C1101  N1102   1.157   .     T
C1103  N1104   1.157   .     T
C1105  N1106   1.158   .     T
C1107  N1108   1.158   .     T
C1111  N1112   1.157   .     T
C1113  N1114   1.157   .     T
C1115  N1116   1.157   .     T
C1117  N1118   1.157   .     T
C1123  O1155   1.291   .     A
C1123  C1132   1.446   .     S
C1123  O1158   1.292   .     A
C1124  O1157   1.292   .     A
C1124  O1156   1.291   .     A
C1124  C1131   1.446   .     S
C1125  Cl1175  1.781   .     S
C1125  C1150   1.414   .     A
C1126  C1149   1.414   .     A
C1126  Cl1176  1.781   .     S
C1126  C558    1.398   1_556 S
C1127  C1132   1.411   .     A
C1127  C1177   1.457   .     S
C1128  C1131   1.411   .     A
C1128  C1179   1.457   .     S
C1128  C998    1.380   1_655 S
C1129  C1181   1.454   .     S
C1129  C1131   1.411   .     A
C1129  C995    1.380   1_655 S
C1130  C1183   1.454   .     S
C1130  C1132   1.411   .     A
C1133  N1154   1.371   .     A
C1133  Cl1185  1.759   .     S
C1134  N1153   1.371   .     A
C1134  Cl1186  1.759   .     S
C1134  C739    1.420   1_565 S
C1135  N1154   1.370   .     A
C1135  Cl1187  1.760   .     S
C1136  N1153   1.370   .     A
C1136  Cl1188  1.760   .     S
C1136  C737    1.420   1_565 S
C1137  C1142   1.426   .     S
C1137  O1162   1.284   .     A
C1137  O1159   1.286   .     A
C1138  O1161   1.284   .     A
C1138  O1160   1.286   .     A
C1138  C1141   1.426   .     S
C1139  Cl1165  1.780   .     S
C1139  C1149   1.402   .     A
C1139  C1141   1.392   .     A
C1140  Cl1166  1.780   .     S
C1140  C1150   1.402   .     A
C1140  C1142   1.392   .     A
C1141  C1143   1.395   .     A
C1142  C1144   1.395   .     A
C1143  C1167   1.454   .     S
C1143  C1145   1.406   .     A
C1144  C1169   1.454   .     S
C1144  C1146   1.406   .     A
C1145  C1147   1.424   .     A
C1145  C1151   1.420   .     A
C1146  C1148   1.424   .     A
C1146  C1152   1.420   .     A
C1147  C1149   1.424   .     A
C1147  C554    1.402   1_556 S
C1148  C1150   1.424   .     A
C1151  C1171   1.453   .     S
C1151  C531    1.398   1_556 S
C1152  C1173   1.453   .     S
N1153  Zn1163  2.018   .     S
N1154  Zn1164  2.018   .     S
O1155  Zn1163  2.020   .     S
O1156  Zn1164  2.020   .     S
O1157  Zn1163  2.007   .     S
O1158  Zn1164  2.007   .     S
O1159  Zn1163  2.012   .     S
O1160  Zn1164  2.012   .     S
O1161  Zn1163  2.010   .     S
O1162  Zn1164  2.010   .     S
C1167  N1168   1.157   .     T
C1169  N1170   1.157   .     T
C1171  N1172   1.158   .     T
C1173  N1174   1.158   .     T
C1177  N1178   1.157   .     T
C1179  N1180   1.157   .     T
C1181  N1182   1.157   .     T
C1183  N1184   1.157   .     T
