data_str_m3_o10_o17_pcu_sym.97
_audit_creation_date              2020-01-03
_audit_creation_method            'Materials Studio'
_symmetry_space_group_name_H-M    'P1'
_symmetry_Int_Tables_number       1
_symmetry_cell_setting            triclinic
loop_
_symmetry_equiv_pos_as_xyz
  x,y,z
_cell_length_a                    23.4115
_cell_length_b                    25.7850
_cell_length_c                    29.7747
_cell_angle_alpha                 91.8615
_cell_angle_beta                  85.4165
_cell_angle_gamma                 93.0969
loop_
_atom_site_label
_atom_site_type_symbol
_atom_site_fract_x
_atom_site_fract_y
_atom_site_fract_z
_atom_site_U_iso_or_equiv
_atom_site_adp_type
_atom_site_occupancy
C1     C     0.18154   0.26471   0.24973   0.00000  Uiso   1.00
C2     C     0.18666   0.21498   0.40695   0.00000  Uiso   1.00
C3     C     0.16470   0.16413   0.11621   0.00000  Uiso   1.00
C4     C     0.16864   0.16921   0.38379   0.00000  Uiso   1.00
C5     C     0.18278   0.20928   0.09426   0.00000  Uiso   1.00
C6     C     0.15056   0.12405   0.40574   0.00000  Uiso   1.00
C7     C     0.18345   0.21055   0.04805   0.00000  Uiso   1.00
C8     C     0.14989   0.12278   0.45195   0.00000  Uiso   1.00
C9     C     0.16598   0.16568   0.02346   0.00000  Uiso   1.00
C10    C     0.16736   0.16765   0.47654   0.00000  Uiso   1.00
C11    C     0.14730   0.11895   0.04582   0.00000  Uiso   1.00
C12    C     0.15179   0.06862   0.25027   0.00000  Uiso   1.00
C13    C     0.18604   0.21438   0.45418   0.00000  Uiso   1.00
C14    C     0.20160   0.25642   0.02652   0.00000  Uiso   1.00
C15    C     0.13174   0.07691   0.47348   0.00000  Uiso   1.00
C16    C     0.20313   0.25909   0.47969   0.00000  Uiso   1.00
C17    C     0.13021   0.07424   0.02031   0.00000  Uiso   1.00
C18    C     0.18808   0.31909   0.25597   0.00000  Uiso   1.00
C19    C     0.14526   0.01424   0.24403   0.00000  Uiso   1.00
C20    C     0.16726   0.16728   0.33627   0.00000  Uiso   1.00
C21    C     0.16607   0.16605   0.16373   0.00000  Uiso   1.00
C22    C     0.14667   0.11835   0.09305   0.00000  Uiso   1.00
H23    H     0.19633   0.24365   0.11354   0.00000  Uiso   1.00
H24    H     0.07542   0.02018   0.21256   0.00000  Uiso   1.00
H25    H     0.31234   0.10054   0.19364   0.00000  Uiso   1.00
H26    H     0.02100   0.23279   0.30636   0.00000  Uiso   1.00
H27    H     0.13701   0.08968   0.38646   0.00000  Uiso   1.00
H28    H     0.13353   0.07701   0.14792   0.00000  Uiso   1.00
H29    H     0.19978   0.25633   0.35208   0.00000  Uiso   1.00
H30    H     0.21465   0.29045   0.04633   0.00000  Uiso   1.00
H31    H     0.11869   0.04288   0.45367   0.00000  Uiso   1.00
H32    H     0.23108   0.33191   0.48165   0.00000  Uiso   1.00
H33    H     0.10226   0.00142   0.01835   0.00000  Uiso   1.00
H34    H     0.25791   0.31316   0.28744   0.00000  Uiso   1.00
N35    N     0.31678   0.15265   0.23783   0.00000  Uiso   1.00
N36    N     0.01656   0.18068   0.26217   0.00000  Uiso   1.00
O37    O     0.12975   0.24619   0.25299   0.00000  Uiso   1.00
O38    O     0.20428   0.26025   0.38474   0.00000  Uiso   1.00
O39    O     0.22111   0.30488   0.45871   0.00000  Uiso   1.00
O40    O     0.11223   0.02845   0.04129   0.00000  Uiso   1.00
O41    O     0.23382   0.00757   0.27842   0.00000  Uiso   1.00
O42    O     0.09951   0.32576   0.22158   0.00000  Uiso   1.00
O43    O     0.01018   0.11900   0.20934   0.00000  Uiso   1.00
O44    O     0.32315   0.21434   0.29066   0.00000  Uiso   1.00
O45    O     0.20358   0.08714   0.24702   0.00000  Uiso   1.00
O46    O     0.22613   0.23721   0.24519   0.00000  Uiso   1.00
O47    O     0.10720   0.09613   0.25481   0.00000  Uiso   1.00
O48    O     0.11847   0.17117   0.31997   0.00000  Uiso   1.00
O49    O     0.21486   0.16216   0.18003   0.00000  Uiso   1.00
O50    O     0.21485   0.16219   0.31218   0.00000  Uiso   1.00
O51    O     0.11848   0.17115   0.18783   0.00000  Uiso   1.00
O52    O     0.12905   0.07308   0.11526   0.00000  Uiso   1.00
Zn53   Zn    0.10231   0.17266   0.25521   0.00000  Uiso   1.00
Zn54   Zn    0.23102   0.16067   0.24479   0.00000  Uiso   1.00
C55    C     0.51488   0.26471   0.24973   0.00000  Uiso   1.00
C56    C     0.51999   0.21498   0.40695   0.00000  Uiso   1.00
C57    C     0.49803   0.16413   0.11621   0.00000  Uiso   1.00
C58    C     0.50197   0.16921   0.38379   0.00000  Uiso   1.00
C59    C     0.51611   0.20928   0.09426   0.00000  Uiso   1.00
C60    C     0.48389   0.12405   0.40574   0.00000  Uiso   1.00
C61    C     0.51678   0.21055   0.04805   0.00000  Uiso   1.00
C62    C     0.48323   0.12278   0.45195   0.00000  Uiso   1.00
C63    C     0.49931   0.16568   0.02346   0.00000  Uiso   1.00
C64    C     0.50069   0.16765   0.47654   0.00000  Uiso   1.00
C65    C     0.48063   0.11895   0.04582   0.00000  Uiso   1.00
C66    C     0.48512   0.06862   0.25027   0.00000  Uiso   1.00
C67    C     0.51937   0.21438   0.45418   0.00000  Uiso   1.00
C68    C     0.53493   0.25642   0.02652   0.00000  Uiso   1.00
C69    C     0.46507   0.07691   0.47348   0.00000  Uiso   1.00
C70    C     0.53647   0.25909   0.47969   0.00000  Uiso   1.00
C71    C     0.46354   0.07424   0.02031   0.00000  Uiso   1.00
C72    C     0.52141   0.31909   0.25597   0.00000  Uiso   1.00
C73    C     0.47859   0.01424   0.24403   0.00000  Uiso   1.00
C74    C     0.50059   0.16728   0.33627   0.00000  Uiso   1.00
C75    C     0.49940   0.16605   0.16373   0.00000  Uiso   1.00
C76    C     0.48001   0.11835   0.09305   0.00000  Uiso   1.00
H77    H     0.52966   0.24365   0.11354   0.00000  Uiso   1.00
H78    H     0.40875   0.02018   0.21256   0.00000  Uiso   1.00
H79    H     0.64567   0.10054   0.19364   0.00000  Uiso   1.00
H80    H     0.35433   0.23279   0.30636   0.00000  Uiso   1.00
H81    H     0.47034   0.08968   0.38646   0.00000  Uiso   1.00
H82    H     0.46686   0.07701   0.14792   0.00000  Uiso   1.00
H83    H     0.53311   0.25633   0.35208   0.00000  Uiso   1.00
H84    H     0.54798   0.29045   0.04633   0.00000  Uiso   1.00
H85    H     0.45202   0.04288   0.45367   0.00000  Uiso   1.00
H86    H     0.56442   0.33191   0.48165   0.00000  Uiso   1.00
H87    H     0.43559   0.00142   0.01835   0.00000  Uiso   1.00
H88    H     0.59125   0.31316   0.28744   0.00000  Uiso   1.00
N89    N     0.65011   0.15265   0.23783   0.00000  Uiso   1.00
N90    N     0.34989   0.18068   0.26217   0.00000  Uiso   1.00
O91    O     0.46308   0.24619   0.25299   0.00000  Uiso   1.00
O92    O     0.53761   0.26025   0.38474   0.00000  Uiso   1.00
O93    O     0.55445   0.30488   0.45871   0.00000  Uiso   1.00
O94    O     0.44556   0.02845   0.04129   0.00000  Uiso   1.00
O95    O     0.56715   0.00757   0.27842   0.00000  Uiso   1.00
O96    O     0.43285   0.32576   0.22158   0.00000  Uiso   1.00
O97    O     0.34351   0.11900   0.20934   0.00000  Uiso   1.00
O98    O     0.65649   0.21434   0.29066   0.00000  Uiso   1.00
O99    O     0.53692   0.08714   0.24702   0.00000  Uiso   1.00
O100   O     0.55946   0.23721   0.24519   0.00000  Uiso   1.00
O101   O     0.44054   0.09613   0.25481   0.00000  Uiso   1.00
O102   O     0.45181   0.17117   0.31997   0.00000  Uiso   1.00
O103   O     0.54819   0.16216   0.18003   0.00000  Uiso   1.00
O104   O     0.54819   0.16219   0.31218   0.00000  Uiso   1.00
O105   O     0.45181   0.17115   0.18783   0.00000  Uiso   1.00
O106   O     0.46239   0.07308   0.11526   0.00000  Uiso   1.00
Zn107  Zn    0.43565   0.17266   0.25521   0.00000  Uiso   1.00
Zn108  Zn    0.56435   0.16067   0.24479   0.00000  Uiso   1.00
C109   C     0.84821   0.26471   0.24973   0.00000  Uiso   1.00
C110   C     0.85333   0.21498   0.40695   0.00000  Uiso   1.00
C111   C     0.83136   0.16413   0.11621   0.00000  Uiso   1.00
C112   C     0.83530   0.16921   0.38379   0.00000  Uiso   1.00
C113   C     0.84944   0.20928   0.09426   0.00000  Uiso   1.00
C114   C     0.81723   0.12405   0.40574   0.00000  Uiso   1.00
C115   C     0.85011   0.21055   0.04805   0.00000  Uiso   1.00
C116   C     0.81656   0.12278   0.45195   0.00000  Uiso   1.00
C117   C     0.83265   0.16568   0.02346   0.00000  Uiso   1.00
C118   C     0.83403   0.16765   0.47654   0.00000  Uiso   1.00
C119   C     0.81397   0.11895   0.04582   0.00000  Uiso   1.00
C120   C     0.81846   0.06862   0.25027   0.00000  Uiso   1.00
C121   C     0.85271   0.21438   0.45418   0.00000  Uiso   1.00
C122   C     0.86827   0.25642   0.02652   0.00000  Uiso   1.00
C123   C     0.79841   0.07691   0.47348   0.00000  Uiso   1.00
C124   C     0.86980   0.25909   0.47969   0.00000  Uiso   1.00
C125   C     0.79687   0.07424   0.02031   0.00000  Uiso   1.00
C126   C     0.85474   0.31909   0.25597   0.00000  Uiso   1.00
C127   C     0.81192   0.01424   0.24403   0.00000  Uiso   1.00
C128   C     0.83393   0.16728   0.33627   0.00000  Uiso   1.00
C129   C     0.83274   0.16605   0.16373   0.00000  Uiso   1.00
C130   C     0.81334   0.11835   0.09305   0.00000  Uiso   1.00
H131   H     0.86299   0.24365   0.11354   0.00000  Uiso   1.00
H132   H     0.74209   0.02018   0.21256   0.00000  Uiso   1.00
H133   H     0.97900   0.10054   0.19364   0.00000  Uiso   1.00
H134   H     0.68766   0.23279   0.30636   0.00000  Uiso   1.00
H135   H     0.80368   0.08968   0.38646   0.00000  Uiso   1.00
H136   H     0.80019   0.07701   0.14792   0.00000  Uiso   1.00
H137   H     0.86644   0.25633   0.35208   0.00000  Uiso   1.00
H138   H     0.88132   0.29045   0.04633   0.00000  Uiso   1.00
H139   H     0.78536   0.04288   0.45367   0.00000  Uiso   1.00
H140   H     0.89775   0.33191   0.48165   0.00000  Uiso   1.00
H141   H     0.76893   0.00142   0.01835   0.00000  Uiso   1.00
H142   H     0.92458   0.31316   0.28744   0.00000  Uiso   1.00
N143   N     0.98344   0.15265   0.23783   0.00000  Uiso   1.00
N144   N     0.68322   0.18068   0.26217   0.00000  Uiso   1.00
O145   O     0.79642   0.24619   0.25299   0.00000  Uiso   1.00
O146   O     0.87095   0.26025   0.38474   0.00000  Uiso   1.00
O147   O     0.88778   0.30488   0.45871   0.00000  Uiso   1.00
O148   O     0.77890   0.02845   0.04129   0.00000  Uiso   1.00
O149   O     0.90049   0.00757   0.27842   0.00000  Uiso   1.00
O150   O     0.76618   0.32576   0.22158   0.00000  Uiso   1.00
O151   O     0.67685   0.11900   0.20934   0.00000  Uiso   1.00
O152   O     0.98982   0.21434   0.29066   0.00000  Uiso   1.00
O153   O     0.87025   0.08714   0.24702   0.00000  Uiso   1.00
O154   O     0.89280   0.23721   0.24519   0.00000  Uiso   1.00
O155   O     0.77387   0.09613   0.25481   0.00000  Uiso   1.00
O156   O     0.78514   0.17117   0.31997   0.00000  Uiso   1.00
O157   O     0.88153   0.16216   0.18003   0.00000  Uiso   1.00
O158   O     0.88152   0.16219   0.31218   0.00000  Uiso   1.00
O159   O     0.78515   0.17115   0.18783   0.00000  Uiso   1.00
O160   O     0.79572   0.07308   0.11526   0.00000  Uiso   1.00
Zn161  Zn    0.76898   0.17266   0.25521   0.00000  Uiso   1.00
Zn162  Zn    0.89769   0.16067   0.24479   0.00000  Uiso   1.00
C163   C     0.18154   0.59805   0.24973   0.00000  Uiso   1.00
C164   C     0.18666   0.54831   0.40695   0.00000  Uiso   1.00
C165   C     0.16470   0.49746   0.11621   0.00000  Uiso   1.00
C166   C     0.16864   0.50254   0.38379   0.00000  Uiso   1.00
C167   C     0.18278   0.54261   0.09426   0.00000  Uiso   1.00
C168   C     0.15056   0.45739   0.40574   0.00000  Uiso   1.00
C169   C     0.18345   0.54389   0.04805   0.00000  Uiso   1.00
C170   C     0.14989   0.45611   0.45195   0.00000  Uiso   1.00
C171   C     0.16598   0.49901   0.02346   0.00000  Uiso   1.00
C172   C     0.16736   0.50099   0.47654   0.00000  Uiso   1.00
C173   C     0.14730   0.45229   0.04582   0.00000  Uiso   1.00
C174   C     0.15179   0.40195   0.25027   0.00000  Uiso   1.00
C175   C     0.18604   0.54771   0.45418   0.00000  Uiso   1.00
C176   C     0.20160   0.58975   0.02652   0.00000  Uiso   1.00
C177   C     0.13174   0.41024   0.47348   0.00000  Uiso   1.00
C178   C     0.20313   0.59242   0.47969   0.00000  Uiso   1.00
C179   C     0.13021   0.40758   0.02031   0.00000  Uiso   1.00
C180   C     0.18808   0.65242   0.25597   0.00000  Uiso   1.00
C181   C     0.14526   0.34758   0.24403   0.00000  Uiso   1.00
C182   C     0.16726   0.50062   0.33627   0.00000  Uiso   1.00
C183   C     0.16607   0.49938   0.16373   0.00000  Uiso   1.00
C184   C     0.14667   0.45168   0.09305   0.00000  Uiso   1.00
H185   H     0.19633   0.57699   0.11354   0.00000  Uiso   1.00
H186   H     0.07542   0.35351   0.21256   0.00000  Uiso   1.00
H187   H     0.31234   0.43387   0.19364   0.00000  Uiso   1.00
H188   H     0.02100   0.56613   0.30636   0.00000  Uiso   1.00
H189   H     0.13701   0.42301   0.38646   0.00000  Uiso   1.00
H190   H     0.13353   0.41034   0.14792   0.00000  Uiso   1.00
H191   H     0.19978   0.58967   0.35208   0.00000  Uiso   1.00
H192   H     0.21465   0.62378   0.04633   0.00000  Uiso   1.00
H193   H     0.11869   0.37622   0.45367   0.00000  Uiso   1.00
H194   H     0.23108   0.66524   0.48165   0.00000  Uiso   1.00
H195   H     0.10226   0.33475   0.01835   0.00000  Uiso   1.00
H196   H     0.25791   0.64649   0.28744   0.00000  Uiso   1.00
N197   N     0.31678   0.48598   0.23783   0.00000  Uiso   1.00
N198   N     0.01656   0.51402   0.26217   0.00000  Uiso   1.00
O199   O     0.12975   0.57952   0.25299   0.00000  Uiso   1.00
O200   O     0.20428   0.59358   0.38474   0.00000  Uiso   1.00
O201   O     0.22111   0.63821   0.45871   0.00000  Uiso   1.00
O202   O     0.11223   0.36179   0.04129   0.00000  Uiso   1.00
O203   O     0.23382   0.34091   0.27842   0.00000  Uiso   1.00
O204   O     0.09951   0.65909   0.22158   0.00000  Uiso   1.00
O205   O     0.01018   0.45233   0.20934   0.00000  Uiso   1.00
O206   O     0.32315   0.54767   0.29066   0.00000  Uiso   1.00
O207   O     0.20358   0.42048   0.24702   0.00000  Uiso   1.00
O208   O     0.22613   0.57054   0.24519   0.00000  Uiso   1.00
O209   O     0.10720   0.42946   0.25481   0.00000  Uiso   1.00
O210   O     0.11847   0.50450   0.31997   0.00000  Uiso   1.00
O211   O     0.21486   0.49550   0.18003   0.00000  Uiso   1.00
O212   O     0.21485   0.49552   0.31218   0.00000  Uiso   1.00
O213   O     0.11848   0.50448   0.18783   0.00000  Uiso   1.00
O214   O     0.12905   0.40642   0.11526   0.00000  Uiso   1.00
Zn215  Zn    0.10231   0.50600   0.25521   0.00000  Uiso   1.00
Zn216  Zn    0.23102   0.49400   0.24479   0.00000  Uiso   1.00
C217   C     0.51488   0.59805   0.24973   0.00000  Uiso   1.00
C218   C     0.51999   0.54831   0.40695   0.00000  Uiso   1.00
C219   C     0.49803   0.49746   0.11621   0.00000  Uiso   1.00
C220   C     0.50197   0.50254   0.38379   0.00000  Uiso   1.00
C221   C     0.51611   0.54261   0.09426   0.00000  Uiso   1.00
C222   C     0.48389   0.45739   0.40574   0.00000  Uiso   1.00
C223   C     0.51678   0.54389   0.04805   0.00000  Uiso   1.00
C224   C     0.48323   0.45611   0.45195   0.00000  Uiso   1.00
C225   C     0.49931   0.49901   0.02346   0.00000  Uiso   1.00
C226   C     0.50069   0.50099   0.47654   0.00000  Uiso   1.00
C227   C     0.48063   0.45229   0.04582   0.00000  Uiso   1.00
C228   C     0.48512   0.40195   0.25027   0.00000  Uiso   1.00
C229   C     0.51937   0.54771   0.45418   0.00000  Uiso   1.00
C230   C     0.53493   0.58975   0.02652   0.00000  Uiso   1.00
C231   C     0.46507   0.41024   0.47348   0.00000  Uiso   1.00
C232   C     0.53647   0.59242   0.47969   0.00000  Uiso   1.00
C233   C     0.46354   0.40758   0.02031   0.00000  Uiso   1.00
C234   C     0.52141   0.65242   0.25597   0.00000  Uiso   1.00
C235   C     0.47859   0.34758   0.24403   0.00000  Uiso   1.00
C236   C     0.50059   0.50062   0.33627   0.00000  Uiso   1.00
C237   C     0.49940   0.49938   0.16373   0.00000  Uiso   1.00
C238   C     0.48001   0.45168   0.09305   0.00000  Uiso   1.00
H239   H     0.52966   0.57699   0.11354   0.00000  Uiso   1.00
H240   H     0.40875   0.35351   0.21256   0.00000  Uiso   1.00
H241   H     0.64567   0.43387   0.19364   0.00000  Uiso   1.00
H242   H     0.35433   0.56613   0.30636   0.00000  Uiso   1.00
H243   H     0.47034   0.42301   0.38646   0.00000  Uiso   1.00
H244   H     0.46686   0.41034   0.14792   0.00000  Uiso   1.00
H245   H     0.53311   0.58967   0.35208   0.00000  Uiso   1.00
H246   H     0.54798   0.62378   0.04633   0.00000  Uiso   1.00
H247   H     0.45202   0.37622   0.45367   0.00000  Uiso   1.00
H248   H     0.56442   0.66524   0.48165   0.00000  Uiso   1.00
H249   H     0.43559   0.33475   0.01835   0.00000  Uiso   1.00
H250   H     0.59125   0.64649   0.28744   0.00000  Uiso   1.00
N251   N     0.65011   0.48598   0.23783   0.00000  Uiso   1.00
N252   N     0.34989   0.51402   0.26217   0.00000  Uiso   1.00
O253   O     0.46308   0.57952   0.25299   0.00000  Uiso   1.00
O254   O     0.53761   0.59358   0.38474   0.00000  Uiso   1.00
O255   O     0.55445   0.63821   0.45871   0.00000  Uiso   1.00
O256   O     0.44556   0.36179   0.04129   0.00000  Uiso   1.00
O257   O     0.56715   0.34091   0.27842   0.00000  Uiso   1.00
O258   O     0.43285   0.65909   0.22158   0.00000  Uiso   1.00
O259   O     0.34351   0.45233   0.20934   0.00000  Uiso   1.00
O260   O     0.65649   0.54767   0.29066   0.00000  Uiso   1.00
O261   O     0.53692   0.42048   0.24702   0.00000  Uiso   1.00
O262   O     0.55946   0.57054   0.24519   0.00000  Uiso   1.00
O263   O     0.44054   0.42946   0.25481   0.00000  Uiso   1.00
O264   O     0.45181   0.50450   0.31997   0.00000  Uiso   1.00
O265   O     0.54819   0.49550   0.18003   0.00000  Uiso   1.00
O266   O     0.54819   0.49552   0.31218   0.00000  Uiso   1.00
O267   O     0.45181   0.50448   0.18783   0.00000  Uiso   1.00
O268   O     0.46239   0.40642   0.11526   0.00000  Uiso   1.00
Zn269  Zn    0.43565   0.50600   0.25521   0.00000  Uiso   1.00
Zn270  Zn    0.56435   0.49400   0.24479   0.00000  Uiso   1.00
C271   C     0.84821   0.59805   0.24973   0.00000  Uiso   1.00
C272   C     0.85333   0.54831   0.40695   0.00000  Uiso   1.00
C273   C     0.83136   0.49746   0.11621   0.00000  Uiso   1.00
C274   C     0.83530   0.50254   0.38379   0.00000  Uiso   1.00
C275   C     0.84944   0.54261   0.09426   0.00000  Uiso   1.00
C276   C     0.81723   0.45739   0.40574   0.00000  Uiso   1.00
C277   C     0.85011   0.54389   0.04805   0.00000  Uiso   1.00
C278   C     0.81656   0.45611   0.45195   0.00000  Uiso   1.00
C279   C     0.83265   0.49901   0.02346   0.00000  Uiso   1.00
C280   C     0.83403   0.50099   0.47654   0.00000  Uiso   1.00
C281   C     0.81397   0.45229   0.04582   0.00000  Uiso   1.00
C282   C     0.81846   0.40195   0.25027   0.00000  Uiso   1.00
C283   C     0.85271   0.54771   0.45418   0.00000  Uiso   1.00
C284   C     0.86827   0.58975   0.02652   0.00000  Uiso   1.00
C285   C     0.79841   0.41024   0.47348   0.00000  Uiso   1.00
C286   C     0.86980   0.59242   0.47969   0.00000  Uiso   1.00
C287   C     0.79687   0.40758   0.02031   0.00000  Uiso   1.00
C288   C     0.85474   0.65242   0.25597   0.00000  Uiso   1.00
C289   C     0.81192   0.34758   0.24403   0.00000  Uiso   1.00
C290   C     0.83393   0.50062   0.33627   0.00000  Uiso   1.00
C291   C     0.83274   0.49938   0.16373   0.00000  Uiso   1.00
C292   C     0.81334   0.45168   0.09305   0.00000  Uiso   1.00
H293   H     0.86299   0.57699   0.11354   0.00000  Uiso   1.00
H294   H     0.74209   0.35351   0.21256   0.00000  Uiso   1.00
H295   H     0.97900   0.43387   0.19364   0.00000  Uiso   1.00
H296   H     0.68766   0.56613   0.30636   0.00000  Uiso   1.00
H297   H     0.80368   0.42301   0.38646   0.00000  Uiso   1.00
H298   H     0.80019   0.41034   0.14792   0.00000  Uiso   1.00
H299   H     0.86644   0.58967   0.35208   0.00000  Uiso   1.00
H300   H     0.88132   0.62378   0.04633   0.00000  Uiso   1.00
H301   H     0.78536   0.37622   0.45367   0.00000  Uiso   1.00
H302   H     0.89775   0.66524   0.48165   0.00000  Uiso   1.00
H303   H     0.76893   0.33475   0.01835   0.00000  Uiso   1.00
H304   H     0.92458   0.64649   0.28744   0.00000  Uiso   1.00
N305   N     0.98344   0.48598   0.23783   0.00000  Uiso   1.00
N306   N     0.68322   0.51402   0.26217   0.00000  Uiso   1.00
O307   O     0.79642   0.57952   0.25299   0.00000  Uiso   1.00
O308   O     0.87095   0.59358   0.38474   0.00000  Uiso   1.00
O309   O     0.88778   0.63821   0.45871   0.00000  Uiso   1.00
O310   O     0.77890   0.36179   0.04129   0.00000  Uiso   1.00
O311   O     0.90049   0.34091   0.27842   0.00000  Uiso   1.00
O312   O     0.76618   0.65909   0.22158   0.00000  Uiso   1.00
O313   O     0.67685   0.45233   0.20934   0.00000  Uiso   1.00
O314   O     0.98982   0.54767   0.29066   0.00000  Uiso   1.00
O315   O     0.87025   0.42048   0.24702   0.00000  Uiso   1.00
O316   O     0.89280   0.57054   0.24519   0.00000  Uiso   1.00
O317   O     0.77387   0.42946   0.25481   0.00000  Uiso   1.00
O318   O     0.78514   0.50450   0.31997   0.00000  Uiso   1.00
O319   O     0.88153   0.49550   0.18003   0.00000  Uiso   1.00
O320   O     0.88152   0.49552   0.31218   0.00000  Uiso   1.00
O321   O     0.78515   0.50448   0.18783   0.00000  Uiso   1.00
O322   O     0.79572   0.40642   0.11526   0.00000  Uiso   1.00
Zn323  Zn    0.76898   0.50600   0.25521   0.00000  Uiso   1.00
Zn324  Zn    0.89769   0.49400   0.24479   0.00000  Uiso   1.00
C325   C     0.18154   0.93138   0.24973   0.00000  Uiso   1.00
C326   C     0.18666   0.88165   0.40695   0.00000  Uiso   1.00
C327   C     0.16470   0.83079   0.11621   0.00000  Uiso   1.00
C328   C     0.16864   0.83587   0.38379   0.00000  Uiso   1.00
C329   C     0.18278   0.87595   0.09426   0.00000  Uiso   1.00
C330   C     0.15056   0.79072   0.40574   0.00000  Uiso   1.00
C331   C     0.18345   0.87722   0.04805   0.00000  Uiso   1.00
C332   C     0.14989   0.78944   0.45195   0.00000  Uiso   1.00
C333   C     0.16598   0.83234   0.02346   0.00000  Uiso   1.00
C334   C     0.16736   0.83432   0.47654   0.00000  Uiso   1.00
C335   C     0.14730   0.78562   0.04582   0.00000  Uiso   1.00
C336   C     0.15179   0.73529   0.25027   0.00000  Uiso   1.00
C337   C     0.18604   0.88104   0.45418   0.00000  Uiso   1.00
C338   C     0.20160   0.92309   0.02652   0.00000  Uiso   1.00
C339   C     0.13174   0.74358   0.47348   0.00000  Uiso   1.00
C340   C     0.20313   0.92575   0.47969   0.00000  Uiso   1.00
C341   C     0.13021   0.74091   0.02031   0.00000  Uiso   1.00
C342   C     0.18808   0.98576   0.25597   0.00000  Uiso   1.00
C343   C     0.14526   0.68091   0.24403   0.00000  Uiso   1.00
C344   C     0.16726   0.83395   0.33627   0.00000  Uiso   1.00
C345   C     0.16607   0.83272   0.16373   0.00000  Uiso   1.00
C346   C     0.14667   0.78502   0.09305   0.00000  Uiso   1.00
H347   H     0.19633   0.91032   0.11354   0.00000  Uiso   1.00
H348   H     0.07542   0.68684   0.21256   0.00000  Uiso   1.00
H349   H     0.31234   0.76721   0.19364   0.00000  Uiso   1.00
H350   H     0.02100   0.89946   0.30636   0.00000  Uiso   1.00
H351   H     0.13701   0.75635   0.38646   0.00000  Uiso   1.00
H352   H     0.13353   0.74367   0.14792   0.00000  Uiso   1.00
H353   H     0.19978   0.92300   0.35208   0.00000  Uiso   1.00
H354   H     0.21465   0.95711   0.04633   0.00000  Uiso   1.00
H355   H     0.11869   0.70955   0.45367   0.00000  Uiso   1.00
H356   H     0.23108   0.99858   0.48165   0.00000  Uiso   1.00
H357   H     0.10226   0.66809   0.01835   0.00000  Uiso   1.00
H358   H     0.25791   0.97982   0.28744   0.00000  Uiso   1.00
N359   N     0.31678   0.81932   0.23783   0.00000  Uiso   1.00
N360   N     0.01656   0.84735   0.26217   0.00000  Uiso   1.00
O361   O     0.12975   0.91286   0.25299   0.00000  Uiso   1.00
O362   O     0.20428   0.92691   0.38474   0.00000  Uiso   1.00
O363   O     0.22111   0.97154   0.45871   0.00000  Uiso   1.00
O364   O     0.11223   0.69512   0.04129   0.00000  Uiso   1.00
O365   O     0.23382   0.67424   0.27842   0.00000  Uiso   1.00
O366   O     0.09951   0.99243   0.22158   0.00000  Uiso   1.00
O367   O     0.01018   0.78566   0.20934   0.00000  Uiso   1.00
O368   O     0.32315   0.88100   0.29066   0.00000  Uiso   1.00
O369   O     0.20358   0.75381   0.24702   0.00000  Uiso   1.00
O370   O     0.22613   0.90387   0.24519   0.00000  Uiso   1.00
O371   O     0.10720   0.76279   0.25481   0.00000  Uiso   1.00
O372   O     0.11847   0.83784   0.31997   0.00000  Uiso   1.00
O373   O     0.21486   0.82883   0.18003   0.00000  Uiso   1.00
O374   O     0.21485   0.82885   0.31218   0.00000  Uiso   1.00
O375   O     0.11848   0.83781   0.18783   0.00000  Uiso   1.00
O376   O     0.12905   0.73975   0.11526   0.00000  Uiso   1.00
Zn377  Zn    0.10231   0.83933   0.25521   0.00000  Uiso   1.00
Zn378  Zn    0.23102   0.82734   0.24479   0.00000  Uiso   1.00
C379   C     0.51488   0.93138   0.24973   0.00000  Uiso   1.00
C380   C     0.51999   0.88165   0.40695   0.00000  Uiso   1.00
C381   C     0.49803   0.83079   0.11621   0.00000  Uiso   1.00
C382   C     0.50197   0.83587   0.38379   0.00000  Uiso   1.00
C383   C     0.51611   0.87595   0.09426   0.00000  Uiso   1.00
C384   C     0.48389   0.79072   0.40574   0.00000  Uiso   1.00
C385   C     0.51678   0.87722   0.04805   0.00000  Uiso   1.00
C386   C     0.48323   0.78944   0.45195   0.00000  Uiso   1.00
C387   C     0.49931   0.83234   0.02346   0.00000  Uiso   1.00
C388   C     0.50069   0.83432   0.47654   0.00000  Uiso   1.00
C389   C     0.48063   0.78562   0.04582   0.00000  Uiso   1.00
C390   C     0.48512   0.73529   0.25027   0.00000  Uiso   1.00
C391   C     0.51937   0.88104   0.45418   0.00000  Uiso   1.00
C392   C     0.53493   0.92309   0.02652   0.00000  Uiso   1.00
C393   C     0.46507   0.74358   0.47348   0.00000  Uiso   1.00
C394   C     0.53647   0.92575   0.47969   0.00000  Uiso   1.00
C395   C     0.46354   0.74091   0.02031   0.00000  Uiso   1.00
C396   C     0.52141   0.98576   0.25597   0.00000  Uiso   1.00
C397   C     0.47859   0.68091   0.24403   0.00000  Uiso   1.00
C398   C     0.50059   0.83395   0.33627   0.00000  Uiso   1.00
C399   C     0.49940   0.83272   0.16373   0.00000  Uiso   1.00
C400   C     0.48001   0.78502   0.09305   0.00000  Uiso   1.00
H401   H     0.52966   0.91032   0.11354   0.00000  Uiso   1.00
H402   H     0.40875   0.68684   0.21256   0.00000  Uiso   1.00
H403   H     0.64567   0.76721   0.19364   0.00000  Uiso   1.00
H404   H     0.35433   0.89946   0.30636   0.00000  Uiso   1.00
H405   H     0.47034   0.75635   0.38646   0.00000  Uiso   1.00
H406   H     0.46686   0.74367   0.14792   0.00000  Uiso   1.00
H407   H     0.53311   0.92300   0.35208   0.00000  Uiso   1.00
H408   H     0.54798   0.95711   0.04633   0.00000  Uiso   1.00
H409   H     0.45202   0.70955   0.45367   0.00000  Uiso   1.00
H410   H     0.56442   0.99858   0.48165   0.00000  Uiso   1.00
H411   H     0.43559   0.66809   0.01835   0.00000  Uiso   1.00
H412   H     0.59125   0.97982   0.28744   0.00000  Uiso   1.00
N413   N     0.65011   0.81932   0.23783   0.00000  Uiso   1.00
N414   N     0.34989   0.84735   0.26217   0.00000  Uiso   1.00
O415   O     0.46308   0.91286   0.25299   0.00000  Uiso   1.00
O416   O     0.53761   0.92691   0.38474   0.00000  Uiso   1.00
O417   O     0.55445   0.97154   0.45871   0.00000  Uiso   1.00
O418   O     0.44556   0.69512   0.04129   0.00000  Uiso   1.00
O419   O     0.56715   0.67424   0.27842   0.00000  Uiso   1.00
O420   O     0.43285   0.99243   0.22158   0.00000  Uiso   1.00
O421   O     0.34351   0.78566   0.20934   0.00000  Uiso   1.00
O422   O     0.65649   0.88100   0.29066   0.00000  Uiso   1.00
O423   O     0.53692   0.75381   0.24702   0.00000  Uiso   1.00
O424   O     0.55946   0.90387   0.24519   0.00000  Uiso   1.00
O425   O     0.44054   0.76279   0.25481   0.00000  Uiso   1.00
O426   O     0.45181   0.83784   0.31997   0.00000  Uiso   1.00
O427   O     0.54819   0.82883   0.18003   0.00000  Uiso   1.00
O428   O     0.54819   0.82885   0.31218   0.00000  Uiso   1.00
O429   O     0.45181   0.83781   0.18783   0.00000  Uiso   1.00
O430   O     0.46239   0.73975   0.11526   0.00000  Uiso   1.00
Zn431  Zn    0.43565   0.83933   0.25521   0.00000  Uiso   1.00
Zn432  Zn    0.56435   0.82734   0.24479   0.00000  Uiso   1.00
C433   C     0.84821   0.93138   0.24973   0.00000  Uiso   1.00
C434   C     0.85333   0.88165   0.40695   0.00000  Uiso   1.00
C435   C     0.83136   0.83079   0.11621   0.00000  Uiso   1.00
C436   C     0.83530   0.83587   0.38379   0.00000  Uiso   1.00
C437   C     0.84944   0.87595   0.09426   0.00000  Uiso   1.00
C438   C     0.81723   0.79072   0.40574   0.00000  Uiso   1.00
C439   C     0.85011   0.87722   0.04805   0.00000  Uiso   1.00
C440   C     0.81656   0.78944   0.45195   0.00000  Uiso   1.00
C441   C     0.83265   0.83234   0.02346   0.00000  Uiso   1.00
C442   C     0.83403   0.83432   0.47654   0.00000  Uiso   1.00
C443   C     0.81397   0.78562   0.04582   0.00000  Uiso   1.00
C444   C     0.81846   0.73529   0.25027   0.00000  Uiso   1.00
C445   C     0.85271   0.88104   0.45418   0.00000  Uiso   1.00
C446   C     0.86827   0.92309   0.02652   0.00000  Uiso   1.00
C447   C     0.79841   0.74358   0.47348   0.00000  Uiso   1.00
C448   C     0.86980   0.92575   0.47969   0.00000  Uiso   1.00
C449   C     0.79687   0.74091   0.02031   0.00000  Uiso   1.00
C450   C     0.85474   0.98576   0.25597   0.00000  Uiso   1.00
C451   C     0.81192   0.68091   0.24403   0.00000  Uiso   1.00
C452   C     0.83393   0.83395   0.33627   0.00000  Uiso   1.00
C453   C     0.83274   0.83272   0.16373   0.00000  Uiso   1.00
C454   C     0.81334   0.78502   0.09305   0.00000  Uiso   1.00
H455   H     0.86299   0.91032   0.11354   0.00000  Uiso   1.00
H456   H     0.74209   0.68684   0.21256   0.00000  Uiso   1.00
H457   H     0.97900   0.76721   0.19364   0.00000  Uiso   1.00
H458   H     0.68766   0.89946   0.30636   0.00000  Uiso   1.00
H459   H     0.80368   0.75635   0.38646   0.00000  Uiso   1.00
H460   H     0.80019   0.74367   0.14792   0.00000  Uiso   1.00
H461   H     0.86644   0.92300   0.35208   0.00000  Uiso   1.00
H462   H     0.88132   0.95711   0.04633   0.00000  Uiso   1.00
H463   H     0.78536   0.70955   0.45367   0.00000  Uiso   1.00
H464   H     0.89775   0.99858   0.48165   0.00000  Uiso   1.00
H465   H     0.76893   0.66809   0.01835   0.00000  Uiso   1.00
H466   H     0.92458   0.97982   0.28744   0.00000  Uiso   1.00
N467   N     0.98344   0.81932   0.23783   0.00000  Uiso   1.00
N468   N     0.68322   0.84735   0.26217   0.00000  Uiso   1.00
O469   O     0.79642   0.91286   0.25299   0.00000  Uiso   1.00
O470   O     0.87095   0.92691   0.38474   0.00000  Uiso   1.00
O471   O     0.88778   0.97154   0.45871   0.00000  Uiso   1.00
O472   O     0.77890   0.69512   0.04129   0.00000  Uiso   1.00
O473   O     0.90049   0.67424   0.27842   0.00000  Uiso   1.00
O474   O     0.76618   0.99243   0.22158   0.00000  Uiso   1.00
O475   O     0.67685   0.78566   0.20934   0.00000  Uiso   1.00
O476   O     0.98982   0.88100   0.29066   0.00000  Uiso   1.00
O477   O     0.87025   0.75381   0.24702   0.00000  Uiso   1.00
O478   O     0.89280   0.90387   0.24519   0.00000  Uiso   1.00
O479   O     0.77387   0.76279   0.25481   0.00000  Uiso   1.00
O480   O     0.78514   0.83784   0.31997   0.00000  Uiso   1.00
O481   O     0.88153   0.82883   0.18003   0.00000  Uiso   1.00
O482   O     0.88152   0.82885   0.31218   0.00000  Uiso   1.00
O483   O     0.78515   0.83781   0.18783   0.00000  Uiso   1.00
O484   O     0.79572   0.73975   0.11526   0.00000  Uiso   1.00
Zn485  Zn    0.76898   0.83933   0.25521   0.00000  Uiso   1.00
Zn486  Zn    0.89769   0.82734   0.24479   0.00000  Uiso   1.00
C487   C     0.18154   0.26471   0.74973   0.00000  Uiso   1.00
C488   C     0.18666   0.21498   0.90695   0.00000  Uiso   1.00
C489   C     0.16470   0.16413   0.61621   0.00000  Uiso   1.00
C490   C     0.16864   0.16921   0.88379   0.00000  Uiso   1.00
C491   C     0.18278   0.20928   0.59426   0.00000  Uiso   1.00
C492   C     0.15056   0.12405   0.90574   0.00000  Uiso   1.00
C493   C     0.18345   0.21055   0.54805   0.00000  Uiso   1.00
C494   C     0.14989   0.12278   0.95195   0.00000  Uiso   1.00
C495   C     0.16598   0.16568   0.52346   0.00000  Uiso   1.00
C496   C     0.16736   0.16765   0.97654   0.00000  Uiso   1.00
C497   C     0.14730   0.11895   0.54582   0.00000  Uiso   1.00
C498   C     0.15179   0.06862   0.75027   0.00000  Uiso   1.00
C499   C     0.18604   0.21438   0.95418   0.00000  Uiso   1.00
C500   C     0.20160   0.25642   0.52652   0.00000  Uiso   1.00
C501   C     0.13174   0.07691   0.97348   0.00000  Uiso   1.00
C502   C     0.20313   0.25909   0.97969   0.00000  Uiso   1.00
C503   C     0.13021   0.07424   0.52031   0.00000  Uiso   1.00
C504   C     0.18808   0.31909   0.75597   0.00000  Uiso   1.00
C505   C     0.14526   0.01424   0.74403   0.00000  Uiso   1.00
C506   C     0.16726   0.16728   0.83627   0.00000  Uiso   1.00
C507   C     0.16607   0.16605   0.66373   0.00000  Uiso   1.00
C508   C     0.14667   0.11835   0.59305   0.00000  Uiso   1.00
H509   H     0.19633   0.24365   0.61354   0.00000  Uiso   1.00
H510   H     0.07542   0.02018   0.71256   0.00000  Uiso   1.00
H511   H     0.31234   0.10054   0.69364   0.00000  Uiso   1.00
H512   H     0.02100   0.23279   0.80636   0.00000  Uiso   1.00
H513   H     0.13701   0.08968   0.88646   0.00000  Uiso   1.00
H514   H     0.13353   0.07701   0.64792   0.00000  Uiso   1.00
H515   H     0.19978   0.25633   0.85208   0.00000  Uiso   1.00
H516   H     0.21465   0.29045   0.54633   0.00000  Uiso   1.00
H517   H     0.11869   0.04288   0.95367   0.00000  Uiso   1.00
H518   H     0.23108   0.33191   0.98165   0.00000  Uiso   1.00
H519   H     0.10226   0.00142   0.51835   0.00000  Uiso   1.00
H520   H     0.25791   0.31316   0.78744   0.00000  Uiso   1.00
N521   N     0.31678   0.15265   0.73783   0.00000  Uiso   1.00
N522   N     0.01656   0.18068   0.76217   0.00000  Uiso   1.00
O523   O     0.12975   0.24619   0.75299   0.00000  Uiso   1.00
O524   O     0.20428   0.26025   0.88474   0.00000  Uiso   1.00
O525   O     0.22111   0.30488   0.95871   0.00000  Uiso   1.00
O526   O     0.11223   0.02845   0.54129   0.00000  Uiso   1.00
O527   O     0.23382   0.00757   0.77842   0.00000  Uiso   1.00
O528   O     0.09951   0.32576   0.72158   0.00000  Uiso   1.00
O529   O     0.01018   0.11900   0.70934   0.00000  Uiso   1.00
O530   O     0.32315   0.21434   0.79066   0.00000  Uiso   1.00
O531   O     0.20358   0.08714   0.74702   0.00000  Uiso   1.00
O532   O     0.22613   0.23721   0.74519   0.00000  Uiso   1.00
O533   O     0.10720   0.09613   0.75481   0.00000  Uiso   1.00
O534   O     0.11847   0.17117   0.81997   0.00000  Uiso   1.00
O535   O     0.21486   0.16216   0.68003   0.00000  Uiso   1.00
O536   O     0.21485   0.16219   0.81218   0.00000  Uiso   1.00
O537   O     0.11848   0.17115   0.68783   0.00000  Uiso   1.00
O538   O     0.12905   0.07308   0.61526   0.00000  Uiso   1.00
Zn539  Zn    0.10231   0.17266   0.75521   0.00000  Uiso   1.00
Zn540  Zn    0.23102   0.16067   0.74479   0.00000  Uiso   1.00
C541   C     0.51488   0.26471   0.74973   0.00000  Uiso   1.00
C542   C     0.51999   0.21498   0.90695   0.00000  Uiso   1.00
C543   C     0.49803   0.16413   0.61621   0.00000  Uiso   1.00
C544   C     0.50197   0.16921   0.88379   0.00000  Uiso   1.00
C545   C     0.51611   0.20928   0.59426   0.00000  Uiso   1.00
C546   C     0.48389   0.12405   0.90574   0.00000  Uiso   1.00
C547   C     0.51678   0.21055   0.54805   0.00000  Uiso   1.00
C548   C     0.48323   0.12278   0.95195   0.00000  Uiso   1.00
C549   C     0.49931   0.16568   0.52346   0.00000  Uiso   1.00
C550   C     0.50069   0.16765   0.97654   0.00000  Uiso   1.00
C551   C     0.48063   0.11895   0.54582   0.00000  Uiso   1.00
C552   C     0.48512   0.06862   0.75027   0.00000  Uiso   1.00
C553   C     0.51937   0.21438   0.95418   0.00000  Uiso   1.00
C554   C     0.53493   0.25642   0.52652   0.00000  Uiso   1.00
C555   C     0.46507   0.07691   0.97348   0.00000  Uiso   1.00
C556   C     0.53647   0.25909   0.97969   0.00000  Uiso   1.00
C557   C     0.46354   0.07424   0.52031   0.00000  Uiso   1.00
C558   C     0.52141   0.31909   0.75597   0.00000  Uiso   1.00
C559   C     0.47859   0.01424   0.74403   0.00000  Uiso   1.00
C560   C     0.50059   0.16728   0.83627   0.00000  Uiso   1.00
C561   C     0.49940   0.16605   0.66373   0.00000  Uiso   1.00
C562   C     0.48001   0.11835   0.59305   0.00000  Uiso   1.00
H563   H     0.52966   0.24365   0.61354   0.00000  Uiso   1.00
H564   H     0.40875   0.02018   0.71256   0.00000  Uiso   1.00
H565   H     0.64567   0.10054   0.69364   0.00000  Uiso   1.00
H566   H     0.35433   0.23279   0.80636   0.00000  Uiso   1.00
H567   H     0.47034   0.08968   0.88646   0.00000  Uiso   1.00
H568   H     0.46686   0.07701   0.64792   0.00000  Uiso   1.00
H569   H     0.53311   0.25633   0.85208   0.00000  Uiso   1.00
H570   H     0.54798   0.29045   0.54633   0.00000  Uiso   1.00
H571   H     0.45202   0.04288   0.95367   0.00000  Uiso   1.00
H572   H     0.56442   0.33191   0.98165   0.00000  Uiso   1.00
H573   H     0.43559   0.00142   0.51835   0.00000  Uiso   1.00
H574   H     0.59125   0.31316   0.78744   0.00000  Uiso   1.00
N575   N     0.65011   0.15265   0.73783   0.00000  Uiso   1.00
N576   N     0.34989   0.18068   0.76217   0.00000  Uiso   1.00
O577   O     0.46308   0.24619   0.75299   0.00000  Uiso   1.00
O578   O     0.53761   0.26025   0.88474   0.00000  Uiso   1.00
O579   O     0.55445   0.30488   0.95871   0.00000  Uiso   1.00
O580   O     0.44556   0.02845   0.54129   0.00000  Uiso   1.00
O581   O     0.56715   0.00757   0.77842   0.00000  Uiso   1.00
O582   O     0.43285   0.32576   0.72158   0.00000  Uiso   1.00
O583   O     0.34351   0.11900   0.70934   0.00000  Uiso   1.00
O584   O     0.65649   0.21434   0.79066   0.00000  Uiso   1.00
O585   O     0.53692   0.08714   0.74702   0.00000  Uiso   1.00
O586   O     0.55946   0.23721   0.74519   0.00000  Uiso   1.00
O587   O     0.44054   0.09613   0.75481   0.00000  Uiso   1.00
O588   O     0.45181   0.17117   0.81997   0.00000  Uiso   1.00
O589   O     0.54819   0.16216   0.68003   0.00000  Uiso   1.00
O590   O     0.54819   0.16219   0.81218   0.00000  Uiso   1.00
O591   O     0.45181   0.17115   0.68783   0.00000  Uiso   1.00
O592   O     0.46239   0.07308   0.61526   0.00000  Uiso   1.00
Zn593  Zn    0.43565   0.17266   0.75521   0.00000  Uiso   1.00
Zn594  Zn    0.56435   0.16067   0.74479   0.00000  Uiso   1.00
C595   C     0.84821   0.26471   0.74973   0.00000  Uiso   1.00
C596   C     0.85333   0.21498   0.90695   0.00000  Uiso   1.00
C597   C     0.83136   0.16413   0.61621   0.00000  Uiso   1.00
C598   C     0.83530   0.16921   0.88379   0.00000  Uiso   1.00
C599   C     0.84944   0.20928   0.59426   0.00000  Uiso   1.00
C600   C     0.81723   0.12405   0.90574   0.00000  Uiso   1.00
C601   C     0.85011   0.21055   0.54805   0.00000  Uiso   1.00
C602   C     0.81656   0.12278   0.95195   0.00000  Uiso   1.00
C603   C     0.83265   0.16568   0.52346   0.00000  Uiso   1.00
C604   C     0.83403   0.16765   0.97654   0.00000  Uiso   1.00
C605   C     0.81397   0.11895   0.54582   0.00000  Uiso   1.00
C606   C     0.81846   0.06862   0.75027   0.00000  Uiso   1.00
C607   C     0.85271   0.21438   0.95418   0.00000  Uiso   1.00
C608   C     0.86827   0.25642   0.52652   0.00000  Uiso   1.00
C609   C     0.79841   0.07691   0.97348   0.00000  Uiso   1.00
C610   C     0.86980   0.25909   0.97969   0.00000  Uiso   1.00
C611   C     0.79687   0.07424   0.52031   0.00000  Uiso   1.00
C612   C     0.85474   0.31909   0.75597   0.00000  Uiso   1.00
C613   C     0.81192   0.01424   0.74403   0.00000  Uiso   1.00
C614   C     0.83393   0.16728   0.83627   0.00000  Uiso   1.00
C615   C     0.83274   0.16605   0.66373   0.00000  Uiso   1.00
C616   C     0.81334   0.11835   0.59305   0.00000  Uiso   1.00
H617   H     0.86299   0.24365   0.61354   0.00000  Uiso   1.00
H618   H     0.74209   0.02018   0.71256   0.00000  Uiso   1.00
H619   H     0.97900   0.10054   0.69364   0.00000  Uiso   1.00
H620   H     0.68766   0.23279   0.80636   0.00000  Uiso   1.00
H621   H     0.80368   0.08968   0.88646   0.00000  Uiso   1.00
H622   H     0.80019   0.07701   0.64792   0.00000  Uiso   1.00
H623   H     0.86644   0.25633   0.85208   0.00000  Uiso   1.00
H624   H     0.88132   0.29045   0.54633   0.00000  Uiso   1.00
H625   H     0.78536   0.04288   0.95367   0.00000  Uiso   1.00
H626   H     0.89775   0.33191   0.98165   0.00000  Uiso   1.00
H627   H     0.76893   0.00142   0.51835   0.00000  Uiso   1.00
H628   H     0.92458   0.31316   0.78744   0.00000  Uiso   1.00
N629   N     0.98344   0.15265   0.73783   0.00000  Uiso   1.00
N630   N     0.68322   0.18068   0.76217   0.00000  Uiso   1.00
O631   O     0.79642   0.24619   0.75299   0.00000  Uiso   1.00
O632   O     0.87095   0.26025   0.88474   0.00000  Uiso   1.00
O633   O     0.88778   0.30488   0.95871   0.00000  Uiso   1.00
O634   O     0.77890   0.02845   0.54129   0.00000  Uiso   1.00
O635   O     0.90049   0.00757   0.77842   0.00000  Uiso   1.00
O636   O     0.76618   0.32576   0.72158   0.00000  Uiso   1.00
O637   O     0.67685   0.11900   0.70934   0.00000  Uiso   1.00
O638   O     0.98982   0.21434   0.79066   0.00000  Uiso   1.00
O639   O     0.87025   0.08714   0.74702   0.00000  Uiso   1.00
O640   O     0.89280   0.23721   0.74519   0.00000  Uiso   1.00
O641   O     0.77387   0.09613   0.75481   0.00000  Uiso   1.00
O642   O     0.78514   0.17117   0.81997   0.00000  Uiso   1.00
O643   O     0.88153   0.16216   0.68003   0.00000  Uiso   1.00
O644   O     0.88152   0.16219   0.81218   0.00000  Uiso   1.00
O645   O     0.78515   0.17115   0.68783   0.00000  Uiso   1.00
O646   O     0.79572   0.07308   0.61526   0.00000  Uiso   1.00
Zn647  Zn    0.76898   0.17266   0.75521   0.00000  Uiso   1.00
Zn648  Zn    0.89769   0.16067   0.74479   0.00000  Uiso   1.00
C649   C     0.18154   0.59805   0.74973   0.00000  Uiso   1.00
C650   C     0.18666   0.54831   0.90695   0.00000  Uiso   1.00
C651   C     0.16470   0.49746   0.61621   0.00000  Uiso   1.00
C652   C     0.16864   0.50254   0.88379   0.00000  Uiso   1.00
C653   C     0.18278   0.54261   0.59426   0.00000  Uiso   1.00
C654   C     0.15056   0.45739   0.90574   0.00000  Uiso   1.00
C655   C     0.18345   0.54389   0.54805   0.00000  Uiso   1.00
C656   C     0.14989   0.45611   0.95195   0.00000  Uiso   1.00
C657   C     0.16598   0.49901   0.52346   0.00000  Uiso   1.00
C658   C     0.16736   0.50099   0.97654   0.00000  Uiso   1.00
C659   C     0.14730   0.45229   0.54582   0.00000  Uiso   1.00
C660   C     0.15179   0.40195   0.75027   0.00000  Uiso   1.00
C661   C     0.18604   0.54771   0.95418   0.00000  Uiso   1.00
C662   C     0.20160   0.58975   0.52652   0.00000  Uiso   1.00
C663   C     0.13174   0.41024   0.97348   0.00000  Uiso   1.00
C664   C     0.20313   0.59242   0.97969   0.00000  Uiso   1.00
C665   C     0.13021   0.40758   0.52031   0.00000  Uiso   1.00
C666   C     0.18808   0.65242   0.75597   0.00000  Uiso   1.00
C667   C     0.14526   0.34758   0.74403   0.00000  Uiso   1.00
C668   C     0.16726   0.50062   0.83627   0.00000  Uiso   1.00
C669   C     0.16607   0.49938   0.66373   0.00000  Uiso   1.00
C670   C     0.14667   0.45168   0.59305   0.00000  Uiso   1.00
H671   H     0.19633   0.57699   0.61354   0.00000  Uiso   1.00
H672   H     0.07542   0.35351   0.71256   0.00000  Uiso   1.00
H673   H     0.31234   0.43387   0.69364   0.00000  Uiso   1.00
H674   H     0.02100   0.56613   0.80636   0.00000  Uiso   1.00
H675   H     0.13701   0.42301   0.88646   0.00000  Uiso   1.00
H676   H     0.13353   0.41034   0.64792   0.00000  Uiso   1.00
H677   H     0.19978   0.58967   0.85208   0.00000  Uiso   1.00
H678   H     0.21465   0.62378   0.54633   0.00000  Uiso   1.00
H679   H     0.11869   0.37622   0.95367   0.00000  Uiso   1.00
H680   H     0.23108   0.66524   0.98165   0.00000  Uiso   1.00
H681   H     0.10226   0.33475   0.51835   0.00000  Uiso   1.00
H682   H     0.25791   0.64649   0.78744   0.00000  Uiso   1.00
N683   N     0.31678   0.48598   0.73783   0.00000  Uiso   1.00
N684   N     0.01656   0.51402   0.76217   0.00000  Uiso   1.00
O685   O     0.12975   0.57952   0.75299   0.00000  Uiso   1.00
O686   O     0.20428   0.59358   0.88474   0.00000  Uiso   1.00
O687   O     0.22111   0.63821   0.95871   0.00000  Uiso   1.00
O688   O     0.11223   0.36179   0.54129   0.00000  Uiso   1.00
O689   O     0.23382   0.34091   0.77842   0.00000  Uiso   1.00
O690   O     0.09951   0.65909   0.72158   0.00000  Uiso   1.00
O691   O     0.01018   0.45233   0.70934   0.00000  Uiso   1.00
O692   O     0.32315   0.54767   0.79066   0.00000  Uiso   1.00
O693   O     0.20358   0.42048   0.74702   0.00000  Uiso   1.00
O694   O     0.22613   0.57054   0.74519   0.00000  Uiso   1.00
O695   O     0.10720   0.42946   0.75481   0.00000  Uiso   1.00
O696   O     0.11847   0.50450   0.81997   0.00000  Uiso   1.00
O697   O     0.21486   0.49550   0.68003   0.00000  Uiso   1.00
O698   O     0.21485   0.49552   0.81218   0.00000  Uiso   1.00
O699   O     0.11848   0.50448   0.68783   0.00000  Uiso   1.00
O700   O     0.12905   0.40642   0.61526   0.00000  Uiso   1.00
Zn701  Zn    0.10231   0.50600   0.75521   0.00000  Uiso   1.00
Zn702  Zn    0.23102   0.49400   0.74479   0.00000  Uiso   1.00
C703   C     0.51488   0.59805   0.74973   0.00000  Uiso   1.00
C704   C     0.51999   0.54831   0.90695   0.00000  Uiso   1.00
C705   C     0.49803   0.49746   0.61621   0.00000  Uiso   1.00
C706   C     0.50197   0.50254   0.88379   0.00000  Uiso   1.00
C707   C     0.51611   0.54261   0.59426   0.00000  Uiso   1.00
C708   C     0.48389   0.45739   0.90574   0.00000  Uiso   1.00
C709   C     0.51678   0.54389   0.54805   0.00000  Uiso   1.00
C710   C     0.48323   0.45611   0.95195   0.00000  Uiso   1.00
C711   C     0.49931   0.49901   0.52346   0.00000  Uiso   1.00
C712   C     0.50069   0.50099   0.97654   0.00000  Uiso   1.00
C713   C     0.48063   0.45229   0.54582   0.00000  Uiso   1.00
C714   C     0.48512   0.40195   0.75027   0.00000  Uiso   1.00
C715   C     0.51937   0.54771   0.95418   0.00000  Uiso   1.00
C716   C     0.53493   0.58975   0.52652   0.00000  Uiso   1.00
C717   C     0.46507   0.41024   0.97348   0.00000  Uiso   1.00
C718   C     0.53647   0.59242   0.97969   0.00000  Uiso   1.00
C719   C     0.46354   0.40758   0.52031   0.00000  Uiso   1.00
C720   C     0.52141   0.65242   0.75597   0.00000  Uiso   1.00
C721   C     0.47859   0.34758   0.74403   0.00000  Uiso   1.00
C722   C     0.50059   0.50062   0.83627   0.00000  Uiso   1.00
C723   C     0.49940   0.49938   0.66373   0.00000  Uiso   1.00
C724   C     0.48001   0.45168   0.59305   0.00000  Uiso   1.00
H725   H     0.52966   0.57699   0.61354   0.00000  Uiso   1.00
H726   H     0.40875   0.35351   0.71256   0.00000  Uiso   1.00
H727   H     0.64567   0.43387   0.69364   0.00000  Uiso   1.00
H728   H     0.35433   0.56613   0.80636   0.00000  Uiso   1.00
H729   H     0.47034   0.42301   0.88646   0.00000  Uiso   1.00
H730   H     0.46686   0.41034   0.64792   0.00000  Uiso   1.00
H731   H     0.53311   0.58967   0.85208   0.00000  Uiso   1.00
H732   H     0.54798   0.62378   0.54633   0.00000  Uiso   1.00
H733   H     0.45202   0.37622   0.95367   0.00000  Uiso   1.00
H734   H     0.56442   0.66524   0.98165   0.00000  Uiso   1.00
H735   H     0.43559   0.33475   0.51835   0.00000  Uiso   1.00
H736   H     0.59125   0.64649   0.78744   0.00000  Uiso   1.00
N737   N     0.65011   0.48598   0.73783   0.00000  Uiso   1.00
N738   N     0.34989   0.51402   0.76217   0.00000  Uiso   1.00
O739   O     0.46308   0.57952   0.75299   0.00000  Uiso   1.00
O740   O     0.53761   0.59358   0.88474   0.00000  Uiso   1.00
O741   O     0.55445   0.63821   0.95871   0.00000  Uiso   1.00
O742   O     0.44556   0.36179   0.54129   0.00000  Uiso   1.00
O743   O     0.56715   0.34091   0.77842   0.00000  Uiso   1.00
O744   O     0.43285   0.65909   0.72158   0.00000  Uiso   1.00
O745   O     0.34351   0.45233   0.70934   0.00000  Uiso   1.00
O746   O     0.65649   0.54767   0.79066   0.00000  Uiso   1.00
O747   O     0.53692   0.42048   0.74702   0.00000  Uiso   1.00
O748   O     0.55946   0.57054   0.74519   0.00000  Uiso   1.00
O749   O     0.44054   0.42946   0.75481   0.00000  Uiso   1.00
O750   O     0.45181   0.50450   0.81997   0.00000  Uiso   1.00
O751   O     0.54819   0.49550   0.68003   0.00000  Uiso   1.00
O752   O     0.54819   0.49552   0.81218   0.00000  Uiso   1.00
O753   O     0.45181   0.50448   0.68783   0.00000  Uiso   1.00
O754   O     0.46239   0.40642   0.61526   0.00000  Uiso   1.00
Zn755  Zn    0.43565   0.50600   0.75521   0.00000  Uiso   1.00
Zn756  Zn    0.56435   0.49400   0.74479   0.00000  Uiso   1.00
C757   C     0.84821   0.59805   0.74973   0.00000  Uiso   1.00
C758   C     0.85333   0.54831   0.90695   0.00000  Uiso   1.00
C759   C     0.83136   0.49746   0.61621   0.00000  Uiso   1.00
C760   C     0.83530   0.50254   0.88379   0.00000  Uiso   1.00
C761   C     0.84944   0.54261   0.59426   0.00000  Uiso   1.00
C762   C     0.81723   0.45739   0.90574   0.00000  Uiso   1.00
C763   C     0.85011   0.54389   0.54805   0.00000  Uiso   1.00
C764   C     0.81656   0.45611   0.95195   0.00000  Uiso   1.00
C765   C     0.83265   0.49901   0.52346   0.00000  Uiso   1.00
C766   C     0.83403   0.50099   0.97654   0.00000  Uiso   1.00
C767   C     0.81397   0.45229   0.54582   0.00000  Uiso   1.00
C768   C     0.81846   0.40195   0.75027   0.00000  Uiso   1.00
C769   C     0.85271   0.54771   0.95418   0.00000  Uiso   1.00
C770   C     0.86827   0.58975   0.52652   0.00000  Uiso   1.00
C771   C     0.79841   0.41024   0.97348   0.00000  Uiso   1.00
C772   C     0.86980   0.59242   0.97969   0.00000  Uiso   1.00
C773   C     0.79687   0.40758   0.52031   0.00000  Uiso   1.00
C774   C     0.85474   0.65242   0.75597   0.00000  Uiso   1.00
C775   C     0.81192   0.34758   0.74403   0.00000  Uiso   1.00
C776   C     0.83393   0.50062   0.83627   0.00000  Uiso   1.00
C777   C     0.83274   0.49938   0.66373   0.00000  Uiso   1.00
C778   C     0.81334   0.45168   0.59305   0.00000  Uiso   1.00
H779   H     0.86299   0.57699   0.61354   0.00000  Uiso   1.00
H780   H     0.74209   0.35351   0.71256   0.00000  Uiso   1.00
H781   H     0.97900   0.43387   0.69364   0.00000  Uiso   1.00
H782   H     0.68766   0.56613   0.80636   0.00000  Uiso   1.00
H783   H     0.80368   0.42301   0.88646   0.00000  Uiso   1.00
H784   H     0.80019   0.41034   0.64792   0.00000  Uiso   1.00
H785   H     0.86644   0.58967   0.85208   0.00000  Uiso   1.00
H786   H     0.88132   0.62378   0.54633   0.00000  Uiso   1.00
H787   H     0.78536   0.37622   0.95367   0.00000  Uiso   1.00
H788   H     0.89775   0.66524   0.98165   0.00000  Uiso   1.00
H789   H     0.76893   0.33475   0.51835   0.00000  Uiso   1.00
H790   H     0.92458   0.64649   0.78744   0.00000  Uiso   1.00
N791   N     0.98344   0.48598   0.73783   0.00000  Uiso   1.00
N792   N     0.68322   0.51402   0.76217   0.00000  Uiso   1.00
O793   O     0.79642   0.57952   0.75299   0.00000  Uiso   1.00
O794   O     0.87095   0.59358   0.88474   0.00000  Uiso   1.00
O795   O     0.88778   0.63821   0.95871   0.00000  Uiso   1.00
O796   O     0.77890   0.36179   0.54129   0.00000  Uiso   1.00
O797   O     0.90049   0.34091   0.77842   0.00000  Uiso   1.00
O798   O     0.76618   0.65909   0.72158   0.00000  Uiso   1.00
O799   O     0.67685   0.45233   0.70934   0.00000  Uiso   1.00
O800   O     0.98982   0.54767   0.79066   0.00000  Uiso   1.00
O801   O     0.87025   0.42048   0.74702   0.00000  Uiso   1.00
O802   O     0.89280   0.57054   0.74519   0.00000  Uiso   1.00
O803   O     0.77387   0.42946   0.75481   0.00000  Uiso   1.00
O804   O     0.78514   0.50450   0.81997   0.00000  Uiso   1.00
O805   O     0.88153   0.49550   0.68003   0.00000  Uiso   1.00
O806   O     0.88152   0.49552   0.81218   0.00000  Uiso   1.00
O807   O     0.78515   0.50448   0.68783   0.00000  Uiso   1.00
O808   O     0.79572   0.40642   0.61526   0.00000  Uiso   1.00
Zn809  Zn    0.76898   0.50600   0.75521   0.00000  Uiso   1.00
Zn810  Zn    0.89769   0.49400   0.74479   0.00000  Uiso   1.00
C811   C     0.18154   0.93138   0.74973   0.00000  Uiso   1.00
C812   C     0.18666   0.88165   0.90695   0.00000  Uiso   1.00
C813   C     0.16470   0.83079   0.61621   0.00000  Uiso   1.00
C814   C     0.16864   0.83587   0.88379   0.00000  Uiso   1.00
C815   C     0.18278   0.87595   0.59426   0.00000  Uiso   1.00
C816   C     0.15056   0.79072   0.90574   0.00000  Uiso   1.00
C817   C     0.18345   0.87722   0.54805   0.00000  Uiso   1.00
C818   C     0.14989   0.78944   0.95195   0.00000  Uiso   1.00
C819   C     0.16598   0.83234   0.52346   0.00000  Uiso   1.00
C820   C     0.16736   0.83432   0.97654   0.00000  Uiso   1.00
C821   C     0.14730   0.78562   0.54582   0.00000  Uiso   1.00
C822   C     0.15179   0.73529   0.75027   0.00000  Uiso   1.00
C823   C     0.18604   0.88104   0.95418   0.00000  Uiso   1.00
C824   C     0.20160   0.92309   0.52652   0.00000  Uiso   1.00
C825   C     0.13174   0.74358   0.97348   0.00000  Uiso   1.00
C826   C     0.20313   0.92575   0.97969   0.00000  Uiso   1.00
C827   C     0.13021   0.74091   0.52031   0.00000  Uiso   1.00
C828   C     0.18808   0.98576   0.75597   0.00000  Uiso   1.00
C829   C     0.14526   0.68091   0.74403   0.00000  Uiso   1.00
C830   C     0.16726   0.83395   0.83627   0.00000  Uiso   1.00
C831   C     0.16607   0.83272   0.66373   0.00000  Uiso   1.00
C832   C     0.14667   0.78502   0.59305   0.00000  Uiso   1.00
H833   H     0.19633   0.91032   0.61354   0.00000  Uiso   1.00
H834   H     0.07542   0.68684   0.71256   0.00000  Uiso   1.00
H835   H     0.31234   0.76721   0.69364   0.00000  Uiso   1.00
H836   H     0.02100   0.89946   0.80636   0.00000  Uiso   1.00
H837   H     0.13701   0.75635   0.88646   0.00000  Uiso   1.00
H838   H     0.13353   0.74367   0.64792   0.00000  Uiso   1.00
H839   H     0.19978   0.92300   0.85208   0.00000  Uiso   1.00
H840   H     0.21465   0.95711   0.54633   0.00000  Uiso   1.00
H841   H     0.11869   0.70955   0.95367   0.00000  Uiso   1.00
H842   H     0.23108   0.99858   0.98165   0.00000  Uiso   1.00
H843   H     0.10226   0.66809   0.51835   0.00000  Uiso   1.00
H844   H     0.25791   0.97982   0.78744   0.00000  Uiso   1.00
N845   N     0.31678   0.81932   0.73783   0.00000  Uiso   1.00
N846   N     0.01656   0.84735   0.76217   0.00000  Uiso   1.00
O847   O     0.12975   0.91286   0.75299   0.00000  Uiso   1.00
O848   O     0.20428   0.92691   0.88474   0.00000  Uiso   1.00
O849   O     0.22111   0.97154   0.95871   0.00000  Uiso   1.00
O850   O     0.11223   0.69512   0.54129   0.00000  Uiso   1.00
O851   O     0.23382   0.67424   0.77842   0.00000  Uiso   1.00
O852   O     0.09951   0.99243   0.72158   0.00000  Uiso   1.00
O853   O     0.01018   0.78566   0.70934   0.00000  Uiso   1.00
O854   O     0.32315   0.88100   0.79066   0.00000  Uiso   1.00
O855   O     0.20358   0.75381   0.74702   0.00000  Uiso   1.00
O856   O     0.22613   0.90387   0.74519   0.00000  Uiso   1.00
O857   O     0.10720   0.76279   0.75481   0.00000  Uiso   1.00
O858   O     0.11847   0.83784   0.81997   0.00000  Uiso   1.00
O859   O     0.21486   0.82883   0.68003   0.00000  Uiso   1.00
O860   O     0.21485   0.82885   0.81218   0.00000  Uiso   1.00
O861   O     0.11848   0.83781   0.68783   0.00000  Uiso   1.00
O862   O     0.12905   0.73975   0.61526   0.00000  Uiso   1.00
Zn863  Zn    0.10231   0.83933   0.75521   0.00000  Uiso   1.00
Zn864  Zn    0.23102   0.82734   0.74479   0.00000  Uiso   1.00
C865   C     0.51488   0.93138   0.74973   0.00000  Uiso   1.00
C866   C     0.51999   0.88165   0.90695   0.00000  Uiso   1.00
C867   C     0.49803   0.83079   0.61621   0.00000  Uiso   1.00
C868   C     0.50197   0.83587   0.88379   0.00000  Uiso   1.00
C869   C     0.51611   0.87595   0.59426   0.00000  Uiso   1.00
C870   C     0.48389   0.79072   0.90574   0.00000  Uiso   1.00
C871   C     0.51678   0.87722   0.54805   0.00000  Uiso   1.00
C872   C     0.48323   0.78944   0.95195   0.00000  Uiso   1.00
C873   C     0.49931   0.83234   0.52346   0.00000  Uiso   1.00
C874   C     0.50069   0.83432   0.97654   0.00000  Uiso   1.00
C875   C     0.48063   0.78562   0.54582   0.00000  Uiso   1.00
C876   C     0.48512   0.73529   0.75027   0.00000  Uiso   1.00
C877   C     0.51937   0.88104   0.95418   0.00000  Uiso   1.00
C878   C     0.53493   0.92309   0.52652   0.00000  Uiso   1.00
C879   C     0.46507   0.74358   0.97348   0.00000  Uiso   1.00
C880   C     0.53647   0.92575   0.97969   0.00000  Uiso   1.00
C881   C     0.46354   0.74091   0.52031   0.00000  Uiso   1.00
C882   C     0.52141   0.98576   0.75597   0.00000  Uiso   1.00
C883   C     0.47859   0.68091   0.74403   0.00000  Uiso   1.00
C884   C     0.50059   0.83395   0.83627   0.00000  Uiso   1.00
C885   C     0.49940   0.83272   0.66373   0.00000  Uiso   1.00
C886   C     0.48001   0.78502   0.59305   0.00000  Uiso   1.00
H887   H     0.52966   0.91032   0.61354   0.00000  Uiso   1.00
H888   H     0.40875   0.68684   0.71256   0.00000  Uiso   1.00
H889   H     0.64567   0.76721   0.69364   0.00000  Uiso   1.00
H890   H     0.35433   0.89946   0.80636   0.00000  Uiso   1.00
H891   H     0.47034   0.75635   0.88646   0.00000  Uiso   1.00
H892   H     0.46686   0.74367   0.64792   0.00000  Uiso   1.00
H893   H     0.53311   0.92300   0.85208   0.00000  Uiso   1.00
H894   H     0.54798   0.95711   0.54633   0.00000  Uiso   1.00
H895   H     0.45202   0.70955   0.95367   0.00000  Uiso   1.00
H896   H     0.56442   0.99858   0.98165   0.00000  Uiso   1.00
H897   H     0.43559   0.66809   0.51835   0.00000  Uiso   1.00
H898   H     0.59125   0.97982   0.78744   0.00000  Uiso   1.00
N899   N     0.65011   0.81932   0.73783   0.00000  Uiso   1.00
N900   N     0.34989   0.84735   0.76217   0.00000  Uiso   1.00
O901   O     0.46308   0.91286   0.75299   0.00000  Uiso   1.00
O902   O     0.53761   0.92691   0.88474   0.00000  Uiso   1.00
O903   O     0.55445   0.97154   0.95871   0.00000  Uiso   1.00
O904   O     0.44556   0.69512   0.54129   0.00000  Uiso   1.00
O905   O     0.56715   0.67424   0.77842   0.00000  Uiso   1.00
O906   O     0.43285   0.99243   0.72158   0.00000  Uiso   1.00
O907   O     0.34351   0.78566   0.70934   0.00000  Uiso   1.00
O908   O     0.65649   0.88100   0.79066   0.00000  Uiso   1.00
O909   O     0.53692   0.75381   0.74702   0.00000  Uiso   1.00
O910   O     0.55946   0.90387   0.74519   0.00000  Uiso   1.00
O911   O     0.44054   0.76279   0.75481   0.00000  Uiso   1.00
O912   O     0.45181   0.83784   0.81997   0.00000  Uiso   1.00
O913   O     0.54819   0.82883   0.68003   0.00000  Uiso   1.00
O914   O     0.54819   0.82885   0.81218   0.00000  Uiso   1.00
O915   O     0.45181   0.83781   0.68783   0.00000  Uiso   1.00
O916   O     0.46239   0.73975   0.61526   0.00000  Uiso   1.00
Zn917  Zn    0.43565   0.83933   0.75521   0.00000  Uiso   1.00
Zn918  Zn    0.56435   0.82734   0.74479   0.00000  Uiso   1.00
C919   C     0.84821   0.93138   0.74973   0.00000  Uiso   1.00
C920   C     0.85333   0.88165   0.90695   0.00000  Uiso   1.00
C921   C     0.83136   0.83079   0.61621   0.00000  Uiso   1.00
C922   C     0.83530   0.83587   0.88379   0.00000  Uiso   1.00
C923   C     0.84944   0.87595   0.59426   0.00000  Uiso   1.00
C924   C     0.81723   0.79072   0.90574   0.00000  Uiso   1.00
C925   C     0.85011   0.87722   0.54805   0.00000  Uiso   1.00
C926   C     0.81656   0.78944   0.95195   0.00000  Uiso   1.00
C927   C     0.83265   0.83234   0.52346   0.00000  Uiso   1.00
C928   C     0.83403   0.83432   0.97654   0.00000  Uiso   1.00
C929   C     0.81397   0.78562   0.54582   0.00000  Uiso   1.00
C930   C     0.81846   0.73529   0.75027   0.00000  Uiso   1.00
C931   C     0.85271   0.88104   0.95418   0.00000  Uiso   1.00
C932   C     0.86827   0.92309   0.52652   0.00000  Uiso   1.00
C933   C     0.79841   0.74358   0.97348   0.00000  Uiso   1.00
C934   C     0.86980   0.92575   0.97969   0.00000  Uiso   1.00
C935   C     0.79687   0.74091   0.52031   0.00000  Uiso   1.00
C936   C     0.85474   0.98576   0.75597   0.00000  Uiso   1.00
C937   C     0.81192   0.68091   0.74403   0.00000  Uiso   1.00
C938   C     0.83393   0.83395   0.83627   0.00000  Uiso   1.00
C939   C     0.83274   0.83272   0.66373   0.00000  Uiso   1.00
C940   C     0.81334   0.78502   0.59305   0.00000  Uiso   1.00
H941   H     0.86299   0.91032   0.61354   0.00000  Uiso   1.00
H942   H     0.74209   0.68684   0.71256   0.00000  Uiso   1.00
H943   H     0.97900   0.76721   0.69364   0.00000  Uiso   1.00
H944   H     0.68766   0.89946   0.80636   0.00000  Uiso   1.00
H945   H     0.80368   0.75635   0.88646   0.00000  Uiso   1.00
H946   H     0.80019   0.74367   0.64792   0.00000  Uiso   1.00
H947   H     0.86644   0.92300   0.85208   0.00000  Uiso   1.00
H948   H     0.88132   0.95711   0.54633   0.00000  Uiso   1.00
H949   H     0.78536   0.70955   0.95367   0.00000  Uiso   1.00
H950   H     0.89775   0.99858   0.98165   0.00000  Uiso   1.00
H951   H     0.76893   0.66809   0.51835   0.00000  Uiso   1.00
H952   H     0.92458   0.97982   0.78744   0.00000  Uiso   1.00
N953   N     0.98344   0.81932   0.73783   0.00000  Uiso   1.00
N954   N     0.68322   0.84735   0.76217   0.00000  Uiso   1.00
O955   O     0.79642   0.91286   0.75299   0.00000  Uiso   1.00
O956   O     0.87095   0.92691   0.88474   0.00000  Uiso   1.00
O957   O     0.88778   0.97154   0.95871   0.00000  Uiso   1.00
O958   O     0.77890   0.69512   0.54129   0.00000  Uiso   1.00
O959   O     0.90049   0.67424   0.77842   0.00000  Uiso   1.00
O960   O     0.76618   0.99243   0.72158   0.00000  Uiso   1.00
O961   O     0.67685   0.78566   0.70934   0.00000  Uiso   1.00
O962   O     0.98982   0.88100   0.79066   0.00000  Uiso   1.00
O963   O     0.87025   0.75381   0.74702   0.00000  Uiso   1.00
O964   O     0.89280   0.90387   0.74519   0.00000  Uiso   1.00
O965   O     0.77387   0.76279   0.75481   0.00000  Uiso   1.00
O966   O     0.78514   0.83784   0.81997   0.00000  Uiso   1.00
O967   O     0.88153   0.82883   0.68003   0.00000  Uiso   1.00
O968   O     0.88152   0.82885   0.81218   0.00000  Uiso   1.00
O969   O     0.78515   0.83781   0.68783   0.00000  Uiso   1.00
O970   O     0.79572   0.73975   0.61526   0.00000  Uiso   1.00
Zn971  Zn    0.76898   0.83933   0.75521   0.00000  Uiso   1.00
Zn972  Zn    0.89769   0.82734   0.74479   0.00000  Uiso   1.00
loop_
_geom_bond_atom_site_label_1
_geom_bond_atom_site_label_2
_geom_bond_distance
_geom_bond_site_symmetry_2
_ccdc_geom_bond_type
C1     O37     1.277   .     A
C1     C18     1.410   .     S
C1     O46     1.289   .     A
C2     C4      1.409   .     A
C2     O38     1.387   .     S
C2     C13     1.406   .     A
C3     C21     1.417   .     S
C3     C22     1.409   .     A
C3     C5      1.383   .     A
C4     C20     1.417   .     S
C4     C6      1.383   .     A
C5     H23     1.087   .     S
C5     C7      1.376   .     A
C6     H27     1.087   .     S
C6     C8      1.376   .     A
C7     C9      1.409   .     A
C7     C14     1.393   .     A
C8     C15     1.393   .     A
C8     C10     1.409   .     A
C9     C11     1.426   .     A
C9     C496    1.397   1_554 S
C10    C13     1.426   .     A
C10    C495    1.397   .     S
C11    C22     1.406   .     A
C11    C17     1.417   .     A
C12    O47     1.289   .     A
C12    C19     1.410   .     S
C12    O45     1.277   .     A
C13    C16     1.417   .     A
C14    H30     1.085   .     S
C14    C502    1.396   1_554 S
C15    H31     1.085   .     S
C15    C503    1.396   .     S
C16    O39     1.383   .     S
C16    C500    1.396   .     S
C17    O40     1.383   .     S
C17    C501    1.396   1_554 S
C18    C181    1.351   .     S
C18    O203    1.391   .     S
C19    C342    1.351   1_545 S
C19    O366    1.391   1_545 S
C20    O48     1.286   .     A
C20    O50     1.287   .     A
C21    O49     1.286   .     A
C21    O51     1.287   .     A
C22    O52     1.387   .     S
H24    O366    0.991   1_545 S
H25    O97     0.990   .     S
H26    O152    0.990   1_455 S
H28    O52     0.988   .     S
H29    O38     0.988   .     S
H32    O39     0.992   .     S
H33    O40     0.992   .     S
H34    O203    0.991   .     S
N35    Zn54    2.023   .     S
N35    N90     1.282   .     S
N35    O97     1.338   .     S
N36    Zn53    2.023   .     S
N36    N143    1.282   1_455 S
N36    O152    1.338   1_455 S
O37    Zn53    1.970   .     S
O41    H358    0.991   1_545 S
O41    C342    1.391   1_545 S
O42    H186    0.991   .     S
O42    C181    1.391   .     S
O43    N143    1.338   1_455 S
O43    H133    0.990   1_455 S
O44    H80     0.990   .     S
O44    N90     1.338   .     S
O45    Zn54    1.970   .     S
O46    Zn54    1.983   .     S
O47    Zn53    1.983   .     S
O48    Zn53    1.997   .     S
O49    Zn54    1.997   .     S
O50    Zn54    2.011   .     S
O51    Zn53    2.011   .     S
C55    O91     1.277   .     A
C55    C72     1.410   .     S
C55    O100    1.289   .     A
C56    C58     1.409   .     A
C56    O92     1.387   .     S
C56    C67     1.406   .     A
C57    C75     1.417   .     S
C57    C76     1.409   .     A
C57    C59     1.383   .     A
C58    C74     1.417   .     S
C58    C60     1.383   .     A
C59    H77     1.087   .     S
C59    C61     1.376   .     A
C60    H81     1.087   .     S
C60    C62     1.376   .     A
C61    C63     1.409   .     A
C61    C68     1.393   .     A
C62    C69     1.393   .     A
C62    C64     1.409   .     A
C63    C65     1.426   .     A
C63    C550    1.397   1_554 S
C64    C67     1.426   .     A
C64    C549    1.397   .     S
C65    C76     1.406   .     A
C65    C71     1.417   .     A
C66    O101    1.289   .     A
C66    C73     1.410   .     S
C66    O99     1.277   .     A
C67    C70     1.417   .     A
C68    H84     1.085   .     S
C68    C556    1.396   1_554 S
C69    H85     1.085   .     S
C69    C557    1.396   .     S
C70    O93     1.383   .     S
C70    C554    1.396   .     S
C71    O94     1.383   .     S
C71    C555    1.396   1_554 S
C72    C235    1.351   .     S
C72    O257    1.391   .     S
C73    C396    1.351   1_545 S
C73    O420    1.391   1_545 S
C74    O102    1.286   .     A
C74    O104    1.287   .     A
C75    O103    1.286   .     A
C75    O105    1.287   .     A
C76    O106    1.387   .     S
H78    O420    0.991   1_545 S
H79    O151    0.990   .     S
H82    O106    0.988   .     S
H83    O92     0.988   .     S
H86    O93     0.992   .     S
H87    O94     0.992   .     S
H88    O257    0.991   .     S
N89    Zn108   2.023   .     S
N89    N144    1.282   .     S
N89    O151    1.338   .     S
N90    Zn107   2.023   .     S
O91    Zn107   1.970   .     S
O95    H412    0.991   1_545 S
O95    C396    1.391   1_545 S
O96    H240    0.991   .     S
O96    C235    1.391   .     S
O98    H134    0.990   .     S
O98    N144    1.338   .     S
O99    Zn108   1.970   .     S
O100   Zn108   1.983   .     S
O101   Zn107   1.983   .     S
O102   Zn107   1.997   .     S
O103   Zn108   1.997   .     S
O104   Zn108   2.011   .     S
O105   Zn107   2.011   .     S
C109   O145    1.277   .     A
C109   C126    1.410   .     S
C109   O154    1.289   .     A
C110   C112    1.409   .     A
C110   O146    1.387   .     S
C110   C121    1.406   .     A
C111   C129    1.417   .     S
C111   C130    1.409   .     A
C111   C113    1.383   .     A
C112   C128    1.417   .     S
C112   C114    1.383   .     A
C113   H131    1.087   .     S
C113   C115    1.376   .     A
C114   H135    1.087   .     S
C114   C116    1.376   .     A
C115   C117    1.409   .     A
C115   C122    1.393   .     A
C116   C123    1.393   .     A
C116   C118    1.409   .     A
C117   C119    1.426   .     A
C117   C604    1.397   1_554 S
C118   C121    1.426   .     A
C118   C603    1.397   .     S
C119   C130    1.406   .     A
C119   C125    1.417   .     A
C120   O155    1.289   .     A
C120   C127    1.410   .     S
C120   O153    1.277   .     A
C121   C124    1.417   .     A
C122   H138    1.085   .     S
C122   C610    1.396   1_554 S
C123   H139    1.085   .     S
C123   C611    1.396   .     S
C124   O147    1.383   .     S
C124   C608    1.396   .     S
C125   O148    1.383   .     S
C125   C609    1.396   1_554 S
C126   C289    1.351   .     S
C126   O311    1.391   .     S
C127   C450    1.351   1_545 S
C127   O474    1.391   1_545 S
C128   O156    1.286   .     A
C128   O158    1.287   .     A
C129   O157    1.286   .     A
C129   O159    1.287   .     A
C130   O160    1.387   .     S
H132   O474    0.991   1_545 S
H133   O43     0.990   1_655 S
H136   O160    0.988   .     S
H137   O146    0.988   .     S
H140   O147    0.992   .     S
H141   O148    0.992   .     S
H142   O311    0.991   .     S
N143   Zn162   2.023   .     S
N143   N36     1.282   1_655 S
N143   O43     1.338   1_655 S
N144   Zn161   2.023   .     S
O145   Zn161   1.970   .     S
O149   H466    0.991   1_545 S
O149   C450    1.391   1_545 S
O150   H294    0.991   .     S
O150   C289    1.391   .     S
O152   H26     0.990   1_655 S
O152   N36     1.338   1_655 S
O153   Zn162   1.970   .     S
O154   Zn162   1.983   .     S
O155   Zn161   1.983   .     S
O156   Zn161   1.997   .     S
O157   Zn162   1.997   .     S
O158   Zn162   2.011   .     S
O159   Zn161   2.011   .     S
C163   O199    1.277   .     A
C163   C180    1.410   .     S
C163   O208    1.289   .     A
C164   C166    1.409   .     A
C164   O200    1.387   .     S
C164   C175    1.406   .     A
C165   C183    1.417   .     S
C165   C184    1.409   .     A
C165   C167    1.383   .     A
C166   C182    1.417   .     S
C166   C168    1.383   .     A
C167   H185    1.087   .     S
C167   C169    1.376   .     A
C168   H189    1.087   .     S
C168   C170    1.376   .     A
C169   C171    1.409   .     A
C169   C176    1.393   .     A
C170   C177    1.393   .     A
C170   C172    1.409   .     A
C171   C173    1.426   .     A
C171   C658    1.397   1_554 S
C172   C175    1.426   .     A
C172   C657    1.397   .     S
C173   C184    1.406   .     A
C173   C179    1.417   .     A
C174   O209    1.289   .     A
C174   C181    1.410   .     S
C174   O207    1.277   .     A
C175   C178    1.417   .     A
C176   H192    1.085   .     S
C176   C664    1.396   1_554 S
C177   H193    1.085   .     S
C177   C665    1.396   .     S
C178   O201    1.383   .     S
C178   C662    1.396   .     S
C179   O202    1.383   .     S
C179   C663    1.396   1_554 S
C180   C343    1.351   .     S
C180   O365    1.391   .     S
C182   O210    1.286   .     A
C182   O212    1.287   .     A
C183   O211    1.286   .     A
C183   O213    1.287   .     A
C184   O214    1.387   .     S
H187   O259    0.990   .     S
H188   O314    0.990   1_455 S
H190   O214    0.988   .     S
H191   O200    0.988   .     S
H194   O201    0.992   .     S
H195   O202    0.992   .     S
H196   O365    0.991   .     S
N197   Zn216   2.023   .     S
N197   N252    1.282   .     S
N197   O259    1.338   .     S
N198   Zn215   2.023   .     S
N198   N305    1.282   1_455 S
N198   O314    1.338   1_455 S
O199   Zn215   1.970   .     S
O204   H348    0.991   .     S
O204   C343    1.391   .     S
O205   N305    1.338   1_455 S
O205   H295    0.990   1_455 S
O206   H242    0.990   .     S
O206   N252    1.338   .     S
O207   Zn216   1.970   .     S
O208   Zn216   1.983   .     S
O209   Zn215   1.983   .     S
O210   Zn215   1.997   .     S
O211   Zn216   1.997   .     S
O212   Zn216   2.011   .     S
O213   Zn215   2.011   .     S
C217   O253    1.277   .     A
C217   C234    1.410   .     S
C217   O262    1.289   .     A
C218   C220    1.409   .     A
C218   O254    1.387   .     S
C218   C229    1.406   .     A
C219   C237    1.417   .     S
C219   C238    1.409   .     A
C219   C221    1.383   .     A
C220   C236    1.417   .     S
C220   C222    1.383   .     A
C221   H239    1.087   .     S
C221   C223    1.376   .     A
C222   H243    1.087   .     S
C222   C224    1.376   .     A
C223   C225    1.409   .     A
C223   C230    1.393   .     A
C224   C231    1.393   .     A
C224   C226    1.409   .     A
C225   C227    1.426   .     A
C225   C712    1.397   1_554 S
C226   C229    1.426   .     A
C226   C711    1.397   .     S
C227   C238    1.406   .     A
C227   C233    1.417   .     A
C228   O263    1.289   .     A
C228   C235    1.410   .     S
C228   O261    1.277   .     A
C229   C232    1.417   .     A
C230   H246    1.085   .     S
C230   C718    1.396   1_554 S
C231   H247    1.085   .     S
C231   C719    1.396   .     S
C232   O255    1.383   .     S
C232   C716    1.396   .     S
C233   O256    1.383   .     S
C233   C717    1.396   1_554 S
C234   C397    1.351   .     S
C234   O419    1.391   .     S
C236   O264    1.286   .     A
C236   O266    1.287   .     A
C237   O265    1.286   .     A
C237   O267    1.287   .     A
C238   O268    1.387   .     S
H241   O313    0.990   .     S
H244   O268    0.988   .     S
H245   O254    0.988   .     S
H248   O255    0.992   .     S
H249   O256    0.992   .     S
H250   O419    0.991   .     S
N251   Zn270   2.023   .     S
N251   N306    1.282   .     S
N251   O313    1.338   .     S
N252   Zn269   2.023   .     S
O253   Zn269   1.970   .     S
O258   H402    0.991   .     S
O258   C397    1.391   .     S
O260   H296    0.990   .     S
O260   N306    1.338   .     S
O261   Zn270   1.970   .     S
O262   Zn270   1.983   .     S
O263   Zn269   1.983   .     S
O264   Zn269   1.997   .     S
O265   Zn270   1.997   .     S
O266   Zn270   2.011   .     S
O267   Zn269   2.011   .     S
C271   O307    1.277   .     A
C271   C288    1.410   .     S
C271   O316    1.289   .     A
C272   C274    1.409   .     A
C272   O308    1.387   .     S
C272   C283    1.406   .     A
C273   C291    1.417   .     S
C273   C292    1.409   .     A
C273   C275    1.383   .     A
C274   C290    1.417   .     S
C274   C276    1.383   .     A
C275   H293    1.087   .     S
C275   C277    1.376   .     A
C276   H297    1.087   .     S
C276   C278    1.376   .     A
C277   C279    1.409   .     A
C277   C284    1.393   .     A
C278   C285    1.393   .     A
C278   C280    1.409   .     A
C279   C281    1.426   .     A
C279   C766    1.397   1_554 S
C280   C283    1.426   .     A
C280   C765    1.397   .     S
C281   C292    1.406   .     A
C281   C287    1.417   .     A
C282   O317    1.289   .     A
C282   C289    1.410   .     S
C282   O315    1.277   .     A
C283   C286    1.417   .     A
C284   H300    1.085   .     S
C284   C772    1.396   1_554 S
C285   H301    1.085   .     S
C285   C773    1.396   .     S
C286   O309    1.383   .     S
C286   C770    1.396   .     S
C287   O310    1.383   .     S
C287   C771    1.396   1_554 S
C288   C451    1.351   .     S
C288   O473    1.391   .     S
C290   O318    1.286   .     A
C290   O320    1.287   .     A
C291   O319    1.286   .     A
C291   O321    1.287   .     A
C292   O322    1.387   .     S
H295   O205    0.990   1_655 S
H298   O322    0.988   .     S
H299   O308    0.988   .     S
H302   O309    0.992   .     S
H303   O310    0.992   .     S
H304   O473    0.991   .     S
N305   Zn324   2.023   .     S
N305   N198    1.282   1_655 S
N305   O205    1.338   1_655 S
N306   Zn323   2.023   .     S
O307   Zn323   1.970   .     S
O312   H456    0.991   .     S
O312   C451    1.391   .     S
O314   H188    0.990   1_655 S
O314   N198    1.338   1_655 S
O315   Zn324   1.970   .     S
O316   Zn324   1.983   .     S
O317   Zn323   1.983   .     S
O318   Zn323   1.997   .     S
O319   Zn324   1.997   .     S
O320   Zn324   2.011   .     S
O321   Zn323   2.011   .     S
C325   O361    1.277   .     A
C325   C342    1.410   .     S
C325   O370    1.289   .     A
C326   C328    1.409   .     A
C326   O362    1.387   .     S
C326   C337    1.406   .     A
C327   C345    1.417   .     S
C327   C346    1.409   .     A
C327   C329    1.383   .     A
C328   C344    1.417   .     S
C328   C330    1.383   .     A
C329   H347    1.087   .     S
C329   C331    1.376   .     A
C330   H351    1.087   .     S
C330   C332    1.376   .     A
C331   C333    1.409   .     A
C331   C338    1.393   .     A
C332   C339    1.393   .     A
C332   C334    1.409   .     A
C333   C335    1.426   .     A
C333   C820    1.397   1_554 S
C334   C337    1.426   .     A
C334   C819    1.397   .     S
C335   C346    1.406   .     A
C335   C341    1.417   .     A
C336   O371    1.289   .     A
C336   C343    1.410   .     S
C336   O369    1.277   .     A
C337   C340    1.417   .     A
C338   H354    1.085   .     S
C338   C826    1.396   1_554 S
C339   H355    1.085   .     S
C339   C827    1.396   .     S
C340   O363    1.383   .     S
C340   C824    1.396   .     S
C341   O364    1.383   .     S
C341   C825    1.396   1_554 S
C342   C19     1.351   1_565 S
C342   O41     1.391   1_565 S
C344   O372    1.286   .     A
C344   O374    1.287   .     A
C345   O373    1.286   .     A
C345   O375    1.287   .     A
C346   O376    1.387   .     S
H349   O421    0.990   .     S
H350   O476    0.990   1_455 S
H352   O376    0.988   .     S
H353   O362    0.988   .     S
H356   O363    0.992   .     S
H357   O364    0.992   .     S
H358   O41     0.991   1_565 S
N359   Zn378   2.023   .     S
N359   N414    1.282   .     S
N359   O421    1.338   .     S
N360   Zn377   2.023   .     S
N360   N467    1.282   1_455 S
N360   O476    1.338   1_455 S
O361   Zn377   1.970   .     S
O366   H24     0.991   1_565 S
O366   C19     1.391   1_565 S
O367   N467    1.338   1_455 S
O367   H457    0.990   1_455 S
O368   H404    0.990   .     S
O368   N414    1.338   .     S
O369   Zn378   1.970   .     S
O370   Zn378   1.983   .     S
O371   Zn377   1.983   .     S
O372   Zn377   1.997   .     S
O373   Zn378   1.997   .     S
O374   Zn378   2.011   .     S
O375   Zn377   2.011   .     S
C379   O415    1.277   .     A
C379   C396    1.410   .     S
C379   O424    1.289   .     A
C380   C382    1.409   .     A
C380   O416    1.387   .     S
C380   C391    1.406   .     A
C381   C399    1.417   .     S
C381   C400    1.409   .     A
C381   C383    1.383   .     A
C382   C398    1.417   .     S
C382   C384    1.383   .     A
C383   H401    1.087   .     S
C383   C385    1.376   .     A
C384   H405    1.087   .     S
C384   C386    1.376   .     A
C385   C387    1.409   .     A
C385   C392    1.393   .     A
C386   C393    1.393   .     A
C386   C388    1.409   .     A
C387   C389    1.426   .     A
C387   C874    1.397   1_554 S
C388   C391    1.426   .     A
C388   C873    1.397   .     S
C389   C400    1.406   .     A
C389   C395    1.417   .     A
C390   O425    1.289   .     A
C390   C397    1.410   .     S
C390   O423    1.277   .     A
C391   C394    1.417   .     A
C392   H408    1.085   .     S
C392   C880    1.396   1_554 S
C393   H409    1.085   .     S
C393   C881    1.396   .     S
C394   O417    1.383   .     S
C394   C878    1.396   .     S
C395   O418    1.383   .     S
C395   C879    1.396   1_554 S
C396   C73     1.351   1_565 S
C396   O95     1.391   1_565 S
C398   O426    1.286   .     A
C398   O428    1.287   .     A
C399   O427    1.286   .     A
C399   O429    1.287   .     A
C400   O430    1.387   .     S
H403   O475    0.990   .     S
H406   O430    0.988   .     S
H407   O416    0.988   .     S
H410   O417    0.992   .     S
H411   O418    0.992   .     S
H412   O95     0.991   1_565 S
N413   Zn432   2.023   .     S
N413   N468    1.282   .     S
N413   O475    1.338   .     S
N414   Zn431   2.023   .     S
O415   Zn431   1.970   .     S
O420   H78     0.991   1_565 S
O420   C73     1.391   1_565 S
O422   H458    0.990   .     S
O422   N468    1.338   .     S
O423   Zn432   1.970   .     S
O424   Zn432   1.983   .     S
O425   Zn431   1.983   .     S
O426   Zn431   1.997   .     S
O427   Zn432   1.997   .     S
O428   Zn432   2.011   .     S
O429   Zn431   2.011   .     S
C433   O469    1.277   .     A
C433   C450    1.410   .     S
C433   O478    1.289   .     A
C434   C436    1.409   .     A
C434   O470    1.387   .     S
C434   C445    1.406   .     A
C435   C453    1.417   .     S
C435   C454    1.409   .     A
C435   C437    1.383   .     A
C436   C452    1.417   .     S
C436   C438    1.383   .     A
C437   H455    1.087   .     S
C437   C439    1.376   .     A
C438   H459    1.087   .     S
C438   C440    1.376   .     A
C439   C441    1.409   .     A
C439   C446    1.393   .     A
C440   C447    1.393   .     A
C440   C442    1.409   .     A
C441   C443    1.426   .     A
C441   C928    1.397   1_554 S
C442   C445    1.426   .     A
C442   C927    1.397   .     S
C443   C454    1.406   .     A
C443   C449    1.417   .     A
C444   O479    1.289   .     A
C444   C451    1.410   .     S
C444   O477    1.277   .     A
C445   C448    1.417   .     A
C446   H462    1.085   .     S
C446   C934    1.396   1_554 S
C447   H463    1.085   .     S
C447   C935    1.396   .     S
C448   O471    1.383   .     S
C448   C932    1.396   .     S
C449   O472    1.383   .     S
C449   C933    1.396   1_554 S
C450   C127    1.351   1_565 S
C450   O149    1.391   1_565 S
C452   O480    1.286   .     A
C452   O482    1.287   .     A
C453   O481    1.286   .     A
C453   O483    1.287   .     A
C454   O484    1.387   .     S
H457   O367    0.990   1_655 S
H460   O484    0.988   .     S
H461   O470    0.988   .     S
H464   O471    0.992   .     S
H465   O472    0.992   .     S
H466   O149    0.991   1_565 S
N467   Zn486   2.023   .     S
N467   N360    1.282   1_655 S
N467   O367    1.338   1_655 S
N468   Zn485   2.023   .     S
O469   Zn485   1.970   .     S
O474   H132    0.991   1_565 S
O474   C127    1.391   1_565 S
O476   H350    0.990   1_655 S
O476   N360    1.338   1_655 S
O477   Zn486   1.970   .     S
O478   Zn486   1.983   .     S
O479   Zn485   1.983   .     S
O480   Zn485   1.997   .     S
O481   Zn486   1.997   .     S
O482   Zn486   2.011   .     S
O483   Zn485   2.011   .     S
C487   O523    1.277   .     A
C487   C504    1.410   .     S
C487   O532    1.289   .     A
C488   C490    1.409   .     A
C488   O524    1.387   .     S
C488   C499    1.406   .     A
C489   C507    1.417   .     S
C489   C508    1.409   .     A
C489   C491    1.383   .     A
C490   C506    1.417   .     S
C490   C492    1.383   .     A
C491   H509    1.087   .     S
C491   C493    1.376   .     A
C492   H513    1.087   .     S
C492   C494    1.376   .     A
C493   C495    1.409   .     A
C493   C500    1.393   .     A
C494   C501    1.393   .     A
C494   C496    1.409   .     A
C495   C497    1.426   .     A
C496   C499    1.426   .     A
C496   C9      1.397   1_556 S
C497   C508    1.406   .     A
C497   C503    1.417   .     A
C498   O533    1.289   .     A
C498   C505    1.410   .     S
C498   O531    1.277   .     A
C499   C502    1.417   .     A
C500   H516    1.085   .     S
C501   H517    1.085   .     S
C501   C17     1.396   1_556 S
C502   O525    1.383   .     S
C502   C14     1.396   1_556 S
C503   O526    1.383   .     S
C504   C667    1.351   .     S
C504   O689    1.391   .     S
C505   C828    1.351   1_545 S
C505   O852    1.391   1_545 S
C506   O534    1.286   .     A
C506   O536    1.287   .     A
C507   O535    1.286   .     A
C507   O537    1.287   .     A
C508   O538    1.387   .     S
H510   O852    0.991   1_545 S
H511   O583    0.990   .     S
H512   O638    0.990   1_455 S
H514   O538    0.988   .     S
H515   O524    0.988   .     S
H518   O525    0.992   .     S
H519   O526    0.992   .     S
H520   O689    0.991   .     S
N521   Zn540   2.023   .     S
N521   N576    1.282   .     S
N521   O583    1.338   .     S
N522   Zn539   2.023   .     S
N522   N629    1.282   1_455 S
N522   O638    1.338   1_455 S
O523   Zn539   1.970   .     S
O527   H844    0.991   1_545 S
O527   C828    1.391   1_545 S
O528   H672    0.991   .     S
O528   C667    1.391   .     S
O529   N629    1.338   1_455 S
O529   H619    0.990   1_455 S
O530   H566    0.990   .     S
O530   N576    1.338   .     S
O531   Zn540   1.970   .     S
O532   Zn540   1.983   .     S
O533   Zn539   1.983   .     S
O534   Zn539   1.997   .     S
O535   Zn540   1.997   .     S
O536   Zn540   2.011   .     S
O537   Zn539   2.011   .     S
C541   O577    1.277   .     A
C541   C558    1.410   .     S
C541   O586    1.289   .     A
C542   C544    1.409   .     A
C542   O578    1.387   .     S
C542   C553    1.406   .     A
C543   C561    1.417   .     S
C543   C562    1.409   .     A
C543   C545    1.383   .     A
C544   C560    1.417   .     S
C544   C546    1.383   .     A
C545   H563    1.087   .     S
C545   C547    1.376   .     A
C546   H567    1.087   .     S
C546   C548    1.376   .     A
C547   C549    1.409   .     A
C547   C554    1.393   .     A
C548   C555    1.393   .     A
C548   C550    1.409   .     A
C549   C551    1.426   .     A
C550   C553    1.426   .     A
C550   C63     1.397   1_556 S
C551   C562    1.406   .     A
C551   C557    1.417   .     A
C552   O587    1.289   .     A
C552   C559    1.410   .     S
C552   O585    1.277   .     A
C553   C556    1.417   .     A
C554   H570    1.085   .     S
C555   H571    1.085   .     S
C555   C71     1.396   1_556 S
C556   O579    1.383   .     S
C556   C68     1.396   1_556 S
C557   O580    1.383   .     S
C558   C721    1.351   .     S
C558   O743    1.391   .     S
C559   C882    1.351   1_545 S
C559   O906    1.391   1_545 S
C560   O588    1.286   .     A
C560   O590    1.287   .     A
C561   O589    1.286   .     A
C561   O591    1.287   .     A
C562   O592    1.387   .     S
H564   O906    0.991   1_545 S
H565   O637    0.990   .     S
H568   O592    0.988   .     S
H569   O578    0.988   .     S
H572   O579    0.992   .     S
H573   O580    0.992   .     S
H574   O743    0.991   .     S
N575   Zn594   2.023   .     S
N575   N630    1.282   .     S
N575   O637    1.338   .     S
N576   Zn593   2.023   .     S
O577   Zn593   1.970   .     S
O581   H898    0.991   1_545 S
O581   C882    1.391   1_545 S
O582   H726    0.991   .     S
O582   C721    1.391   .     S
O584   H620    0.990   .     S
O584   N630    1.338   .     S
O585   Zn594   1.970   .     S
O586   Zn594   1.983   .     S
O587   Zn593   1.983   .     S
O588   Zn593   1.997   .     S
O589   Zn594   1.997   .     S
O590   Zn594   2.011   .     S
O591   Zn593   2.011   .     S
C595   O631    1.277   .     A
C595   C612    1.410   .     S
C595   O640    1.289   .     A
C596   C598    1.409   .     A
C596   O632    1.387   .     S
C596   C607    1.406   .     A
C597   C615    1.417   .     S
C597   C616    1.409   .     A
C597   C599    1.383   .     A
C598   C614    1.417   .     S
C598   C600    1.383   .     A
C599   H617    1.087   .     S
C599   C601    1.376   .     A
C600   H621    1.087   .     S
C600   C602    1.376   .     A
C601   C603    1.409   .     A
C601   C608    1.393   .     A
C602   C609    1.393   .     A
C602   C604    1.409   .     A
C603   C605    1.426   .     A
C604   C607    1.426   .     A
C604   C117    1.397   1_556 S
C605   C616    1.406   .     A
C605   C611    1.417   .     A
C606   O641    1.289   .     A
C606   C613    1.410   .     S
C606   O639    1.277   .     A
C607   C610    1.417   .     A
C608   H624    1.085   .     S
C609   H625    1.085   .     S
C609   C125    1.396   1_556 S
C610   O633    1.383   .     S
C610   C122    1.396   1_556 S
C611   O634    1.383   .     S
C612   C775    1.351   .     S
C612   O797    1.391   .     S
C613   C936    1.351   1_545 S
C613   O960    1.391   1_545 S
C614   O642    1.286   .     A
C614   O644    1.287   .     A
C615   O643    1.286   .     A
C615   O645    1.287   .     A
C616   O646    1.387   .     S
H618   O960    0.991   1_545 S
H619   O529    0.990   1_655 S
H622   O646    0.988   .     S
H623   O632    0.988   .     S
H626   O633    0.992   .     S
H627   O634    0.992   .     S
H628   O797    0.991   .     S
N629   Zn648   2.023   .     S
N629   N522    1.282   1_655 S
N629   O529    1.338   1_655 S
N630   Zn647   2.023   .     S
O631   Zn647   1.970   .     S
O635   H952    0.991   1_545 S
O635   C936    1.391   1_545 S
O636   H780    0.991   .     S
O636   C775    1.391   .     S
O638   H512    0.990   1_655 S
O638   N522    1.338   1_655 S
O639   Zn648   1.970   .     S
O640   Zn648   1.983   .     S
O641   Zn647   1.983   .     S
O642   Zn647   1.997   .     S
O643   Zn648   1.997   .     S
O644   Zn648   2.011   .     S
O645   Zn647   2.011   .     S
C649   O685    1.277   .     A
C649   C666    1.410   .     S
C649   O694    1.289   .     A
C650   C652    1.409   .     A
C650   O686    1.387   .     S
C650   C661    1.406   .     A
C651   C669    1.417   .     S
C651   C670    1.409   .     A
C651   C653    1.383   .     A
C652   C668    1.417   .     S
C652   C654    1.383   .     A
C653   H671    1.087   .     S
C653   C655    1.376   .     A
C654   H675    1.087   .     S
C654   C656    1.376   .     A
C655   C657    1.409   .     A
C655   C662    1.393   .     A
C656   C663    1.393   .     A
C656   C658    1.409   .     A
C657   C659    1.426   .     A
C658   C661    1.426   .     A
C658   C171    1.397   1_556 S
C659   C670    1.406   .     A
C659   C665    1.417   .     A
C660   O695    1.289   .     A
C660   C667    1.410   .     S
C660   O693    1.277   .     A
C661   C664    1.417   .     A
C662   H678    1.085   .     S
C663   H679    1.085   .     S
C663   C179    1.396   1_556 S
C664   O687    1.383   .     S
C664   C176    1.396   1_556 S
C665   O688    1.383   .     S
C666   C829    1.351   .     S
C666   O851    1.391   .     S
C668   O696    1.286   .     A
C668   O698    1.287   .     A
C669   O697    1.286   .     A
C669   O699    1.287   .     A
C670   O700    1.387   .     S
H673   O745    0.990   .     S
H674   O800    0.990   1_455 S
H676   O700    0.988   .     S
H677   O686    0.988   .     S
H680   O687    0.992   .     S
H681   O688    0.992   .     S
H682   O851    0.991   .     S
N683   Zn702   2.023   .     S
N683   N738    1.282   .     S
N683   O745    1.338   .     S
N684   Zn701   2.023   .     S
N684   N791    1.282   1_455 S
N684   O800    1.338   1_455 S
O685   Zn701   1.970   .     S
O690   H834    0.991   .     S
O690   C829    1.391   .     S
O691   N791    1.338   1_455 S
O691   H781    0.990   1_455 S
O692   H728    0.990   .     S
O692   N738    1.338   .     S
O693   Zn702   1.970   .     S
O694   Zn702   1.983   .     S
O695   Zn701   1.983   .     S
O696   Zn701   1.997   .     S
O697   Zn702   1.997   .     S
O698   Zn702   2.011   .     S
O699   Zn701   2.011   .     S
C703   O739    1.277   .     A
C703   C720    1.410   .     S
C703   O748    1.289   .     A
C704   C706    1.409   .     A
C704   O740    1.387   .     S
C704   C715    1.406   .     A
C705   C723    1.417   .     S
C705   C724    1.409   .     A
C705   C707    1.383   .     A
C706   C722    1.417   .     S
C706   C708    1.383   .     A
C707   H725    1.087   .     S
C707   C709    1.376   .     A
C708   H729    1.087   .     S
C708   C710    1.376   .     A
C709   C711    1.409   .     A
C709   C716    1.393   .     A
C710   C717    1.393   .     A
C710   C712    1.409   .     A
C711   C713    1.426   .     A
C712   C715    1.426   .     A
C712   C225    1.397   1_556 S
C713   C724    1.406   .     A
C713   C719    1.417   .     A
C714   O749    1.289   .     A
C714   C721    1.410   .     S
C714   O747    1.277   .     A
C715   C718    1.417   .     A
C716   H732    1.085   .     S
C717   H733    1.085   .     S
C717   C233    1.396   1_556 S
C718   O741    1.383   .     S
C718   C230    1.396   1_556 S
C719   O742    1.383   .     S
C720   C883    1.351   .     S
C720   O905    1.391   .     S
C722   O750    1.286   .     A
C722   O752    1.287   .     A
C723   O751    1.286   .     A
C723   O753    1.287   .     A
C724   O754    1.387   .     S
H727   O799    0.990   .     S
H730   O754    0.988   .     S
H731   O740    0.988   .     S
H734   O741    0.992   .     S
H735   O742    0.992   .     S
H736   O905    0.991   .     S
N737   Zn756   2.023   .     S
N737   N792    1.282   .     S
N737   O799    1.338   .     S
N738   Zn755   2.023   .     S
O739   Zn755   1.970   .     S
O744   H888    0.991   .     S
O744   C883    1.391   .     S
O746   H782    0.990   .     S
O746   N792    1.338   .     S
O747   Zn756   1.970   .     S
O748   Zn756   1.983   .     S
O749   Zn755   1.983   .     S
O750   Zn755   1.997   .     S
O751   Zn756   1.997   .     S
O752   Zn756   2.011   .     S
O753   Zn755   2.011   .     S
C757   O793    1.277   .     A
C757   C774    1.410   .     S
C757   O802    1.289   .     A
C758   C760    1.409   .     A
C758   O794    1.387   .     S
C758   C769    1.406   .     A
C759   C777    1.417   .     S
C759   C778    1.409   .     A
C759   C761    1.383   .     A
C760   C776    1.417   .     S
C760   C762    1.383   .     A
C761   H779    1.087   .     S
C761   C763    1.376   .     A
C762   H783    1.087   .     S
C762   C764    1.376   .     A
C763   C765    1.409   .     A
C763   C770    1.393   .     A
C764   C771    1.393   .     A
C764   C766    1.409   .     A
C765   C767    1.426   .     A
C766   C769    1.426   .     A
C766   C279    1.397   1_556 S
C767   C778    1.406   .     A
C767   C773    1.417   .     A
C768   O803    1.289   .     A
C768   C775    1.410   .     S
C768   O801    1.277   .     A
C769   C772    1.417   .     A
C770   H786    1.085   .     S
C771   H787    1.085   .     S
C771   C287    1.396   1_556 S
C772   O795    1.383   .     S
C772   C284    1.396   1_556 S
C773   O796    1.383   .     S
C774   C937    1.351   .     S
C774   O959    1.391   .     S
C776   O804    1.286   .     A
C776   O806    1.287   .     A
C777   O805    1.286   .     A
C777   O807    1.287   .     A
C778   O808    1.387   .     S
H781   O691    0.990   1_655 S
H784   O808    0.988   .     S
H785   O794    0.988   .     S
H788   O795    0.992   .     S
H789   O796    0.992   .     S
H790   O959    0.991   .     S
N791   Zn810   2.023   .     S
N791   N684    1.282   1_655 S
N791   O691    1.338   1_655 S
N792   Zn809   2.023   .     S
O793   Zn809   1.970   .     S
O798   H942    0.991   .     S
O798   C937    1.391   .     S
O800   H674    0.990   1_655 S
O800   N684    1.338   1_655 S
O801   Zn810   1.970   .     S
O802   Zn810   1.983   .     S
O803   Zn809   1.983   .     S
O804   Zn809   1.997   .     S
O805   Zn810   1.997   .     S
O806   Zn810   2.011   .     S
O807   Zn809   2.011   .     S
C811   O847    1.277   .     A
C811   C828    1.410   .     S
C811   O856    1.289   .     A
C812   C814    1.409   .     A
C812   O848    1.387   .     S
C812   C823    1.406   .     A
C813   C831    1.417   .     S
C813   C832    1.409   .     A
C813   C815    1.383   .     A
C814   C830    1.417   .     S
C814   C816    1.383   .     A
C815   H833    1.087   .     S
C815   C817    1.376   .     A
C816   H837    1.087   .     S
C816   C818    1.376   .     A
C817   C819    1.409   .     A
C817   C824    1.393   .     A
C818   C825    1.393   .     A
C818   C820    1.409   .     A
C819   C821    1.426   .     A
C820   C823    1.426   .     A
C820   C333    1.397   1_556 S
C821   C832    1.406   .     A
C821   C827    1.417   .     A
C822   O857    1.289   .     A
C822   C829    1.410   .     S
C822   O855    1.277   .     A
C823   C826    1.417   .     A
C824   H840    1.085   .     S
C825   H841    1.085   .     S
C825   C341    1.396   1_556 S
C826   O849    1.383   .     S
C826   C338    1.396   1_556 S
C827   O850    1.383   .     S
C828   C505    1.351   1_565 S
C828   O527    1.391   1_565 S
C830   O858    1.286   .     A
C830   O860    1.287   .     A
C831   O859    1.286   .     A
C831   O861    1.287   .     A
C832   O862    1.387   .     S
H835   O907    0.990   .     S
H836   O962    0.990   1_455 S
H838   O862    0.988   .     S
H839   O848    0.988   .     S
H842   O849    0.992   .     S
H843   O850    0.992   .     S
H844   O527    0.991   1_565 S
N845   Zn864   2.023   .     S
N845   N900    1.282   .     S
N845   O907    1.338   .     S
N846   Zn863   2.023   .     S
N846   N953    1.282   1_455 S
N846   O962    1.338   1_455 S
O847   Zn863   1.970   .     S
O852   H510    0.991   1_565 S
O852   C505    1.391   1_565 S
O853   N953    1.338   1_455 S
O853   H943    0.990   1_455 S
O854   H890    0.990   .     S
O854   N900    1.338   .     S
O855   Zn864   1.970   .     S
O856   Zn864   1.983   .     S
O857   Zn863   1.983   .     S
O858   Zn863   1.997   .     S
O859   Zn864   1.997   .     S
O860   Zn864   2.011   .     S
O861   Zn863   2.011   .     S
C865   O901    1.277   .     A
C865   C882    1.410   .     S
C865   O910    1.289   .     A
C866   C868    1.409   .     A
C866   O902    1.387   .     S
C866   C877    1.406   .     A
C867   C885    1.417   .     S
C867   C886    1.409   .     A
C867   C869    1.383   .     A
C868   C884    1.417   .     S
C868   C870    1.383   .     A
C869   H887    1.087   .     S
C869   C871    1.376   .     A
C870   H891    1.087   .     S
C870   C872    1.376   .     A
C871   C873    1.409   .     A
C871   C878    1.393   .     A
C872   C879    1.393   .     A
C872   C874    1.409   .     A
C873   C875    1.426   .     A
C874   C877    1.426   .     A
C874   C387    1.397   1_556 S
C875   C886    1.406   .     A
C875   C881    1.417   .     A
C876   O911    1.289   .     A
C876   C883    1.410   .     S
C876   O909    1.277   .     A
C877   C880    1.417   .     A
C878   H894    1.085   .     S
C879   H895    1.085   .     S
C879   C395    1.396   1_556 S
C880   O903    1.383   .     S
C880   C392    1.396   1_556 S
C881   O904    1.383   .     S
C882   C559    1.351   1_565 S
C882   O581    1.391   1_565 S
C884   O912    1.286   .     A
C884   O914    1.287   .     A
C885   O913    1.286   .     A
C885   O915    1.287   .     A
C886   O916    1.387   .     S
H889   O961    0.990   .     S
H892   O916    0.988   .     S
H893   O902    0.988   .     S
H896   O903    0.992   .     S
H897   O904    0.992   .     S
H898   O581    0.991   1_565 S
N899   Zn918   2.023   .     S
N899   N954    1.282   .     S
N899   O961    1.338   .     S
N900   Zn917   2.023   .     S
O901   Zn917   1.970   .     S
O906   H564    0.991   1_565 S
O906   C559    1.391   1_565 S
O908   H944    0.990   .     S
O908   N954    1.338   .     S
O909   Zn918   1.970   .     S
O910   Zn918   1.983   .     S
O911   Zn917   1.983   .     S
O912   Zn917   1.997   .     S
O913   Zn918   1.997   .     S
O914   Zn918   2.011   .     S
O915   Zn917   2.011   .     S
C919   O955    1.277   .     A
C919   C936    1.410   .     S
C919   O964    1.289   .     A
C920   C922    1.409   .     A
C920   O956    1.387   .     S
C920   C931    1.406   .     A
C921   C939    1.417   .     S
C921   C940    1.409   .     A
C921   C923    1.383   .     A
C922   C938    1.417   .     S
C922   C924    1.383   .     A
C923   H941    1.087   .     S
C923   C925    1.376   .     A
C924   H945    1.087   .     S
C924   C926    1.376   .     A
C925   C927    1.409   .     A
C925   C932    1.393   .     A
C926   C933    1.393   .     A
C926   C928    1.409   .     A
C927   C929    1.426   .     A
C928   C931    1.426   .     A
C928   C441    1.397   1_556 S
C929   C940    1.406   .     A
C929   C935    1.417   .     A
C930   O965    1.289   .     A
C930   C937    1.410   .     S
C930   O963    1.277   .     A
C931   C934    1.417   .     A
C932   H948    1.085   .     S
C933   H949    1.085   .     S
C933   C449    1.396   1_556 S
C934   O957    1.383   .     S
C934   C446    1.396   1_556 S
C935   O958    1.383   .     S
C936   C613    1.351   1_565 S
C936   O635    1.391   1_565 S
C938   O966    1.286   .     A
C938   O968    1.287   .     A
C939   O967    1.286   .     A
C939   O969    1.287   .     A
C940   O970    1.387   .     S
H943   O853    0.990   1_655 S
H946   O970    0.988   .     S
H947   O956    0.988   .     S
H950   O957    0.992   .     S
H951   O958    0.992   .     S
H952   O635    0.991   1_565 S
N953   Zn972   2.023   .     S
N953   N846    1.282   1_655 S
N953   O853    1.338   1_655 S
N954   Zn971   2.023   .     S
O955   Zn971   1.970   .     S
O960   H618    0.991   1_565 S
O960   C613    1.391   1_565 S
O962   H836    0.990   1_655 S
O962   N846    1.338   1_655 S
O963   Zn972   1.970   .     S
O964   Zn972   1.983   .     S
O965   Zn971   1.983   .     S
O966   Zn971   1.997   .     S
O967   Zn972   1.997   .     S
O968   Zn972   2.011   .     S
O969   Zn971   2.011   .     S
