data_str_m3_o1_o17_pcu_sym.145
_audit_creation_date              2020-01-03
_audit_creation_method            'Materials Studio'
_symmetry_space_group_name_H-M    'P1'
_symmetry_Int_Tables_number       1
_symmetry_cell_setting            triclinic
loop_
_symmetry_equiv_pos_as_xyz
  x,y,z
_cell_length_a                    32.1403
_cell_length_b                    29.4985
_cell_length_c                    29.9547
_cell_angle_alpha                 89.9030
_cell_angle_beta                  90.0636
_cell_angle_gamma                 89.9745
loop_
_atom_site_label
_atom_site_type_symbol
_atom_site_fract_x
_atom_site_fract_y
_atom_site_fract_z
_atom_site_U_iso_or_equiv
_atom_site_adp_type
_atom_site_occupancy
C1     C     0.08662   0.16667   0.24995   0.00000  Uiso   1.00
C2     C     0.24671   0.16666   0.25003   0.00000  Uiso   1.00
C3     C     0.13536   0.09078   0.02311   0.00000  Uiso   1.00
C4     C     0.19847   0.24228   0.47684   0.00000  Uiso   1.00
C5     C     0.02132   0.12652   0.24024   0.00000  Uiso   1.00
C6     C     0.31202   0.20683   0.25965   0.00000  Uiso   1.00
C7     C     0.31203   0.12650   0.24031   0.00000  Uiso   1.00
C8     C     0.02131   0.20684   0.25958   0.00000  Uiso   1.00
C9     C     0.29086   0.16665   0.25001   0.00000  Uiso   1.00
C10    C     0.04248   0.16668   0.24990   0.00000  Uiso   1.00
C11    C     0.19059   0.02393   0.27970   0.00000  Uiso   1.00
C12    C     0.14271   0.30941   0.22033   0.00000  Uiso   1.00
C13    C     0.14271   0.02406   0.22032   0.00000  Uiso   1.00
C14    C     0.19060   0.30928   0.27970   0.00000  Uiso   1.00
C15    C     0.16668   0.16670   0.16332   0.00000  Uiso   1.00
C16    C     0.16668   0.16664   0.33666   0.00000  Uiso   1.00
C17    C     0.18289   0.20391   0.40715   0.00000  Uiso   1.00
C18    C     0.15171   0.12878   0.09275   0.00000  Uiso   1.00
C19    C     0.16665   0.16664   0.38448   0.00000  Uiso   1.00
C20    C     0.16661   0.16673   0.11545   0.00000  Uiso   1.00
C21    C     0.15032   0.12951   0.40731   0.00000  Uiso   1.00
C22    C     0.18148   0.20462   0.09258   0.00000  Uiso   1.00
C23    C     0.15030   0.12919   0.45348   0.00000  Uiso   1.00
C24    C     0.18168   0.20483   0.04642   0.00000  Uiso   1.00
C25    C     0.16609   0.16704   0.47672   0.00000  Uiso   1.00
C26    C     0.16604   0.16687   0.02318   0.00000  Uiso   1.00
C27    C     0.18255   0.20473   0.45345   0.00000  Uiso   1.00
C28    C     0.15096   0.12850   0.04646   0.00000  Uiso   1.00
C29    C     0.13520   0.09140   0.47656   0.00000  Uiso   1.00
C30    C     0.19793   0.24205   0.02333   0.00000  Uiso   1.00
H31    H     0.19585   0.23210   0.38852   0.00000  Uiso   1.00
H32    H     0.14006   0.09988   0.11132   0.00000  Uiso   1.00
H33    H     0.13740   0.10104   0.38909   0.00000  Uiso   1.00
H34    H     0.19349   0.23361   0.11074   0.00000  Uiso   1.00
H35    H     0.12388   0.06203   0.45856   0.00000  Uiso   1.00
H36    H     0.21082   0.27069   0.04128   0.00000  Uiso   1.00
H37    H     0.03758   0.09535   0.23237   0.00000  Uiso   1.00
H38    H     0.29576   0.23800   0.26751   0.00000  Uiso   1.00
H39    H     0.29578   0.09532   0.23250   0.00000  Uiso   1.00
H40    H     0.03755   0.23802   0.26739   0.00000  Uiso   1.00
H41    H     0.20972   0.04208   0.30343   0.00000  Uiso   1.00
H42    H     0.12356   0.29126   0.19662   0.00000  Uiso   1.00
H43    H     0.12356   0.04231   0.19661   0.00000  Uiso   1.00
H44    H     0.20974   0.29102   0.30341   0.00000  Uiso   1.00
N45    N     0.16667   0.28573   0.25000   0.00000  Uiso   1.00
N46    N     0.16667   0.04760   0.25000   0.00000  Uiso   1.00
O47    O     0.10559   0.20487   0.24999   0.00000  Uiso   1.00
O48    O     0.22774   0.12846   0.25001   0.00000  Uiso   1.00
O49    O     0.22774   0.20487   0.25001   0.00000  Uiso   1.00
O50    O     0.10559   0.12846   0.24999   0.00000  Uiso   1.00
O51    O     0.16666   0.20489   0.18393   0.00000  Uiso   1.00
O52    O     0.16667   0.12844   0.31608   0.00000  Uiso   1.00
O53    O     0.16667   0.20489   0.31607   0.00000  Uiso   1.00
O54    O     0.16666   0.12844   0.18393   0.00000  Uiso   1.00
Zn55   Zn    0.16667   0.21771   0.25000   0.00000  Uiso   1.00
Zn56   Zn    0.16667   0.11563   0.25000   0.00000  Uiso   1.00
O57    O     0.12363   0.05189   0.04566   0.00000  Uiso   1.00
C58    C     0.07980   0.04993   0.04724   0.00000  Uiso   1.00
H59    H     0.06659   0.04500   0.01321   0.00000  Uiso   1.00
H60    H     0.06655   0.08136   0.06223   0.00000  Uiso   1.00
C61    C     0.06687   0.00993   0.07617   0.00000  Uiso   1.00
H62    H     0.07926   0.01417   0.11055   0.00000  Uiso   1.00
H63    H     0.03240   0.00789   0.07769   0.00000  Uiso   1.00
H64    H     0.07917   0.31123   0.06186   0.00000  Uiso   1.00
O65    O     0.21821   0.27724   0.45458   0.00000  Uiso   1.00
C66    C     0.18932   0.31244   0.44700   0.00000  Uiso   1.00
H67    H     0.18106   0.32932   0.47901   0.00000  Uiso   1.00
H68    H     0.16043   0.29966   0.43064   0.00000  Uiso   1.00
C69    C     0.20901   0.01391   0.41605   0.00000  Uiso   1.00
H70    H     0.21922   0.33064   0.38466   0.00000  Uiso   1.00
H71    H     0.18607   0.04059   0.40761   0.00000  Uiso   1.00
H72    H     0.23630   0.02980   0.43253   0.00000  Uiso   1.00
C73    C     0.41995   0.16667   0.24995   0.00000  Uiso   1.00
C74    C     0.58005   0.16666   0.25003   0.00000  Uiso   1.00
C75    C     0.46870   0.09078   0.02311   0.00000  Uiso   1.00
C76    C     0.53181   0.24228   0.47684   0.00000  Uiso   1.00
C77    C     0.35465   0.12652   0.24024   0.00000  Uiso   1.00
C78    C     0.64535   0.20683   0.25965   0.00000  Uiso   1.00
C79    C     0.64536   0.12650   0.24031   0.00000  Uiso   1.00
C80    C     0.35464   0.20684   0.25958   0.00000  Uiso   1.00
C81    C     0.62419   0.16665   0.25001   0.00000  Uiso   1.00
C82    C     0.37581   0.16668   0.24990   0.00000  Uiso   1.00
C83    C     0.52393   0.02393   0.27970   0.00000  Uiso   1.00
C84    C     0.47604   0.30941   0.22033   0.00000  Uiso   1.00
C85    C     0.47604   0.02406   0.22032   0.00000  Uiso   1.00
C86    C     0.52393   0.30928   0.27970   0.00000  Uiso   1.00
C87    C     0.50002   0.16670   0.16332   0.00000  Uiso   1.00
C88    C     0.50001   0.16664   0.33666   0.00000  Uiso   1.00
C89    C     0.51623   0.20391   0.40715   0.00000  Uiso   1.00
C90    C     0.48504   0.12878   0.09275   0.00000  Uiso   1.00
C91    C     0.49998   0.16664   0.38448   0.00000  Uiso   1.00
C92    C     0.49994   0.16673   0.11545   0.00000  Uiso   1.00
C93    C     0.48365   0.12951   0.40731   0.00000  Uiso   1.00
C94    C     0.51482   0.20462   0.09258   0.00000  Uiso   1.00
C95    C     0.48363   0.12919   0.45348   0.00000  Uiso   1.00
C96    C     0.51502   0.20483   0.04642   0.00000  Uiso   1.00
C97    C     0.49943   0.16704   0.47672   0.00000  Uiso   1.00
C98    C     0.49938   0.16687   0.02318   0.00000  Uiso   1.00
C99    C     0.51588   0.20473   0.45345   0.00000  Uiso   1.00
C100   C     0.48429   0.12850   0.04646   0.00000  Uiso   1.00
C101   C     0.46853   0.09140   0.47656   0.00000  Uiso   1.00
C102   C     0.53126   0.24205   0.02333   0.00000  Uiso   1.00
H103   H     0.52918   0.23210   0.38852   0.00000  Uiso   1.00
H104   H     0.47339   0.09988   0.11132   0.00000  Uiso   1.00
H105   H     0.47074   0.10104   0.38909   0.00000  Uiso   1.00
H106   H     0.52683   0.23361   0.11074   0.00000  Uiso   1.00
H107   H     0.45721   0.06203   0.45856   0.00000  Uiso   1.00
H108   H     0.54416   0.27069   0.04128   0.00000  Uiso   1.00
H109   H     0.37091   0.09535   0.23237   0.00000  Uiso   1.00
H110   H     0.62909   0.23800   0.26751   0.00000  Uiso   1.00
H111   H     0.62912   0.09532   0.23250   0.00000  Uiso   1.00
H112   H     0.37088   0.23802   0.26739   0.00000  Uiso   1.00
H113   H     0.54306   0.04208   0.30343   0.00000  Uiso   1.00
H114   H     0.45689   0.29126   0.19662   0.00000  Uiso   1.00
H115   H     0.45689   0.04231   0.19661   0.00000  Uiso   1.00
H116   H     0.54307   0.29102   0.30341   0.00000  Uiso   1.00
N117   N     0.50000   0.28573   0.25000   0.00000  Uiso   1.00
N118   N     0.50000   0.04760   0.25000   0.00000  Uiso   1.00
O119   O     0.43892   0.20487   0.24999   0.00000  Uiso   1.00
O120   O     0.56108   0.12846   0.25001   0.00000  Uiso   1.00
O121   O     0.56108   0.20487   0.25001   0.00000  Uiso   1.00
O122   O     0.43892   0.12846   0.24999   0.00000  Uiso   1.00
O123   O     0.49999   0.20489   0.18393   0.00000  Uiso   1.00
O124   O     0.50001   0.12844   0.31608   0.00000  Uiso   1.00
O125   O     0.50001   0.20489   0.31607   0.00000  Uiso   1.00
O126   O     0.49999   0.12844   0.18393   0.00000  Uiso   1.00
Zn127  Zn    0.50000   0.21771   0.25000   0.00000  Uiso   1.00
Zn128  Zn    0.50000   0.11563   0.25000   0.00000  Uiso   1.00
O129   O     0.45697   0.05189   0.04566   0.00000  Uiso   1.00
C130   C     0.41314   0.04993   0.04724   0.00000  Uiso   1.00
H131   H     0.39993   0.04500   0.01321   0.00000  Uiso   1.00
H132   H     0.39989   0.08136   0.06223   0.00000  Uiso   1.00
C133   C     0.40020   0.00993   0.07617   0.00000  Uiso   1.00
H134   H     0.41259   0.01417   0.11055   0.00000  Uiso   1.00
H135   H     0.36573   0.00789   0.07769   0.00000  Uiso   1.00
H136   H     0.41250   0.31123   0.06186   0.00000  Uiso   1.00
O137   O     0.55154   0.27724   0.45458   0.00000  Uiso   1.00
C138   C     0.52266   0.31244   0.44700   0.00000  Uiso   1.00
H139   H     0.51439   0.32932   0.47901   0.00000  Uiso   1.00
H140   H     0.49376   0.29966   0.43064   0.00000  Uiso   1.00
C141   C     0.54234   0.01391   0.41605   0.00000  Uiso   1.00
H142   H     0.55256   0.33064   0.38466   0.00000  Uiso   1.00
H143   H     0.51940   0.04059   0.40761   0.00000  Uiso   1.00
H144   H     0.56964   0.02980   0.43253   0.00000  Uiso   1.00
C145   C     0.75329   0.16667   0.24995   0.00000  Uiso   1.00
C146   C     0.91338   0.16666   0.25003   0.00000  Uiso   1.00
C147   C     0.80203   0.09078   0.02311   0.00000  Uiso   1.00
C148   C     0.86514   0.24228   0.47684   0.00000  Uiso   1.00
C149   C     0.68799   0.12652   0.24024   0.00000  Uiso   1.00
C150   C     0.97868   0.20683   0.25965   0.00000  Uiso   1.00
C151   C     0.97870   0.12650   0.24031   0.00000  Uiso   1.00
C152   C     0.68797   0.20684   0.25958   0.00000  Uiso   1.00
C153   C     0.95752   0.16665   0.25001   0.00000  Uiso   1.00
C154   C     0.70914   0.16668   0.24990   0.00000  Uiso   1.00
C155   C     0.85726   0.02393   0.27970   0.00000  Uiso   1.00
C156   C     0.80938   0.30941   0.22033   0.00000  Uiso   1.00
C157   C     0.80938   0.02406   0.22032   0.00000  Uiso   1.00
C158   C     0.85727   0.30928   0.27970   0.00000  Uiso   1.00
C159   C     0.83335   0.16670   0.16332   0.00000  Uiso   1.00
C160   C     0.83335   0.16664   0.33666   0.00000  Uiso   1.00
C161   C     0.84956   0.20391   0.40715   0.00000  Uiso   1.00
C162   C     0.81838   0.12878   0.09275   0.00000  Uiso   1.00
C163   C     0.83331   0.16664   0.38448   0.00000  Uiso   1.00
C164   C     0.83327   0.16673   0.11545   0.00000  Uiso   1.00
C165   C     0.81698   0.12951   0.40731   0.00000  Uiso   1.00
C166   C     0.84815   0.20462   0.09258   0.00000  Uiso   1.00
C167   C     0.81696   0.12919   0.45348   0.00000  Uiso   1.00
C168   C     0.84835   0.20483   0.04642   0.00000  Uiso   1.00
C169   C     0.83276   0.16704   0.47672   0.00000  Uiso   1.00
C170   C     0.83271   0.16687   0.02318   0.00000  Uiso   1.00
C171   C     0.84921   0.20473   0.45345   0.00000  Uiso   1.00
C172   C     0.81763   0.12850   0.04646   0.00000  Uiso   1.00
C173   C     0.80187   0.09140   0.47656   0.00000  Uiso   1.00
C174   C     0.86459   0.24205   0.02333   0.00000  Uiso   1.00
H175   H     0.86251   0.23210   0.38852   0.00000  Uiso   1.00
H176   H     0.80672   0.09988   0.11132   0.00000  Uiso   1.00
H177   H     0.80407   0.10104   0.38909   0.00000  Uiso   1.00
H178   H     0.86016   0.23361   0.11074   0.00000  Uiso   1.00
H179   H     0.79055   0.06203   0.45856   0.00000  Uiso   1.00
H180   H     0.87749   0.27069   0.04128   0.00000  Uiso   1.00
H181   H     0.70424   0.09535   0.23237   0.00000  Uiso   1.00
H182   H     0.96243   0.23800   0.26751   0.00000  Uiso   1.00
H183   H     0.96245   0.09532   0.23250   0.00000  Uiso   1.00
H184   H     0.70422   0.23802   0.26739   0.00000  Uiso   1.00
H185   H     0.87639   0.04208   0.30343   0.00000  Uiso   1.00
H186   H     0.79022   0.29126   0.19662   0.00000  Uiso   1.00
H187   H     0.79023   0.04231   0.19661   0.00000  Uiso   1.00
H188   H     0.87641   0.29102   0.30341   0.00000  Uiso   1.00
N189   N     0.83333   0.28573   0.25000   0.00000  Uiso   1.00
N190   N     0.83333   0.04760   0.25000   0.00000  Uiso   1.00
O191   O     0.77226   0.20487   0.24999   0.00000  Uiso   1.00
O192   O     0.89441   0.12846   0.25001   0.00000  Uiso   1.00
O193   O     0.89441   0.20487   0.25001   0.00000  Uiso   1.00
O194   O     0.77226   0.12846   0.24999   0.00000  Uiso   1.00
O195   O     0.83333   0.20489   0.18393   0.00000  Uiso   1.00
O196   O     0.83334   0.12844   0.31608   0.00000  Uiso   1.00
O197   O     0.83334   0.20489   0.31607   0.00000  Uiso   1.00
O198   O     0.83333   0.12844   0.18393   0.00000  Uiso   1.00
Zn199  Zn    0.83333   0.21771   0.25000   0.00000  Uiso   1.00
Zn200  Zn    0.83333   0.11563   0.25000   0.00000  Uiso   1.00
O201   O     0.79030   0.05189   0.04566   0.00000  Uiso   1.00
C202   C     0.74647   0.04993   0.04724   0.00000  Uiso   1.00
H203   H     0.73326   0.04500   0.01321   0.00000  Uiso   1.00
H204   H     0.73322   0.08136   0.06223   0.00000  Uiso   1.00
C205   C     0.73354   0.00993   0.07617   0.00000  Uiso   1.00
H206   H     0.74592   0.01417   0.11055   0.00000  Uiso   1.00
H207   H     0.69907   0.00789   0.07769   0.00000  Uiso   1.00
H208   H     0.74584   0.31123   0.06186   0.00000  Uiso   1.00
O209   O     0.88487   0.27724   0.45458   0.00000  Uiso   1.00
C210   C     0.85599   0.31244   0.44700   0.00000  Uiso   1.00
H211   H     0.84773   0.32932   0.47901   0.00000  Uiso   1.00
H212   H     0.82710   0.29966   0.43064   0.00000  Uiso   1.00
C213   C     0.87567   0.01391   0.41605   0.00000  Uiso   1.00
H214   H     0.88589   0.33064   0.38466   0.00000  Uiso   1.00
H215   H     0.85273   0.04059   0.40761   0.00000  Uiso   1.00
H216   H     0.90297   0.02980   0.43253   0.00000  Uiso   1.00
C217   C     0.08662   0.50001   0.24995   0.00000  Uiso   1.00
C218   C     0.24671   0.49999   0.25003   0.00000  Uiso   1.00
C219   C     0.13536   0.42412   0.02311   0.00000  Uiso   1.00
C220   C     0.19847   0.57562   0.47684   0.00000  Uiso   1.00
C221   C     0.02132   0.45985   0.24024   0.00000  Uiso   1.00
C222   C     0.31202   0.54016   0.25965   0.00000  Uiso   1.00
C223   C     0.31203   0.45983   0.24031   0.00000  Uiso   1.00
C224   C     0.02131   0.54018   0.25958   0.00000  Uiso   1.00
C225   C     0.29086   0.49999   0.25001   0.00000  Uiso   1.00
C226   C     0.04248   0.50002   0.24990   0.00000  Uiso   1.00
C227   C     0.19059   0.35726   0.27970   0.00000  Uiso   1.00
C228   C     0.14271   0.64274   0.22033   0.00000  Uiso   1.00
C229   C     0.14271   0.35739   0.22032   0.00000  Uiso   1.00
C230   C     0.19060   0.64261   0.27970   0.00000  Uiso   1.00
C231   C     0.16668   0.50003   0.16332   0.00000  Uiso   1.00
C232   C     0.16668   0.49997   0.33666   0.00000  Uiso   1.00
C233   C     0.18289   0.53724   0.40715   0.00000  Uiso   1.00
C234   C     0.15171   0.46211   0.09275   0.00000  Uiso   1.00
C235   C     0.16665   0.49998   0.38448   0.00000  Uiso   1.00
C236   C     0.16661   0.50006   0.11545   0.00000  Uiso   1.00
C237   C     0.15032   0.46284   0.40731   0.00000  Uiso   1.00
C238   C     0.18148   0.53795   0.09258   0.00000  Uiso   1.00
C239   C     0.15030   0.46252   0.45348   0.00000  Uiso   1.00
C240   C     0.18168   0.53816   0.04642   0.00000  Uiso   1.00
C241   C     0.16609   0.50038   0.47672   0.00000  Uiso   1.00
C242   C     0.16604   0.50021   0.02318   0.00000  Uiso   1.00
C243   C     0.18255   0.53806   0.45345   0.00000  Uiso   1.00
C244   C     0.15096   0.46183   0.04646   0.00000  Uiso   1.00
C245   C     0.13520   0.42474   0.47656   0.00000  Uiso   1.00
C246   C     0.19793   0.57539   0.02333   0.00000  Uiso   1.00
H247   H     0.19585   0.56543   0.38852   0.00000  Uiso   1.00
H248   H     0.14006   0.43321   0.11132   0.00000  Uiso   1.00
H249   H     0.13740   0.43437   0.38909   0.00000  Uiso   1.00
H250   H     0.19349   0.56694   0.11074   0.00000  Uiso   1.00
H251   H     0.12388   0.39536   0.45856   0.00000  Uiso   1.00
H252   H     0.21082   0.60402   0.04128   0.00000  Uiso   1.00
H253   H     0.03758   0.42868   0.23237   0.00000  Uiso   1.00
H254   H     0.29576   0.57133   0.26751   0.00000  Uiso   1.00
H255   H     0.29578   0.42865   0.23250   0.00000  Uiso   1.00
H256   H     0.03755   0.57136   0.26739   0.00000  Uiso   1.00
H257   H     0.20972   0.37541   0.30343   0.00000  Uiso   1.00
H258   H     0.12356   0.62460   0.19662   0.00000  Uiso   1.00
H259   H     0.12356   0.37564   0.19661   0.00000  Uiso   1.00
H260   H     0.20974   0.62435   0.30341   0.00000  Uiso   1.00
N261   N     0.16667   0.61907   0.25000   0.00000  Uiso   1.00
N262   N     0.16667   0.38093   0.25000   0.00000  Uiso   1.00
O263   O     0.10559   0.53821   0.24999   0.00000  Uiso   1.00
O264   O     0.22774   0.46179   0.25001   0.00000  Uiso   1.00
O265   O     0.22774   0.53821   0.25001   0.00000  Uiso   1.00
O266   O     0.10559   0.46179   0.24999   0.00000  Uiso   1.00
O267   O     0.16666   0.53823   0.18393   0.00000  Uiso   1.00
O268   O     0.16667   0.46177   0.31608   0.00000  Uiso   1.00
O269   O     0.16667   0.53823   0.31607   0.00000  Uiso   1.00
O270   O     0.16666   0.46177   0.18393   0.00000  Uiso   1.00
Zn271  Zn    0.16667   0.55104   0.25000   0.00000  Uiso   1.00
Zn272  Zn    0.16667   0.44896   0.25000   0.00000  Uiso   1.00
O273   O     0.12363   0.38522   0.04566   0.00000  Uiso   1.00
C274   C     0.07980   0.38326   0.04724   0.00000  Uiso   1.00
H275   H     0.06659   0.37833   0.01321   0.00000  Uiso   1.00
H276   H     0.06655   0.41470   0.06223   0.00000  Uiso   1.00
C277   C     0.06687   0.34326   0.07617   0.00000  Uiso   1.00
H278   H     0.07926   0.34750   0.11055   0.00000  Uiso   1.00
H279   H     0.03240   0.34122   0.07769   0.00000  Uiso   1.00
H280   H     0.07917   0.64456   0.06186   0.00000  Uiso   1.00
O281   O     0.21821   0.61057   0.45458   0.00000  Uiso   1.00
C282   C     0.18932   0.64577   0.44700   0.00000  Uiso   1.00
H283   H     0.18106   0.66265   0.47901   0.00000  Uiso   1.00
H284   H     0.16043   0.63299   0.43064   0.00000  Uiso   1.00
C285   C     0.20901   0.34724   0.41605   0.00000  Uiso   1.00
H286   H     0.21922   0.66398   0.38466   0.00000  Uiso   1.00
H287   H     0.18607   0.37392   0.40761   0.00000  Uiso   1.00
H288   H     0.23630   0.36313   0.43253   0.00000  Uiso   1.00
C289   C     0.41995   0.50001   0.24995   0.00000  Uiso   1.00
C290   C     0.58005   0.49999   0.25003   0.00000  Uiso   1.00
C291   C     0.46870   0.42412   0.02311   0.00000  Uiso   1.00
C292   C     0.53181   0.57562   0.47684   0.00000  Uiso   1.00
C293   C     0.35465   0.45985   0.24024   0.00000  Uiso   1.00
C294   C     0.64535   0.54016   0.25965   0.00000  Uiso   1.00
C295   C     0.64536   0.45983   0.24031   0.00000  Uiso   1.00
C296   C     0.35464   0.54018   0.25958   0.00000  Uiso   1.00
C297   C     0.62419   0.49999   0.25001   0.00000  Uiso   1.00
C298   C     0.37581   0.50002   0.24990   0.00000  Uiso   1.00
C299   C     0.52393   0.35726   0.27970   0.00000  Uiso   1.00
C300   C     0.47604   0.64274   0.22033   0.00000  Uiso   1.00
C301   C     0.47604   0.35739   0.22032   0.00000  Uiso   1.00
C302   C     0.52393   0.64261   0.27970   0.00000  Uiso   1.00
C303   C     0.50002   0.50003   0.16332   0.00000  Uiso   1.00
C304   C     0.50001   0.49997   0.33666   0.00000  Uiso   1.00
C305   C     0.51623   0.53724   0.40715   0.00000  Uiso   1.00
C306   C     0.48504   0.46211   0.09275   0.00000  Uiso   1.00
C307   C     0.49998   0.49998   0.38448   0.00000  Uiso   1.00
C308   C     0.49994   0.50006   0.11545   0.00000  Uiso   1.00
C309   C     0.48365   0.46284   0.40731   0.00000  Uiso   1.00
C310   C     0.51482   0.53795   0.09258   0.00000  Uiso   1.00
C311   C     0.48363   0.46252   0.45348   0.00000  Uiso   1.00
C312   C     0.51502   0.53816   0.04642   0.00000  Uiso   1.00
C313   C     0.49943   0.50038   0.47672   0.00000  Uiso   1.00
C314   C     0.49938   0.50021   0.02318   0.00000  Uiso   1.00
C315   C     0.51588   0.53806   0.45345   0.00000  Uiso   1.00
C316   C     0.48429   0.46183   0.04646   0.00000  Uiso   1.00
C317   C     0.46853   0.42474   0.47656   0.00000  Uiso   1.00
C318   C     0.53126   0.57539   0.02333   0.00000  Uiso   1.00
H319   H     0.52918   0.56543   0.38852   0.00000  Uiso   1.00
H320   H     0.47339   0.43321   0.11132   0.00000  Uiso   1.00
H321   H     0.47074   0.43437   0.38909   0.00000  Uiso   1.00
H322   H     0.52683   0.56694   0.11074   0.00000  Uiso   1.00
H323   H     0.45721   0.39536   0.45856   0.00000  Uiso   1.00
H324   H     0.54416   0.60402   0.04128   0.00000  Uiso   1.00
H325   H     0.37091   0.42868   0.23237   0.00000  Uiso   1.00
H326   H     0.62909   0.57133   0.26751   0.00000  Uiso   1.00
H327   H     0.62912   0.42865   0.23250   0.00000  Uiso   1.00
H328   H     0.37088   0.57136   0.26739   0.00000  Uiso   1.00
H329   H     0.54306   0.37541   0.30343   0.00000  Uiso   1.00
H330   H     0.45689   0.62460   0.19662   0.00000  Uiso   1.00
H331   H     0.45689   0.37564   0.19661   0.00000  Uiso   1.00
H332   H     0.54307   0.62435   0.30341   0.00000  Uiso   1.00
N333   N     0.50000   0.61907   0.25000   0.00000  Uiso   1.00
N334   N     0.50000   0.38093   0.25000   0.00000  Uiso   1.00
O335   O     0.43892   0.53821   0.24999   0.00000  Uiso   1.00
O336   O     0.56108   0.46179   0.25001   0.00000  Uiso   1.00
O337   O     0.56108   0.53821   0.25001   0.00000  Uiso   1.00
O338   O     0.43892   0.46179   0.24999   0.00000  Uiso   1.00
O339   O     0.49999   0.53823   0.18393   0.00000  Uiso   1.00
O340   O     0.50001   0.46177   0.31608   0.00000  Uiso   1.00
O341   O     0.50001   0.53823   0.31607   0.00000  Uiso   1.00
O342   O     0.49999   0.46177   0.18393   0.00000  Uiso   1.00
Zn343  Zn    0.50000   0.55104   0.25000   0.00000  Uiso   1.00
Zn344  Zn    0.50000   0.44896   0.25000   0.00000  Uiso   1.00
O345   O     0.45697   0.38522   0.04566   0.00000  Uiso   1.00
C346   C     0.41314   0.38326   0.04724   0.00000  Uiso   1.00
H347   H     0.39993   0.37833   0.01321   0.00000  Uiso   1.00
H348   H     0.39989   0.41470   0.06223   0.00000  Uiso   1.00
C349   C     0.40020   0.34326   0.07617   0.00000  Uiso   1.00
H350   H     0.41259   0.34750   0.11055   0.00000  Uiso   1.00
H351   H     0.36573   0.34122   0.07769   0.00000  Uiso   1.00
H352   H     0.41250   0.64456   0.06186   0.00000  Uiso   1.00
O353   O     0.55154   0.61057   0.45458   0.00000  Uiso   1.00
C354   C     0.52266   0.64577   0.44700   0.00000  Uiso   1.00
H355   H     0.51439   0.66265   0.47901   0.00000  Uiso   1.00
H356   H     0.49376   0.63299   0.43064   0.00000  Uiso   1.00
C357   C     0.54234   0.34724   0.41605   0.00000  Uiso   1.00
H358   H     0.55256   0.66398   0.38466   0.00000  Uiso   1.00
H359   H     0.51940   0.37392   0.40761   0.00000  Uiso   1.00
H360   H     0.56964   0.36313   0.43253   0.00000  Uiso   1.00
C361   C     0.75329   0.50001   0.24995   0.00000  Uiso   1.00
C362   C     0.91338   0.49999   0.25003   0.00000  Uiso   1.00
C363   C     0.80203   0.42412   0.02311   0.00000  Uiso   1.00
C364   C     0.86514   0.57562   0.47684   0.00000  Uiso   1.00
C365   C     0.68799   0.45985   0.24024   0.00000  Uiso   1.00
C366   C     0.97868   0.54016   0.25965   0.00000  Uiso   1.00
C367   C     0.97870   0.45983   0.24031   0.00000  Uiso   1.00
C368   C     0.68797   0.54018   0.25958   0.00000  Uiso   1.00
C369   C     0.95752   0.49999   0.25001   0.00000  Uiso   1.00
C370   C     0.70914   0.50002   0.24990   0.00000  Uiso   1.00
C371   C     0.85726   0.35726   0.27970   0.00000  Uiso   1.00
C372   C     0.80938   0.64274   0.22033   0.00000  Uiso   1.00
C373   C     0.80938   0.35739   0.22032   0.00000  Uiso   1.00
C374   C     0.85727   0.64261   0.27970   0.00000  Uiso   1.00
C375   C     0.83335   0.50003   0.16332   0.00000  Uiso   1.00
C376   C     0.83335   0.49997   0.33666   0.00000  Uiso   1.00
C377   C     0.84956   0.53724   0.40715   0.00000  Uiso   1.00
C378   C     0.81838   0.46211   0.09275   0.00000  Uiso   1.00
C379   C     0.83331   0.49998   0.38448   0.00000  Uiso   1.00
C380   C     0.83327   0.50006   0.11545   0.00000  Uiso   1.00
C381   C     0.81698   0.46284   0.40731   0.00000  Uiso   1.00
C382   C     0.84815   0.53795   0.09258   0.00000  Uiso   1.00
C383   C     0.81696   0.46252   0.45348   0.00000  Uiso   1.00
C384   C     0.84835   0.53816   0.04642   0.00000  Uiso   1.00
C385   C     0.83276   0.50038   0.47672   0.00000  Uiso   1.00
C386   C     0.83271   0.50021   0.02318   0.00000  Uiso   1.00
C387   C     0.84921   0.53806   0.45345   0.00000  Uiso   1.00
C388   C     0.81763   0.46183   0.04646   0.00000  Uiso   1.00
C389   C     0.80187   0.42474   0.47656   0.00000  Uiso   1.00
C390   C     0.86459   0.57539   0.02333   0.00000  Uiso   1.00
H391   H     0.86251   0.56543   0.38852   0.00000  Uiso   1.00
H392   H     0.80672   0.43321   0.11132   0.00000  Uiso   1.00
H393   H     0.80407   0.43437   0.38909   0.00000  Uiso   1.00
H394   H     0.86016   0.56694   0.11074   0.00000  Uiso   1.00
H395   H     0.79055   0.39536   0.45856   0.00000  Uiso   1.00
H396   H     0.87749   0.60402   0.04128   0.00000  Uiso   1.00
H397   H     0.70424   0.42868   0.23237   0.00000  Uiso   1.00
H398   H     0.96243   0.57133   0.26751   0.00000  Uiso   1.00
H399   H     0.96245   0.42865   0.23250   0.00000  Uiso   1.00
H400   H     0.70422   0.57136   0.26739   0.00000  Uiso   1.00
H401   H     0.87639   0.37541   0.30343   0.00000  Uiso   1.00
H402   H     0.79022   0.62460   0.19662   0.00000  Uiso   1.00
H403   H     0.79023   0.37564   0.19661   0.00000  Uiso   1.00
H404   H     0.87641   0.62435   0.30341   0.00000  Uiso   1.00
N405   N     0.83333   0.61907   0.25000   0.00000  Uiso   1.00
N406   N     0.83333   0.38093   0.25000   0.00000  Uiso   1.00
O407   O     0.77226   0.53821   0.24999   0.00000  Uiso   1.00
O408   O     0.89441   0.46179   0.25001   0.00000  Uiso   1.00
O409   O     0.89441   0.53821   0.25001   0.00000  Uiso   1.00
O410   O     0.77226   0.46179   0.24999   0.00000  Uiso   1.00
O411   O     0.83333   0.53823   0.18393   0.00000  Uiso   1.00
O412   O     0.83334   0.46177   0.31608   0.00000  Uiso   1.00
O413   O     0.83334   0.53823   0.31607   0.00000  Uiso   1.00
O414   O     0.83333   0.46177   0.18393   0.00000  Uiso   1.00
Zn415  Zn    0.83333   0.55104   0.25000   0.00000  Uiso   1.00
Zn416  Zn    0.83333   0.44896   0.25000   0.00000  Uiso   1.00
O417   O     0.79030   0.38522   0.04566   0.00000  Uiso   1.00
C418   C     0.74647   0.38326   0.04724   0.00000  Uiso   1.00
H419   H     0.73326   0.37833   0.01321   0.00000  Uiso   1.00
H420   H     0.73322   0.41470   0.06223   0.00000  Uiso   1.00
C421   C     0.73354   0.34326   0.07617   0.00000  Uiso   1.00
H422   H     0.74592   0.34750   0.11055   0.00000  Uiso   1.00
H423   H     0.69907   0.34122   0.07769   0.00000  Uiso   1.00
H424   H     0.74584   0.64456   0.06186   0.00000  Uiso   1.00
O425   O     0.88487   0.61057   0.45458   0.00000  Uiso   1.00
C426   C     0.85599   0.64577   0.44700   0.00000  Uiso   1.00
H427   H     0.84773   0.66265   0.47901   0.00000  Uiso   1.00
H428   H     0.82710   0.63299   0.43064   0.00000  Uiso   1.00
C429   C     0.87567   0.34724   0.41605   0.00000  Uiso   1.00
H430   H     0.88589   0.66398   0.38466   0.00000  Uiso   1.00
H431   H     0.85273   0.37392   0.40761   0.00000  Uiso   1.00
H432   H     0.90297   0.36313   0.43253   0.00000  Uiso   1.00
C433   C     0.08662   0.83334   0.24995   0.00000  Uiso   1.00
C434   C     0.24671   0.83333   0.25003   0.00000  Uiso   1.00
C435   C     0.13536   0.75745   0.02311   0.00000  Uiso   1.00
C436   C     0.19847   0.90895   0.47684   0.00000  Uiso   1.00
C437   C     0.02132   0.79318   0.24024   0.00000  Uiso   1.00
C438   C     0.31202   0.87349   0.25965   0.00000  Uiso   1.00
C439   C     0.31203   0.79317   0.24031   0.00000  Uiso   1.00
C440   C     0.02131   0.87351   0.25958   0.00000  Uiso   1.00
C441   C     0.29086   0.83332   0.25001   0.00000  Uiso   1.00
C442   C     0.04248   0.83335   0.24990   0.00000  Uiso   1.00
C443   C     0.19059   0.69060   0.27970   0.00000  Uiso   1.00
C444   C     0.14271   0.97607   0.22033   0.00000  Uiso   1.00
C445   C     0.14271   0.69072   0.22032   0.00000  Uiso   1.00
C446   C     0.19060   0.97594   0.27970   0.00000  Uiso   1.00
C447   C     0.16668   0.83336   0.16332   0.00000  Uiso   1.00
C448   C     0.16668   0.83330   0.33666   0.00000  Uiso   1.00
C449   C     0.18289   0.87058   0.40715   0.00000  Uiso   1.00
C450   C     0.15171   0.79545   0.09275   0.00000  Uiso   1.00
C451   C     0.16665   0.83331   0.38448   0.00000  Uiso   1.00
C452   C     0.16661   0.83340   0.11545   0.00000  Uiso   1.00
C453   C     0.15032   0.79617   0.40731   0.00000  Uiso   1.00
C454   C     0.18148   0.87128   0.09258   0.00000  Uiso   1.00
C455   C     0.15030   0.79585   0.45348   0.00000  Uiso   1.00
C456   C     0.18168   0.87149   0.04642   0.00000  Uiso   1.00
C457   C     0.16609   0.83371   0.47672   0.00000  Uiso   1.00
C458   C     0.16604   0.83354   0.02318   0.00000  Uiso   1.00
C459   C     0.18255   0.87140   0.45345   0.00000  Uiso   1.00
C460   C     0.15096   0.79517   0.04646   0.00000  Uiso   1.00
C461   C     0.13520   0.75807   0.47656   0.00000  Uiso   1.00
C462   C     0.19793   0.90872   0.02333   0.00000  Uiso   1.00
H463   H     0.19585   0.89877   0.38852   0.00000  Uiso   1.00
H464   H     0.14006   0.76654   0.11132   0.00000  Uiso   1.00
H465   H     0.13740   0.76770   0.38909   0.00000  Uiso   1.00
H466   H     0.19349   0.90028   0.11074   0.00000  Uiso   1.00
H467   H     0.12388   0.72870   0.45856   0.00000  Uiso   1.00
H468   H     0.21082   0.93735   0.04128   0.00000  Uiso   1.00
H469   H     0.03758   0.76202   0.23237   0.00000  Uiso   1.00
H470   H     0.29576   0.90466   0.26751   0.00000  Uiso   1.00
H471   H     0.29578   0.76199   0.23250   0.00000  Uiso   1.00
H472   H     0.03755   0.90469   0.26739   0.00000  Uiso   1.00
H473   H     0.20972   0.70875   0.30343   0.00000  Uiso   1.00
H474   H     0.12356   0.95793   0.19662   0.00000  Uiso   1.00
H475   H     0.12356   0.70897   0.19661   0.00000  Uiso   1.00
H476   H     0.20974   0.95769   0.30341   0.00000  Uiso   1.00
N477   N     0.16667   0.95240   0.25000   0.00000  Uiso   1.00
N478   N     0.16667   0.71427   0.25000   0.00000  Uiso   1.00
O479   O     0.10559   0.87154   0.24999   0.00000  Uiso   1.00
O480   O     0.22774   0.79513   0.25001   0.00000  Uiso   1.00
O481   O     0.22774   0.87154   0.25001   0.00000  Uiso   1.00
O482   O     0.10559   0.79513   0.24999   0.00000  Uiso   1.00
O483   O     0.16666   0.87156   0.18393   0.00000  Uiso   1.00
O484   O     0.16667   0.79511   0.31608   0.00000  Uiso   1.00
O485   O     0.16667   0.87156   0.31607   0.00000  Uiso   1.00
O486   O     0.16666   0.79511   0.18393   0.00000  Uiso   1.00
Zn487  Zn    0.16667   0.88437   0.25000   0.00000  Uiso   1.00
Zn488  Zn    0.16667   0.78229   0.25000   0.00000  Uiso   1.00
O489   O     0.12363   0.71855   0.04566   0.00000  Uiso   1.00
C490   C     0.07980   0.71659   0.04724   0.00000  Uiso   1.00
H491   H     0.06659   0.71166   0.01321   0.00000  Uiso   1.00
H492   H     0.06655   0.74803   0.06223   0.00000  Uiso   1.00
C493   C     0.06687   0.67659   0.07617   0.00000  Uiso   1.00
H494   H     0.07926   0.68083   0.11055   0.00000  Uiso   1.00
H495   H     0.03240   0.67456   0.07769   0.00000  Uiso   1.00
H496   H     0.07917   0.97790   0.06186   0.00000  Uiso   1.00
O497   O     0.21821   0.94391   0.45458   0.00000  Uiso   1.00
C498   C     0.18932   0.97910   0.44700   0.00000  Uiso   1.00
H499   H     0.18106   0.99599   0.47901   0.00000  Uiso   1.00
H500   H     0.16043   0.96632   0.43064   0.00000  Uiso   1.00
C501   C     0.20901   0.68057   0.41605   0.00000  Uiso   1.00
H502   H     0.21922   0.99731   0.38466   0.00000  Uiso   1.00
H503   H     0.18607   0.70725   0.40761   0.00000  Uiso   1.00
H504   H     0.23630   0.69646   0.43253   0.00000  Uiso   1.00
C505   C     0.41995   0.83334   0.24995   0.00000  Uiso   1.00
C506   C     0.58005   0.83333   0.25003   0.00000  Uiso   1.00
C507   C     0.46870   0.75745   0.02311   0.00000  Uiso   1.00
C508   C     0.53181   0.90895   0.47684   0.00000  Uiso   1.00
C509   C     0.35465   0.79318   0.24024   0.00000  Uiso   1.00
C510   C     0.64535   0.87349   0.25965   0.00000  Uiso   1.00
C511   C     0.64536   0.79317   0.24031   0.00000  Uiso   1.00
C512   C     0.35464   0.87351   0.25958   0.00000  Uiso   1.00
C513   C     0.62419   0.83332   0.25001   0.00000  Uiso   1.00
C514   C     0.37581   0.83335   0.24990   0.00000  Uiso   1.00
C515   C     0.52393   0.69060   0.27970   0.00000  Uiso   1.00
C516   C     0.47604   0.97607   0.22033   0.00000  Uiso   1.00
C517   C     0.47604   0.69072   0.22032   0.00000  Uiso   1.00
C518   C     0.52393   0.97594   0.27970   0.00000  Uiso   1.00
C519   C     0.50002   0.83336   0.16332   0.00000  Uiso   1.00
C520   C     0.50001   0.83330   0.33666   0.00000  Uiso   1.00
C521   C     0.51623   0.87058   0.40715   0.00000  Uiso   1.00
C522   C     0.48504   0.79545   0.09275   0.00000  Uiso   1.00
C523   C     0.49998   0.83331   0.38448   0.00000  Uiso   1.00
C524   C     0.49994   0.83340   0.11545   0.00000  Uiso   1.00
C525   C     0.48365   0.79617   0.40731   0.00000  Uiso   1.00
C526   C     0.51482   0.87128   0.09258   0.00000  Uiso   1.00
C527   C     0.48363   0.79585   0.45348   0.00000  Uiso   1.00
C528   C     0.51502   0.87149   0.04642   0.00000  Uiso   1.00
C529   C     0.49943   0.83371   0.47672   0.00000  Uiso   1.00
C530   C     0.49938   0.83354   0.02318   0.00000  Uiso   1.00
C531   C     0.51588   0.87140   0.45345   0.00000  Uiso   1.00
C532   C     0.48429   0.79517   0.04646   0.00000  Uiso   1.00
C533   C     0.46853   0.75807   0.47656   0.00000  Uiso   1.00
C534   C     0.53126   0.90872   0.02333   0.00000  Uiso   1.00
H535   H     0.52918   0.89877   0.38852   0.00000  Uiso   1.00
H536   H     0.47339   0.76654   0.11132   0.00000  Uiso   1.00
H537   H     0.47074   0.76770   0.38909   0.00000  Uiso   1.00
H538   H     0.52683   0.90028   0.11074   0.00000  Uiso   1.00
H539   H     0.45721   0.72870   0.45856   0.00000  Uiso   1.00
H540   H     0.54416   0.93735   0.04128   0.00000  Uiso   1.00
H541   H     0.37091   0.76202   0.23237   0.00000  Uiso   1.00
H542   H     0.62909   0.90466   0.26751   0.00000  Uiso   1.00
H543   H     0.62912   0.76199   0.23250   0.00000  Uiso   1.00
H544   H     0.37088   0.90469   0.26739   0.00000  Uiso   1.00
H545   H     0.54306   0.70875   0.30343   0.00000  Uiso   1.00
H546   H     0.45689   0.95793   0.19662   0.00000  Uiso   1.00
H547   H     0.45689   0.70897   0.19661   0.00000  Uiso   1.00
H548   H     0.54307   0.95769   0.30341   0.00000  Uiso   1.00
N549   N     0.50000   0.95240   0.25000   0.00000  Uiso   1.00
N550   N     0.50000   0.71427   0.25000   0.00000  Uiso   1.00
O551   O     0.43892   0.87154   0.24999   0.00000  Uiso   1.00
O552   O     0.56108   0.79513   0.25001   0.00000  Uiso   1.00
O553   O     0.56108   0.87154   0.25001   0.00000  Uiso   1.00
O554   O     0.43892   0.79513   0.24999   0.00000  Uiso   1.00
O555   O     0.49999   0.87156   0.18393   0.00000  Uiso   1.00
O556   O     0.50001   0.79511   0.31608   0.00000  Uiso   1.00
O557   O     0.50001   0.87156   0.31607   0.00000  Uiso   1.00
O558   O     0.49999   0.79511   0.18393   0.00000  Uiso   1.00
Zn559  Zn    0.50000   0.88437   0.25000   0.00000  Uiso   1.00
Zn560  Zn    0.50000   0.78229   0.25000   0.00000  Uiso   1.00
O561   O     0.45697   0.71855   0.04566   0.00000  Uiso   1.00
C562   C     0.41314   0.71659   0.04724   0.00000  Uiso   1.00
H563   H     0.39993   0.71166   0.01321   0.00000  Uiso   1.00
H564   H     0.39989   0.74803   0.06223   0.00000  Uiso   1.00
C565   C     0.40020   0.67659   0.07617   0.00000  Uiso   1.00
H566   H     0.41259   0.68083   0.11055   0.00000  Uiso   1.00
H567   H     0.36573   0.67456   0.07769   0.00000  Uiso   1.00
H568   H     0.41250   0.97790   0.06186   0.00000  Uiso   1.00
O569   O     0.55154   0.94391   0.45458   0.00000  Uiso   1.00
C570   C     0.52266   0.97910   0.44700   0.00000  Uiso   1.00
H571   H     0.51439   0.99599   0.47901   0.00000  Uiso   1.00
H572   H     0.49376   0.96632   0.43064   0.00000  Uiso   1.00
C573   C     0.54234   0.68057   0.41605   0.00000  Uiso   1.00
H574   H     0.55256   0.99731   0.38466   0.00000  Uiso   1.00
H575   H     0.51940   0.70725   0.40761   0.00000  Uiso   1.00
H576   H     0.56964   0.69646   0.43253   0.00000  Uiso   1.00
C577   C     0.75329   0.83334   0.24995   0.00000  Uiso   1.00
C578   C     0.91338   0.83333   0.25003   0.00000  Uiso   1.00
C579   C     0.80203   0.75745   0.02311   0.00000  Uiso   1.00
C580   C     0.86514   0.90895   0.47684   0.00000  Uiso   1.00
C581   C     0.68799   0.79318   0.24024   0.00000  Uiso   1.00
C582   C     0.97868   0.87349   0.25965   0.00000  Uiso   1.00
C583   C     0.97870   0.79317   0.24031   0.00000  Uiso   1.00
C584   C     0.68797   0.87351   0.25958   0.00000  Uiso   1.00
C585   C     0.95752   0.83332   0.25001   0.00000  Uiso   1.00
C586   C     0.70914   0.83335   0.24990   0.00000  Uiso   1.00
C587   C     0.85726   0.69060   0.27970   0.00000  Uiso   1.00
C588   C     0.80938   0.97607   0.22033   0.00000  Uiso   1.00
C589   C     0.80938   0.69072   0.22032   0.00000  Uiso   1.00
C590   C     0.85727   0.97594   0.27970   0.00000  Uiso   1.00
C591   C     0.83335   0.83336   0.16332   0.00000  Uiso   1.00
C592   C     0.83335   0.83330   0.33666   0.00000  Uiso   1.00
C593   C     0.84956   0.87058   0.40715   0.00000  Uiso   1.00
C594   C     0.81838   0.79545   0.09275   0.00000  Uiso   1.00
C595   C     0.83331   0.83331   0.38448   0.00000  Uiso   1.00
C596   C     0.83327   0.83340   0.11545   0.00000  Uiso   1.00
C597   C     0.81698   0.79617   0.40731   0.00000  Uiso   1.00
C598   C     0.84815   0.87128   0.09258   0.00000  Uiso   1.00
C599   C     0.81696   0.79585   0.45348   0.00000  Uiso   1.00
C600   C     0.84835   0.87149   0.04642   0.00000  Uiso   1.00
C601   C     0.83276   0.83371   0.47672   0.00000  Uiso   1.00
C602   C     0.83271   0.83354   0.02318   0.00000  Uiso   1.00
C603   C     0.84921   0.87140   0.45345   0.00000  Uiso   1.00
C604   C     0.81763   0.79517   0.04646   0.00000  Uiso   1.00
C605   C     0.80187   0.75807   0.47656   0.00000  Uiso   1.00
C606   C     0.86459   0.90872   0.02333   0.00000  Uiso   1.00
H607   H     0.86251   0.89877   0.38852   0.00000  Uiso   1.00
H608   H     0.80672   0.76654   0.11132   0.00000  Uiso   1.00
H609   H     0.80407   0.76770   0.38909   0.00000  Uiso   1.00
H610   H     0.86016   0.90028   0.11074   0.00000  Uiso   1.00
H611   H     0.79055   0.72870   0.45856   0.00000  Uiso   1.00
H612   H     0.87749   0.93735   0.04128   0.00000  Uiso   1.00
H613   H     0.70424   0.76202   0.23237   0.00000  Uiso   1.00
H614   H     0.96243   0.90466   0.26751   0.00000  Uiso   1.00
H615   H     0.96245   0.76199   0.23250   0.00000  Uiso   1.00
H616   H     0.70422   0.90469   0.26739   0.00000  Uiso   1.00
H617   H     0.87639   0.70875   0.30343   0.00000  Uiso   1.00
H618   H     0.79022   0.95793   0.19662   0.00000  Uiso   1.00
H619   H     0.79023   0.70897   0.19661   0.00000  Uiso   1.00
H620   H     0.87641   0.95769   0.30341   0.00000  Uiso   1.00
N621   N     0.83333   0.95240   0.25000   0.00000  Uiso   1.00
N622   N     0.83333   0.71427   0.25000   0.00000  Uiso   1.00
O623   O     0.77226   0.87154   0.24999   0.00000  Uiso   1.00
O624   O     0.89441   0.79513   0.25001   0.00000  Uiso   1.00
O625   O     0.89441   0.87154   0.25001   0.00000  Uiso   1.00
O626   O     0.77226   0.79513   0.24999   0.00000  Uiso   1.00
O627   O     0.83333   0.87156   0.18393   0.00000  Uiso   1.00
O628   O     0.83334   0.79511   0.31608   0.00000  Uiso   1.00
O629   O     0.83334   0.87156   0.31607   0.00000  Uiso   1.00
O630   O     0.83333   0.79511   0.18393   0.00000  Uiso   1.00
Zn631  Zn    0.83333   0.88437   0.25000   0.00000  Uiso   1.00
Zn632  Zn    0.83333   0.78229   0.25000   0.00000  Uiso   1.00
O633   O     0.79030   0.71855   0.04566   0.00000  Uiso   1.00
C634   C     0.74647   0.71659   0.04724   0.00000  Uiso   1.00
H635   H     0.73326   0.71166   0.01321   0.00000  Uiso   1.00
H636   H     0.73322   0.74803   0.06223   0.00000  Uiso   1.00
C637   C     0.73354   0.67659   0.07617   0.00000  Uiso   1.00
H638   H     0.74592   0.68083   0.11055   0.00000  Uiso   1.00
H639   H     0.69907   0.67456   0.07769   0.00000  Uiso   1.00
H640   H     0.74584   0.97790   0.06186   0.00000  Uiso   1.00
O641   O     0.88487   0.94391   0.45458   0.00000  Uiso   1.00
C642   C     0.85599   0.97910   0.44700   0.00000  Uiso   1.00
H643   H     0.84773   0.99599   0.47901   0.00000  Uiso   1.00
H644   H     0.82710   0.96632   0.43064   0.00000  Uiso   1.00
C645   C     0.87567   0.68057   0.41605   0.00000  Uiso   1.00
H646   H     0.88589   0.99731   0.38466   0.00000  Uiso   1.00
H647   H     0.85273   0.70725   0.40761   0.00000  Uiso   1.00
H648   H     0.90297   0.69646   0.43253   0.00000  Uiso   1.00
C649   C     0.08662   0.16667   0.74995   0.00000  Uiso   1.00
C650   C     0.24671   0.16666   0.75003   0.00000  Uiso   1.00
C651   C     0.13536   0.09078   0.52311   0.00000  Uiso   1.00
C652   C     0.19847   0.24228   0.97684   0.00000  Uiso   1.00
C653   C     0.02132   0.12652   0.74024   0.00000  Uiso   1.00
C654   C     0.31202   0.20683   0.75965   0.00000  Uiso   1.00
C655   C     0.31203   0.12650   0.74031   0.00000  Uiso   1.00
C656   C     0.02131   0.20684   0.75958   0.00000  Uiso   1.00
C657   C     0.29086   0.16665   0.75001   0.00000  Uiso   1.00
C658   C     0.04248   0.16668   0.74990   0.00000  Uiso   1.00
C659   C     0.19059   0.02393   0.77970   0.00000  Uiso   1.00
C660   C     0.14271   0.30941   0.72033   0.00000  Uiso   1.00
C661   C     0.14271   0.02406   0.72032   0.00000  Uiso   1.00
C662   C     0.19060   0.30928   0.77970   0.00000  Uiso   1.00
C663   C     0.16668   0.16670   0.66332   0.00000  Uiso   1.00
C664   C     0.16668   0.16664   0.83666   0.00000  Uiso   1.00
C665   C     0.18289   0.20391   0.90715   0.00000  Uiso   1.00
C666   C     0.15171   0.12878   0.59275   0.00000  Uiso   1.00
C667   C     0.16665   0.16664   0.88448   0.00000  Uiso   1.00
C668   C     0.16661   0.16673   0.61545   0.00000  Uiso   1.00
C669   C     0.15032   0.12951   0.90731   0.00000  Uiso   1.00
C670   C     0.18148   0.20462   0.59258   0.00000  Uiso   1.00
C671   C     0.15030   0.12919   0.95348   0.00000  Uiso   1.00
C672   C     0.18168   0.20483   0.54642   0.00000  Uiso   1.00
C673   C     0.16609   0.16704   0.97672   0.00000  Uiso   1.00
C674   C     0.16604   0.16687   0.52318   0.00000  Uiso   1.00
C675   C     0.18255   0.20473   0.95345   0.00000  Uiso   1.00
C676   C     0.15096   0.12850   0.54646   0.00000  Uiso   1.00
C677   C     0.13520   0.09140   0.97656   0.00000  Uiso   1.00
C678   C     0.19793   0.24205   0.52333   0.00000  Uiso   1.00
H679   H     0.19585   0.23210   0.88852   0.00000  Uiso   1.00
H680   H     0.14006   0.09988   0.61132   0.00000  Uiso   1.00
H681   H     0.13740   0.10104   0.88909   0.00000  Uiso   1.00
H682   H     0.19349   0.23361   0.61074   0.00000  Uiso   1.00
H683   H     0.12388   0.06203   0.95856   0.00000  Uiso   1.00
H684   H     0.21082   0.27069   0.54128   0.00000  Uiso   1.00
H685   H     0.03758   0.09535   0.73237   0.00000  Uiso   1.00
H686   H     0.29576   0.23800   0.76751   0.00000  Uiso   1.00
H687   H     0.29578   0.09532   0.73250   0.00000  Uiso   1.00
H688   H     0.03755   0.23802   0.76739   0.00000  Uiso   1.00
H689   H     0.20972   0.04208   0.80343   0.00000  Uiso   1.00
H690   H     0.12356   0.29126   0.69662   0.00000  Uiso   1.00
H691   H     0.12356   0.04231   0.69661   0.00000  Uiso   1.00
H692   H     0.20974   0.29102   0.80341   0.00000  Uiso   1.00
N693   N     0.16667   0.28573   0.75000   0.00000  Uiso   1.00
N694   N     0.16667   0.04760   0.75000   0.00000  Uiso   1.00
O695   O     0.10559   0.20487   0.74999   0.00000  Uiso   1.00
O696   O     0.22774   0.12846   0.75001   0.00000  Uiso   1.00
O697   O     0.22774   0.20487   0.75001   0.00000  Uiso   1.00
O698   O     0.10559   0.12846   0.74999   0.00000  Uiso   1.00
O699   O     0.16666   0.20489   0.68393   0.00000  Uiso   1.00
O700   O     0.16667   0.12844   0.81608   0.00000  Uiso   1.00
O701   O     0.16667   0.20489   0.81607   0.00000  Uiso   1.00
O702   O     0.16666   0.12844   0.68393   0.00000  Uiso   1.00
Zn703  Zn    0.16667   0.21771   0.75000   0.00000  Uiso   1.00
Zn704  Zn    0.16667   0.11563   0.75000   0.00000  Uiso   1.00
O705   O     0.12363   0.05189   0.54566   0.00000  Uiso   1.00
C706   C     0.07980   0.04993   0.54724   0.00000  Uiso   1.00
H707   H     0.06659   0.04500   0.51321   0.00000  Uiso   1.00
H708   H     0.06655   0.08136   0.56223   0.00000  Uiso   1.00
C709   C     0.06687   0.00993   0.57617   0.00000  Uiso   1.00
H710   H     0.07926   0.01417   0.61055   0.00000  Uiso   1.00
H711   H     0.03240   0.00789   0.57769   0.00000  Uiso   1.00
H712   H     0.07917   0.31123   0.56186   0.00000  Uiso   1.00
O713   O     0.21821   0.27724   0.95458   0.00000  Uiso   1.00
C714   C     0.18932   0.31244   0.94700   0.00000  Uiso   1.00
H715   H     0.18106   0.32932   0.97901   0.00000  Uiso   1.00
H716   H     0.16043   0.29966   0.93064   0.00000  Uiso   1.00
C717   C     0.20901   0.01391   0.91605   0.00000  Uiso   1.00
H718   H     0.21922   0.33064   0.88466   0.00000  Uiso   1.00
H719   H     0.18607   0.04059   0.90761   0.00000  Uiso   1.00
H720   H     0.23630   0.02980   0.93253   0.00000  Uiso   1.00
C721   C     0.41995   0.16667   0.74995   0.00000  Uiso   1.00
C722   C     0.58005   0.16666   0.75003   0.00000  Uiso   1.00
C723   C     0.46870   0.09078   0.52311   0.00000  Uiso   1.00
C724   C     0.53181   0.24228   0.97684   0.00000  Uiso   1.00
C725   C     0.35465   0.12652   0.74024   0.00000  Uiso   1.00
C726   C     0.64535   0.20683   0.75965   0.00000  Uiso   1.00
C727   C     0.64536   0.12650   0.74031   0.00000  Uiso   1.00
C728   C     0.35464   0.20684   0.75958   0.00000  Uiso   1.00
C729   C     0.62419   0.16665   0.75001   0.00000  Uiso   1.00
C730   C     0.37581   0.16668   0.74990   0.00000  Uiso   1.00
C731   C     0.52393   0.02393   0.77970   0.00000  Uiso   1.00
C732   C     0.47604   0.30941   0.72033   0.00000  Uiso   1.00
C733   C     0.47604   0.02406   0.72032   0.00000  Uiso   1.00
C734   C     0.52393   0.30928   0.77970   0.00000  Uiso   1.00
C735   C     0.50002   0.16670   0.66332   0.00000  Uiso   1.00
C736   C     0.50001   0.16664   0.83666   0.00000  Uiso   1.00
C737   C     0.51623   0.20391   0.90715   0.00000  Uiso   1.00
C738   C     0.48504   0.12878   0.59275   0.00000  Uiso   1.00
C739   C     0.49998   0.16664   0.88448   0.00000  Uiso   1.00
C740   C     0.49994   0.16673   0.61545   0.00000  Uiso   1.00
C741   C     0.48365   0.12951   0.90731   0.00000  Uiso   1.00
C742   C     0.51482   0.20462   0.59258   0.00000  Uiso   1.00
C743   C     0.48363   0.12919   0.95348   0.00000  Uiso   1.00
C744   C     0.51502   0.20483   0.54642   0.00000  Uiso   1.00
C745   C     0.49943   0.16704   0.97672   0.00000  Uiso   1.00
C746   C     0.49938   0.16687   0.52318   0.00000  Uiso   1.00
C747   C     0.51588   0.20473   0.95345   0.00000  Uiso   1.00
C748   C     0.48429   0.12850   0.54646   0.00000  Uiso   1.00
C749   C     0.46853   0.09140   0.97656   0.00000  Uiso   1.00
C750   C     0.53126   0.24205   0.52333   0.00000  Uiso   1.00
H751   H     0.52918   0.23210   0.88852   0.00000  Uiso   1.00
H752   H     0.47339   0.09988   0.61132   0.00000  Uiso   1.00
H753   H     0.47074   0.10104   0.88909   0.00000  Uiso   1.00
H754   H     0.52683   0.23361   0.61074   0.00000  Uiso   1.00
H755   H     0.45721   0.06203   0.95856   0.00000  Uiso   1.00
H756   H     0.54416   0.27069   0.54128   0.00000  Uiso   1.00
H757   H     0.37091   0.09535   0.73237   0.00000  Uiso   1.00
H758   H     0.62909   0.23800   0.76751   0.00000  Uiso   1.00
H759   H     0.62912   0.09532   0.73250   0.00000  Uiso   1.00
H760   H     0.37088   0.23802   0.76739   0.00000  Uiso   1.00
H761   H     0.54306   0.04208   0.80343   0.00000  Uiso   1.00
H762   H     0.45689   0.29126   0.69662   0.00000  Uiso   1.00
H763   H     0.45689   0.04231   0.69661   0.00000  Uiso   1.00
H764   H     0.54307   0.29102   0.80341   0.00000  Uiso   1.00
N765   N     0.50000   0.28573   0.75000   0.00000  Uiso   1.00
N766   N     0.50000   0.04760   0.75000   0.00000  Uiso   1.00
O767   O     0.43892   0.20487   0.74999   0.00000  Uiso   1.00
O768   O     0.56108   0.12846   0.75001   0.00000  Uiso   1.00
O769   O     0.56108   0.20487   0.75001   0.00000  Uiso   1.00
O770   O     0.43892   0.12846   0.74999   0.00000  Uiso   1.00
O771   O     0.49999   0.20489   0.68393   0.00000  Uiso   1.00
O772   O     0.50001   0.12844   0.81608   0.00000  Uiso   1.00
O773   O     0.50001   0.20489   0.81607   0.00000  Uiso   1.00
O774   O     0.49999   0.12844   0.68393   0.00000  Uiso   1.00
Zn775  Zn    0.50000   0.21771   0.75000   0.00000  Uiso   1.00
Zn776  Zn    0.50000   0.11563   0.75000   0.00000  Uiso   1.00
O777   O     0.45697   0.05189   0.54566   0.00000  Uiso   1.00
C778   C     0.41314   0.04993   0.54724   0.00000  Uiso   1.00
H779   H     0.39993   0.04500   0.51321   0.00000  Uiso   1.00
H780   H     0.39989   0.08136   0.56223   0.00000  Uiso   1.00
C781   C     0.40020   0.00993   0.57617   0.00000  Uiso   1.00
H782   H     0.41259   0.01417   0.61055   0.00000  Uiso   1.00
H783   H     0.36573   0.00789   0.57769   0.00000  Uiso   1.00
H784   H     0.41250   0.31123   0.56186   0.00000  Uiso   1.00
O785   O     0.55154   0.27724   0.95458   0.00000  Uiso   1.00
C786   C     0.52266   0.31244   0.94700   0.00000  Uiso   1.00
H787   H     0.51439   0.32932   0.97901   0.00000  Uiso   1.00
H788   H     0.49376   0.29966   0.93064   0.00000  Uiso   1.00
C789   C     0.54234   0.01391   0.91605   0.00000  Uiso   1.00
H790   H     0.55256   0.33064   0.88466   0.00000  Uiso   1.00
H791   H     0.51940   0.04059   0.90761   0.00000  Uiso   1.00
H792   H     0.56964   0.02980   0.93253   0.00000  Uiso   1.00
C793   C     0.75329   0.16667   0.74995   0.00000  Uiso   1.00
C794   C     0.91338   0.16666   0.75003   0.00000  Uiso   1.00
C795   C     0.80203   0.09078   0.52311   0.00000  Uiso   1.00
C796   C     0.86514   0.24228   0.97684   0.00000  Uiso   1.00
C797   C     0.68799   0.12652   0.74024   0.00000  Uiso   1.00
C798   C     0.97868   0.20683   0.75965   0.00000  Uiso   1.00
C799   C     0.97870   0.12650   0.74031   0.00000  Uiso   1.00
C800   C     0.68797   0.20684   0.75958   0.00000  Uiso   1.00
C801   C     0.95752   0.16665   0.75001   0.00000  Uiso   1.00
C802   C     0.70914   0.16668   0.74990   0.00000  Uiso   1.00
C803   C     0.85726   0.02393   0.77970   0.00000  Uiso   1.00
C804   C     0.80938   0.30941   0.72033   0.00000  Uiso   1.00
C805   C     0.80938   0.02406   0.72032   0.00000  Uiso   1.00
C806   C     0.85727   0.30928   0.77970   0.00000  Uiso   1.00
C807   C     0.83335   0.16670   0.66332   0.00000  Uiso   1.00
C808   C     0.83335   0.16664   0.83666   0.00000  Uiso   1.00
C809   C     0.84956   0.20391   0.90715   0.00000  Uiso   1.00
C810   C     0.81838   0.12878   0.59275   0.00000  Uiso   1.00
C811   C     0.83331   0.16664   0.88448   0.00000  Uiso   1.00
C812   C     0.83327   0.16673   0.61545   0.00000  Uiso   1.00
C813   C     0.81698   0.12951   0.90731   0.00000  Uiso   1.00
C814   C     0.84815   0.20462   0.59258   0.00000  Uiso   1.00
C815   C     0.81696   0.12919   0.95348   0.00000  Uiso   1.00
C816   C     0.84835   0.20483   0.54642   0.00000  Uiso   1.00
C817   C     0.83276   0.16704   0.97672   0.00000  Uiso   1.00
C818   C     0.83271   0.16687   0.52318   0.00000  Uiso   1.00
C819   C     0.84921   0.20473   0.95345   0.00000  Uiso   1.00
C820   C     0.81763   0.12850   0.54646   0.00000  Uiso   1.00
C821   C     0.80187   0.09140   0.97656   0.00000  Uiso   1.00
C822   C     0.86459   0.24205   0.52333   0.00000  Uiso   1.00
H823   H     0.86251   0.23210   0.88852   0.00000  Uiso   1.00
H824   H     0.80672   0.09988   0.61132   0.00000  Uiso   1.00
H825   H     0.80407   0.10104   0.88909   0.00000  Uiso   1.00
H826   H     0.86016   0.23361   0.61074   0.00000  Uiso   1.00
H827   H     0.79055   0.06203   0.95856   0.00000  Uiso   1.00
H828   H     0.87749   0.27069   0.54128   0.00000  Uiso   1.00
H829   H     0.70424   0.09535   0.73237   0.00000  Uiso   1.00
H830   H     0.96243   0.23800   0.76751   0.00000  Uiso   1.00
H831   H     0.96245   0.09532   0.73250   0.00000  Uiso   1.00
H832   H     0.70422   0.23802   0.76739   0.00000  Uiso   1.00
H833   H     0.87639   0.04208   0.80343   0.00000  Uiso   1.00
H834   H     0.79022   0.29126   0.69662   0.00000  Uiso   1.00
H835   H     0.79023   0.04231   0.69661   0.00000  Uiso   1.00
H836   H     0.87641   0.29102   0.80341   0.00000  Uiso   1.00
N837   N     0.83333   0.28573   0.75000   0.00000  Uiso   1.00
N838   N     0.83333   0.04760   0.75000   0.00000  Uiso   1.00
O839   O     0.77226   0.20487   0.74999   0.00000  Uiso   1.00
O840   O     0.89441   0.12846   0.75001   0.00000  Uiso   1.00
O841   O     0.89441   0.20487   0.75001   0.00000  Uiso   1.00
O842   O     0.77226   0.12846   0.74999   0.00000  Uiso   1.00
O843   O     0.83333   0.20489   0.68393   0.00000  Uiso   1.00
O844   O     0.83334   0.12844   0.81608   0.00000  Uiso   1.00
O845   O     0.83334   0.20489   0.81607   0.00000  Uiso   1.00
O846   O     0.83333   0.12844   0.68393   0.00000  Uiso   1.00
Zn847  Zn    0.83333   0.21771   0.75000   0.00000  Uiso   1.00
Zn848  Zn    0.83333   0.11563   0.75000   0.00000  Uiso   1.00
O849   O     0.79030   0.05189   0.54566   0.00000  Uiso   1.00
C850   C     0.74647   0.04993   0.54724   0.00000  Uiso   1.00
H851   H     0.73326   0.04500   0.51321   0.00000  Uiso   1.00
H852   H     0.73322   0.08136   0.56223   0.00000  Uiso   1.00
C853   C     0.73354   0.00993   0.57617   0.00000  Uiso   1.00
H854   H     0.74592   0.01417   0.61055   0.00000  Uiso   1.00
H855   H     0.69907   0.00789   0.57769   0.00000  Uiso   1.00
H856   H     0.74584   0.31123   0.56186   0.00000  Uiso   1.00
O857   O     0.88487   0.27724   0.95458   0.00000  Uiso   1.00
C858   C     0.85599   0.31244   0.94700   0.00000  Uiso   1.00
H859   H     0.84773   0.32932   0.97901   0.00000  Uiso   1.00
H860   H     0.82710   0.29966   0.93064   0.00000  Uiso   1.00
C861   C     0.87567   0.01391   0.91605   0.00000  Uiso   1.00
H862   H     0.88589   0.33064   0.88466   0.00000  Uiso   1.00
H863   H     0.85273   0.04059   0.90761   0.00000  Uiso   1.00
H864   H     0.90297   0.02980   0.93253   0.00000  Uiso   1.00
C865   C     0.08662   0.50001   0.74995   0.00000  Uiso   1.00
C866   C     0.24671   0.49999   0.75003   0.00000  Uiso   1.00
C867   C     0.13536   0.42412   0.52311   0.00000  Uiso   1.00
C868   C     0.19847   0.57562   0.97684   0.00000  Uiso   1.00
C869   C     0.02132   0.45985   0.74024   0.00000  Uiso   1.00
C870   C     0.31202   0.54016   0.75965   0.00000  Uiso   1.00
C871   C     0.31203   0.45983   0.74031   0.00000  Uiso   1.00
C872   C     0.02131   0.54018   0.75958   0.00000  Uiso   1.00
C873   C     0.29086   0.49999   0.75001   0.00000  Uiso   1.00
C874   C     0.04248   0.50002   0.74990   0.00000  Uiso   1.00
C875   C     0.19059   0.35726   0.77970   0.00000  Uiso   1.00
C876   C     0.14271   0.64274   0.72033   0.00000  Uiso   1.00
C877   C     0.14271   0.35739   0.72032   0.00000  Uiso   1.00
C878   C     0.19060   0.64261   0.77970   0.00000  Uiso   1.00
C879   C     0.16668   0.50003   0.66332   0.00000  Uiso   1.00
C880   C     0.16668   0.49997   0.83666   0.00000  Uiso   1.00
C881   C     0.18289   0.53724   0.90715   0.00000  Uiso   1.00
C882   C     0.15171   0.46211   0.59275   0.00000  Uiso   1.00
C883   C     0.16665   0.49998   0.88448   0.00000  Uiso   1.00
C884   C     0.16661   0.50006   0.61545   0.00000  Uiso   1.00
C885   C     0.15032   0.46284   0.90731   0.00000  Uiso   1.00
C886   C     0.18148   0.53795   0.59258   0.00000  Uiso   1.00
C887   C     0.15030   0.46252   0.95348   0.00000  Uiso   1.00
C888   C     0.18168   0.53816   0.54642   0.00000  Uiso   1.00
C889   C     0.16609   0.50038   0.97672   0.00000  Uiso   1.00
C890   C     0.16604   0.50021   0.52318   0.00000  Uiso   1.00
C891   C     0.18255   0.53806   0.95345   0.00000  Uiso   1.00
C892   C     0.15096   0.46183   0.54646   0.00000  Uiso   1.00
C893   C     0.13520   0.42474   0.97656   0.00000  Uiso   1.00
C894   C     0.19793   0.57539   0.52333   0.00000  Uiso   1.00
H895   H     0.19585   0.56543   0.88852   0.00000  Uiso   1.00
H896   H     0.14006   0.43321   0.61132   0.00000  Uiso   1.00
H897   H     0.13740   0.43437   0.88909   0.00000  Uiso   1.00
H898   H     0.19349   0.56694   0.61074   0.00000  Uiso   1.00
H899   H     0.12388   0.39536   0.95856   0.00000  Uiso   1.00
H900   H     0.21082   0.60402   0.54128   0.00000  Uiso   1.00
H901   H     0.03758   0.42868   0.73237   0.00000  Uiso   1.00
H902   H     0.29576   0.57133   0.76751   0.00000  Uiso   1.00
H903   H     0.29578   0.42865   0.73250   0.00000  Uiso   1.00
H904   H     0.03755   0.57136   0.76739   0.00000  Uiso   1.00
H905   H     0.20972   0.37541   0.80343   0.00000  Uiso   1.00
H906   H     0.12356   0.62460   0.69662   0.00000  Uiso   1.00
H907   H     0.12356   0.37564   0.69661   0.00000  Uiso   1.00
H908   H     0.20974   0.62435   0.80341   0.00000  Uiso   1.00
N909   N     0.16667   0.61907   0.75000   0.00000  Uiso   1.00
N910   N     0.16667   0.38093   0.75000   0.00000  Uiso   1.00
O911   O     0.10559   0.53821   0.74999   0.00000  Uiso   1.00
O912   O     0.22774   0.46179   0.75001   0.00000  Uiso   1.00
O913   O     0.22774   0.53821   0.75001   0.00000  Uiso   1.00
O914   O     0.10559   0.46179   0.74999   0.00000  Uiso   1.00
O915   O     0.16666   0.53823   0.68393   0.00000  Uiso   1.00
O916   O     0.16667   0.46177   0.81608   0.00000  Uiso   1.00
O917   O     0.16667   0.53823   0.81607   0.00000  Uiso   1.00
O918   O     0.16666   0.46177   0.68393   0.00000  Uiso   1.00
Zn919  Zn    0.16667   0.55104   0.75000   0.00000  Uiso   1.00
Zn920  Zn    0.16667   0.44896   0.75000   0.00000  Uiso   1.00
O921   O     0.12363   0.38522   0.54566   0.00000  Uiso   1.00
C922   C     0.07980   0.38326   0.54724   0.00000  Uiso   1.00
H923   H     0.06659   0.37833   0.51321   0.00000  Uiso   1.00
H924   H     0.06655   0.41470   0.56223   0.00000  Uiso   1.00
C925   C     0.06687   0.34326   0.57617   0.00000  Uiso   1.00
H926   H     0.07926   0.34750   0.61055   0.00000  Uiso   1.00
H927   H     0.03240   0.34122   0.57769   0.00000  Uiso   1.00
H928   H     0.07917   0.64456   0.56186   0.00000  Uiso   1.00
O929   O     0.21821   0.61057   0.95458   0.00000  Uiso   1.00
C930   C     0.18932   0.64577   0.94700   0.00000  Uiso   1.00
H931   H     0.18106   0.66265   0.97901   0.00000  Uiso   1.00
H932   H     0.16043   0.63299   0.93064   0.00000  Uiso   1.00
C933   C     0.20901   0.34724   0.91605   0.00000  Uiso   1.00
H934   H     0.21922   0.66398   0.88466   0.00000  Uiso   1.00
H935   H     0.18607   0.37392   0.90761   0.00000  Uiso   1.00
H936   H     0.23630   0.36313   0.93253   0.00000  Uiso   1.00
C937   C     0.41995   0.50001   0.74995   0.00000  Uiso   1.00
C938   C     0.58005   0.49999   0.75003   0.00000  Uiso   1.00
C939   C     0.46870   0.42412   0.52311   0.00000  Uiso   1.00
C940   C     0.53181   0.57562   0.97684   0.00000  Uiso   1.00
C941   C     0.35465   0.45985   0.74024   0.00000  Uiso   1.00
C942   C     0.64535   0.54016   0.75965   0.00000  Uiso   1.00
C943   C     0.64536   0.45983   0.74031   0.00000  Uiso   1.00
C944   C     0.35464   0.54018   0.75958   0.00000  Uiso   1.00
C945   C     0.62419   0.49999   0.75001   0.00000  Uiso   1.00
C946   C     0.37581   0.50002   0.74990   0.00000  Uiso   1.00
C947   C     0.52393   0.35726   0.77970   0.00000  Uiso   1.00
C948   C     0.47604   0.64274   0.72033   0.00000  Uiso   1.00
C949   C     0.47604   0.35739   0.72032   0.00000  Uiso   1.00
C950   C     0.52393   0.64261   0.77970   0.00000  Uiso   1.00
C951   C     0.50002   0.50003   0.66332   0.00000  Uiso   1.00
C952   C     0.50001   0.49997   0.83666   0.00000  Uiso   1.00
C953   C     0.51623   0.53724   0.90715   0.00000  Uiso   1.00
C954   C     0.48504   0.46211   0.59275   0.00000  Uiso   1.00
C955   C     0.49998   0.49998   0.88448   0.00000  Uiso   1.00
C956   C     0.49994   0.50006   0.61545   0.00000  Uiso   1.00
C957   C     0.48365   0.46284   0.90731   0.00000  Uiso   1.00
C958   C     0.51482   0.53795   0.59258   0.00000  Uiso   1.00
C959   C     0.48363   0.46252   0.95348   0.00000  Uiso   1.00
C960   C     0.51502   0.53816   0.54642   0.00000  Uiso   1.00
C961   C     0.49943   0.50038   0.97672   0.00000  Uiso   1.00
C962   C     0.49938   0.50021   0.52318   0.00000  Uiso   1.00
C963   C     0.51588   0.53806   0.95345   0.00000  Uiso   1.00
C964   C     0.48429   0.46183   0.54646   0.00000  Uiso   1.00
C965   C     0.46853   0.42474   0.97656   0.00000  Uiso   1.00
C966   C     0.53126   0.57539   0.52333   0.00000  Uiso   1.00
H967   H     0.52918   0.56543   0.88852   0.00000  Uiso   1.00
H968   H     0.47339   0.43321   0.61132   0.00000  Uiso   1.00
H969   H     0.47074   0.43437   0.88909   0.00000  Uiso   1.00
H970   H     0.52683   0.56694   0.61074   0.00000  Uiso   1.00
H971   H     0.45721   0.39536   0.95856   0.00000  Uiso   1.00
H972   H     0.54416   0.60402   0.54128   0.00000  Uiso   1.00
H973   H     0.37091   0.42868   0.73237   0.00000  Uiso   1.00
H974   H     0.62909   0.57133   0.76751   0.00000  Uiso   1.00
H975   H     0.62912   0.42865   0.73250   0.00000  Uiso   1.00
H976   H     0.37088   0.57136   0.76739   0.00000  Uiso   1.00
H977   H     0.54306   0.37541   0.80343   0.00000  Uiso   1.00
H978   H     0.45689   0.62460   0.69662   0.00000  Uiso   1.00
H979   H     0.45689   0.37564   0.69661   0.00000  Uiso   1.00
H980   H     0.54307   0.62435   0.80341   0.00000  Uiso   1.00
N981   N     0.50000   0.61907   0.75000   0.00000  Uiso   1.00
N982   N     0.50000   0.38093   0.75000   0.00000  Uiso   1.00
O983   O     0.43892   0.53821   0.74999   0.00000  Uiso   1.00
O984   O     0.56108   0.46179   0.75001   0.00000  Uiso   1.00
O985   O     0.56108   0.53821   0.75001   0.00000  Uiso   1.00
O986   O     0.43892   0.46179   0.74999   0.00000  Uiso   1.00
O987   O     0.49999   0.53823   0.68393   0.00000  Uiso   1.00
O988   O     0.50001   0.46177   0.81608   0.00000  Uiso   1.00
O989   O     0.50001   0.53823   0.81607   0.00000  Uiso   1.00
O990   O     0.49999   0.46177   0.68393   0.00000  Uiso   1.00
Zn991  Zn    0.50000   0.55104   0.75000   0.00000  Uiso   1.00
Zn992  Zn    0.50000   0.44896   0.75000   0.00000  Uiso   1.00
O993   O     0.45697   0.38522   0.54566   0.00000  Uiso   1.00
C994   C     0.41314   0.38326   0.54724   0.00000  Uiso   1.00
H995   H     0.39993   0.37833   0.51321   0.00000  Uiso   1.00
H996   H     0.39989   0.41470   0.56223   0.00000  Uiso   1.00
C997   C     0.40020   0.34326   0.57617   0.00000  Uiso   1.00
H998   H     0.41259   0.34750   0.61055   0.00000  Uiso   1.00
H999   H     0.36573   0.34122   0.57769   0.00000  Uiso   1.00
H1000  H     0.41250   0.64456   0.56186   0.00000  Uiso   1.00
O1001  O     0.55154   0.61057   0.95458   0.00000  Uiso   1.00
C1002  C     0.52266   0.64577   0.94700   0.00000  Uiso   1.00
H1003  H     0.51439   0.66265   0.97901   0.00000  Uiso   1.00
H1004  H     0.49376   0.63299   0.93064   0.00000  Uiso   1.00
C1005  C     0.54234   0.34724   0.91605   0.00000  Uiso   1.00
H1006  H     0.55256   0.66398   0.88466   0.00000  Uiso   1.00
H1007  H     0.51940   0.37392   0.90761   0.00000  Uiso   1.00
H1008  H     0.56964   0.36313   0.93253   0.00000  Uiso   1.00
C1009  C     0.75329   0.50001   0.74995   0.00000  Uiso   1.00
C1010  C     0.91338   0.49999   0.75003   0.00000  Uiso   1.00
C1011  C     0.80203   0.42412   0.52311   0.00000  Uiso   1.00
C1012  C     0.86514   0.57562   0.97684   0.00000  Uiso   1.00
C1013  C     0.68799   0.45985   0.74024   0.00000  Uiso   1.00
C1014  C     0.97868   0.54016   0.75965   0.00000  Uiso   1.00
C1015  C     0.97870   0.45983   0.74031   0.00000  Uiso   1.00
C1016  C     0.68797   0.54018   0.75958   0.00000  Uiso   1.00
C1017  C     0.95752   0.49999   0.75001   0.00000  Uiso   1.00
C1018  C     0.70914   0.50002   0.74990   0.00000  Uiso   1.00
C1019  C     0.85726   0.35726   0.77970   0.00000  Uiso   1.00
C1020  C     0.80938   0.64274   0.72033   0.00000  Uiso   1.00
C1021  C     0.80938   0.35739   0.72032   0.00000  Uiso   1.00
C1022  C     0.85727   0.64261   0.77970   0.00000  Uiso   1.00
C1023  C     0.83335   0.50003   0.66332   0.00000  Uiso   1.00
C1024  C     0.83335   0.49997   0.83666   0.00000  Uiso   1.00
C1025  C     0.84956   0.53724   0.90715   0.00000  Uiso   1.00
C1026  C     0.81838   0.46211   0.59275   0.00000  Uiso   1.00
C1027  C     0.83331   0.49998   0.88448   0.00000  Uiso   1.00
C1028  C     0.83327   0.50006   0.61545   0.00000  Uiso   1.00
C1029  C     0.81698   0.46284   0.90731   0.00000  Uiso   1.00
C1030  C     0.84815   0.53795   0.59258   0.00000  Uiso   1.00
C1031  C     0.81696   0.46252   0.95348   0.00000  Uiso   1.00
C1032  C     0.84835   0.53816   0.54642   0.00000  Uiso   1.00
C1033  C     0.83276   0.50038   0.97672   0.00000  Uiso   1.00
C1034  C     0.83271   0.50021   0.52318   0.00000  Uiso   1.00
C1035  C     0.84921   0.53806   0.95345   0.00000  Uiso   1.00
C1036  C     0.81763   0.46183   0.54646   0.00000  Uiso   1.00
C1037  C     0.80187   0.42474   0.97656   0.00000  Uiso   1.00
C1038  C     0.86459   0.57539   0.52333   0.00000  Uiso   1.00
H1039  H     0.86251   0.56543   0.88852   0.00000  Uiso   1.00
H1040  H     0.80672   0.43321   0.61132   0.00000  Uiso   1.00
H1041  H     0.80407   0.43437   0.88909   0.00000  Uiso   1.00
H1042  H     0.86016   0.56694   0.61074   0.00000  Uiso   1.00
H1043  H     0.79055   0.39536   0.95856   0.00000  Uiso   1.00
H1044  H     0.87749   0.60402   0.54128   0.00000  Uiso   1.00
H1045  H     0.70424   0.42868   0.73237   0.00000  Uiso   1.00
H1046  H     0.96243   0.57133   0.76751   0.00000  Uiso   1.00
H1047  H     0.96245   0.42865   0.73250   0.00000  Uiso   1.00
H1048  H     0.70422   0.57136   0.76739   0.00000  Uiso   1.00
H1049  H     0.87639   0.37541   0.80343   0.00000  Uiso   1.00
H1050  H     0.79022   0.62460   0.69662   0.00000  Uiso   1.00
H1051  H     0.79023   0.37564   0.69661   0.00000  Uiso   1.00
H1052  H     0.87641   0.62435   0.80341   0.00000  Uiso   1.00
N1053  N     0.83333   0.61907   0.75000   0.00000  Uiso   1.00
N1054  N     0.83333   0.38093   0.75000   0.00000  Uiso   1.00
O1055  O     0.77226   0.53821   0.74999   0.00000  Uiso   1.00
O1056  O     0.89441   0.46179   0.75001   0.00000  Uiso   1.00
O1057  O     0.89441   0.53821   0.75001   0.00000  Uiso   1.00
O1058  O     0.77226   0.46179   0.74999   0.00000  Uiso   1.00
O1059  O     0.83333   0.53823   0.68393   0.00000  Uiso   1.00
O1060  O     0.83334   0.46177   0.81608   0.00000  Uiso   1.00
O1061  O     0.83334   0.53823   0.81607   0.00000  Uiso   1.00
O1062  O     0.83333   0.46177   0.68393   0.00000  Uiso   1.00
Zn1063 Zn    0.83333   0.55104   0.75000   0.00000  Uiso   1.00
Zn1064 Zn    0.83333   0.44896   0.75000   0.00000  Uiso   1.00
O1065  O     0.79030   0.38522   0.54566   0.00000  Uiso   1.00
C1066  C     0.74647   0.38326   0.54724   0.00000  Uiso   1.00
H1067  H     0.73326   0.37833   0.51321   0.00000  Uiso   1.00
H1068  H     0.73322   0.41470   0.56223   0.00000  Uiso   1.00
C1069  C     0.73354   0.34326   0.57617   0.00000  Uiso   1.00
H1070  H     0.74592   0.34750   0.61055   0.00000  Uiso   1.00
H1071  H     0.69907   0.34122   0.57769   0.00000  Uiso   1.00
H1072  H     0.74584   0.64456   0.56186   0.00000  Uiso   1.00
O1073  O     0.88487   0.61057   0.95458   0.00000  Uiso   1.00
C1074  C     0.85599   0.64577   0.94700   0.00000  Uiso   1.00
H1075  H     0.84773   0.66265   0.97901   0.00000  Uiso   1.00
H1076  H     0.82710   0.63299   0.93064   0.00000  Uiso   1.00
C1077  C     0.87567   0.34724   0.91605   0.00000  Uiso   1.00
H1078  H     0.88589   0.66398   0.88466   0.00000  Uiso   1.00
H1079  H     0.85273   0.37392   0.90761   0.00000  Uiso   1.00
H1080  H     0.90297   0.36313   0.93253   0.00000  Uiso   1.00
C1081  C     0.08662   0.83334   0.74995   0.00000  Uiso   1.00
C1082  C     0.24671   0.83333   0.75003   0.00000  Uiso   1.00
C1083  C     0.13536   0.75745   0.52311   0.00000  Uiso   1.00
C1084  C     0.19847   0.90895   0.97684   0.00000  Uiso   1.00
C1085  C     0.02132   0.79318   0.74024   0.00000  Uiso   1.00
C1086  C     0.31202   0.87349   0.75965   0.00000  Uiso   1.00
C1087  C     0.31203   0.79317   0.74031   0.00000  Uiso   1.00
C1088  C     0.02131   0.87351   0.75958   0.00000  Uiso   1.00
C1089  C     0.29086   0.83332   0.75001   0.00000  Uiso   1.00
C1090  C     0.04248   0.83335   0.74990   0.00000  Uiso   1.00
C1091  C     0.19059   0.69060   0.77970   0.00000  Uiso   1.00
C1092  C     0.14271   0.97607   0.72033   0.00000  Uiso   1.00
C1093  C     0.14271   0.69072   0.72032   0.00000  Uiso   1.00
C1094  C     0.19060   0.97594   0.77970   0.00000  Uiso   1.00
C1095  C     0.16668   0.83336   0.66332   0.00000  Uiso   1.00
C1096  C     0.16668   0.83330   0.83666   0.00000  Uiso   1.00
C1097  C     0.18289   0.87058   0.90715   0.00000  Uiso   1.00
C1098  C     0.15171   0.79545   0.59275   0.00000  Uiso   1.00
C1099  C     0.16665   0.83331   0.88448   0.00000  Uiso   1.00
C1100  C     0.16661   0.83340   0.61545   0.00000  Uiso   1.00
C1101  C     0.15032   0.79617   0.90731   0.00000  Uiso   1.00
C1102  C     0.18148   0.87128   0.59258   0.00000  Uiso   1.00
C1103  C     0.15030   0.79585   0.95348   0.00000  Uiso   1.00
C1104  C     0.18168   0.87149   0.54642   0.00000  Uiso   1.00
C1105  C     0.16609   0.83371   0.97672   0.00000  Uiso   1.00
C1106  C     0.16604   0.83354   0.52318   0.00000  Uiso   1.00
C1107  C     0.18255   0.87140   0.95345   0.00000  Uiso   1.00
C1108  C     0.15096   0.79517   0.54646   0.00000  Uiso   1.00
C1109  C     0.13520   0.75807   0.97656   0.00000  Uiso   1.00
C1110  C     0.19793   0.90872   0.52333   0.00000  Uiso   1.00
H1111  H     0.19585   0.89877   0.88852   0.00000  Uiso   1.00
H1112  H     0.14006   0.76654   0.61132   0.00000  Uiso   1.00
H1113  H     0.13740   0.76770   0.88909   0.00000  Uiso   1.00
H1114  H     0.19349   0.90028   0.61074   0.00000  Uiso   1.00
H1115  H     0.12388   0.72870   0.95856   0.00000  Uiso   1.00
H1116  H     0.21082   0.93735   0.54128   0.00000  Uiso   1.00
H1117  H     0.03758   0.76202   0.73237   0.00000  Uiso   1.00
H1118  H     0.29576   0.90466   0.76751   0.00000  Uiso   1.00
H1119  H     0.29578   0.76199   0.73250   0.00000  Uiso   1.00
H1120  H     0.03755   0.90469   0.76739   0.00000  Uiso   1.00
H1121  H     0.20972   0.70875   0.80343   0.00000  Uiso   1.00
H1122  H     0.12356   0.95793   0.69662   0.00000  Uiso   1.00
H1123  H     0.12356   0.70897   0.69661   0.00000  Uiso   1.00
H1124  H     0.20974   0.95769   0.80341   0.00000  Uiso   1.00
N1125  N     0.16667   0.95240   0.75000   0.00000  Uiso   1.00
N1126  N     0.16667   0.71427   0.75000   0.00000  Uiso   1.00
O1127  O     0.10559   0.87154   0.74999   0.00000  Uiso   1.00
O1128  O     0.22774   0.79513   0.75001   0.00000  Uiso   1.00
O1129  O     0.22774   0.87154   0.75001   0.00000  Uiso   1.00
O1130  O     0.10559   0.79513   0.74999   0.00000  Uiso   1.00
O1131  O     0.16666   0.87156   0.68393   0.00000  Uiso   1.00
O1132  O     0.16667   0.79511   0.81608   0.00000  Uiso   1.00
O1133  O     0.16667   0.87156   0.81607   0.00000  Uiso   1.00
O1134  O     0.16666   0.79511   0.68393   0.00000  Uiso   1.00
Zn1135 Zn    0.16667   0.88437   0.75000   0.00000  Uiso   1.00
Zn1136 Zn    0.16667   0.78229   0.75000   0.00000  Uiso   1.00
O1137  O     0.12363   0.71855   0.54566   0.00000  Uiso   1.00
C1138  C     0.07980   0.71659   0.54724   0.00000  Uiso   1.00
H1139  H     0.06659   0.71166   0.51321   0.00000  Uiso   1.00
H1140  H     0.06655   0.74803   0.56223   0.00000  Uiso   1.00
C1141  C     0.06687   0.67659   0.57617   0.00000  Uiso   1.00
H1142  H     0.07926   0.68083   0.61055   0.00000  Uiso   1.00
H1143  H     0.03240   0.67456   0.57769   0.00000  Uiso   1.00
H1144  H     0.07917   0.97790   0.56186   0.00000  Uiso   1.00
O1145  O     0.21821   0.94391   0.95458   0.00000  Uiso   1.00
C1146  C     0.18932   0.97910   0.94700   0.00000  Uiso   1.00
H1147  H     0.18106   0.99599   0.97901   0.00000  Uiso   1.00
H1148  H     0.16043   0.96632   0.93064   0.00000  Uiso   1.00
C1149  C     0.20901   0.68057   0.91605   0.00000  Uiso   1.00
H1150  H     0.21922   0.99731   0.88466   0.00000  Uiso   1.00
H1151  H     0.18607   0.70725   0.90761   0.00000  Uiso   1.00
H1152  H     0.23630   0.69646   0.93253   0.00000  Uiso   1.00
C1153  C     0.41995   0.83334   0.74995   0.00000  Uiso   1.00
C1154  C     0.58005   0.83333   0.75003   0.00000  Uiso   1.00
C1155  C     0.46870   0.75745   0.52311   0.00000  Uiso   1.00
C1156  C     0.53181   0.90895   0.97684   0.00000  Uiso   1.00
C1157  C     0.35465   0.79318   0.74024   0.00000  Uiso   1.00
C1158  C     0.64535   0.87349   0.75965   0.00000  Uiso   1.00
C1159  C     0.64536   0.79317   0.74031   0.00000  Uiso   1.00
C1160  C     0.35464   0.87351   0.75958   0.00000  Uiso   1.00
C1161  C     0.62419   0.83332   0.75001   0.00000  Uiso   1.00
C1162  C     0.37581   0.83335   0.74990   0.00000  Uiso   1.00
C1163  C     0.52393   0.69060   0.77970   0.00000  Uiso   1.00
C1164  C     0.47604   0.97607   0.72033   0.00000  Uiso   1.00
C1165  C     0.47604   0.69072   0.72032   0.00000  Uiso   1.00
C1166  C     0.52393   0.97594   0.77970   0.00000  Uiso   1.00
C1167  C     0.50002   0.83336   0.66332   0.00000  Uiso   1.00
C1168  C     0.50001   0.83330   0.83666   0.00000  Uiso   1.00
C1169  C     0.51623   0.87058   0.90715   0.00000  Uiso   1.00
C1170  C     0.48504   0.79545   0.59275   0.00000  Uiso   1.00
C1171  C     0.49998   0.83331   0.88448   0.00000  Uiso   1.00
C1172  C     0.49994   0.83340   0.61545   0.00000  Uiso   1.00
C1173  C     0.48365   0.79617   0.90731   0.00000  Uiso   1.00
C1174  C     0.51482   0.87128   0.59258   0.00000  Uiso   1.00
C1175  C     0.48363   0.79585   0.95348   0.00000  Uiso   1.00
C1176  C     0.51502   0.87149   0.54642   0.00000  Uiso   1.00
C1177  C     0.49943   0.83371   0.97672   0.00000  Uiso   1.00
C1178  C     0.49938   0.83354   0.52318   0.00000  Uiso   1.00
C1179  C     0.51588   0.87140   0.95345   0.00000  Uiso   1.00
C1180  C     0.48429   0.79517   0.54646   0.00000  Uiso   1.00
C1181  C     0.46853   0.75807   0.97656   0.00000  Uiso   1.00
C1182  C     0.53126   0.90872   0.52333   0.00000  Uiso   1.00
H1183  H     0.52918   0.89877   0.88852   0.00000  Uiso   1.00
H1184  H     0.47339   0.76654   0.61132   0.00000  Uiso   1.00
H1185  H     0.47074   0.76770   0.88909   0.00000  Uiso   1.00
H1186  H     0.52683   0.90028   0.61074   0.00000  Uiso   1.00
H1187  H     0.45721   0.72870   0.95856   0.00000  Uiso   1.00
H1188  H     0.54416   0.93735   0.54128   0.00000  Uiso   1.00
H1189  H     0.37091   0.76202   0.73237   0.00000  Uiso   1.00
H1190  H     0.62909   0.90466   0.76751   0.00000  Uiso   1.00
H1191  H     0.62912   0.76199   0.73250   0.00000  Uiso   1.00
H1192  H     0.37088   0.90469   0.76739   0.00000  Uiso   1.00
H1193  H     0.54306   0.70875   0.80343   0.00000  Uiso   1.00
H1194  H     0.45689   0.95793   0.69662   0.00000  Uiso   1.00
H1195  H     0.45689   0.70897   0.69661   0.00000  Uiso   1.00
H1196  H     0.54307   0.95769   0.80341   0.00000  Uiso   1.00
N1197  N     0.50000   0.95240   0.75000   0.00000  Uiso   1.00
N1198  N     0.50000   0.71427   0.75000   0.00000  Uiso   1.00
O1199  O     0.43892   0.87154   0.74999   0.00000  Uiso   1.00
O1200  O     0.56108   0.79513   0.75001   0.00000  Uiso   1.00
O1201  O     0.56108   0.87154   0.75001   0.00000  Uiso   1.00
O1202  O     0.43892   0.79513   0.74999   0.00000  Uiso   1.00
O1203  O     0.49999   0.87156   0.68393   0.00000  Uiso   1.00
O1204  O     0.50001   0.79511   0.81608   0.00000  Uiso   1.00
O1205  O     0.50001   0.87156   0.81607   0.00000  Uiso   1.00
O1206  O     0.49999   0.79511   0.68393   0.00000  Uiso   1.00
Zn1207 Zn    0.50000   0.88437   0.75000   0.00000  Uiso   1.00
Zn1208 Zn    0.50000   0.78229   0.75000   0.00000  Uiso   1.00
O1209  O     0.45697   0.71855   0.54566   0.00000  Uiso   1.00
C1210  C     0.41314   0.71659   0.54724   0.00000  Uiso   1.00
H1211  H     0.39993   0.71166   0.51321   0.00000  Uiso   1.00
H1212  H     0.39989   0.74803   0.56223   0.00000  Uiso   1.00
C1213  C     0.40020   0.67659   0.57617   0.00000  Uiso   1.00
H1214  H     0.41259   0.68083   0.61055   0.00000  Uiso   1.00
H1215  H     0.36573   0.67456   0.57769   0.00000  Uiso   1.00
H1216  H     0.41250   0.97790   0.56186   0.00000  Uiso   1.00
O1217  O     0.55154   0.94391   0.95458   0.00000  Uiso   1.00
C1218  C     0.52266   0.97910   0.94700   0.00000  Uiso   1.00
H1219  H     0.51439   0.99599   0.97901   0.00000  Uiso   1.00
H1220  H     0.49376   0.96632   0.93064   0.00000  Uiso   1.00
C1221  C     0.54234   0.68057   0.91605   0.00000  Uiso   1.00
H1222  H     0.55256   0.99731   0.88466   0.00000  Uiso   1.00
H1223  H     0.51940   0.70725   0.90761   0.00000  Uiso   1.00
H1224  H     0.56964   0.69646   0.93253   0.00000  Uiso   1.00
C1225  C     0.75329   0.83334   0.74995   0.00000  Uiso   1.00
C1226  C     0.91338   0.83333   0.75003   0.00000  Uiso   1.00
C1227  C     0.80203   0.75745   0.52311   0.00000  Uiso   1.00
C1228  C     0.86514   0.90895   0.97684   0.00000  Uiso   1.00
C1229  C     0.68799   0.79318   0.74024   0.00000  Uiso   1.00
C1230  C     0.97868   0.87349   0.75965   0.00000  Uiso   1.00
C1231  C     0.97870   0.79317   0.74031   0.00000  Uiso   1.00
C1232  C     0.68797   0.87351   0.75958   0.00000  Uiso   1.00
C1233  C     0.95752   0.83332   0.75001   0.00000  Uiso   1.00
C1234  C     0.70914   0.83335   0.74990   0.00000  Uiso   1.00
C1235  C     0.85726   0.69060   0.77970   0.00000  Uiso   1.00
C1236  C     0.80938   0.97607   0.72033   0.00000  Uiso   1.00
C1237  C     0.80938   0.69072   0.72032   0.00000  Uiso   1.00
C1238  C     0.85727   0.97594   0.77970   0.00000  Uiso   1.00
C1239  C     0.83335   0.83336   0.66332   0.00000  Uiso   1.00
C1240  C     0.83335   0.83330   0.83666   0.00000  Uiso   1.00
C1241  C     0.84956   0.87058   0.90715   0.00000  Uiso   1.00
C1242  C     0.81838   0.79545   0.59275   0.00000  Uiso   1.00
C1243  C     0.83331   0.83331   0.88448   0.00000  Uiso   1.00
C1244  C     0.83327   0.83340   0.61545   0.00000  Uiso   1.00
C1245  C     0.81698   0.79617   0.90731   0.00000  Uiso   1.00
C1246  C     0.84815   0.87128   0.59258   0.00000  Uiso   1.00
C1247  C     0.81696   0.79585   0.95348   0.00000  Uiso   1.00
C1248  C     0.84835   0.87149   0.54642   0.00000  Uiso   1.00
C1249  C     0.83276   0.83371   0.97672   0.00000  Uiso   1.00
C1250  C     0.83271   0.83354   0.52318   0.00000  Uiso   1.00
C1251  C     0.84921   0.87140   0.95345   0.00000  Uiso   1.00
C1252  C     0.81763   0.79517   0.54646   0.00000  Uiso   1.00
C1253  C     0.80187   0.75807   0.97656   0.00000  Uiso   1.00
C1254  C     0.86459   0.90872   0.52333   0.00000  Uiso   1.00
H1255  H     0.86251   0.89877   0.88852   0.00000  Uiso   1.00
H1256  H     0.80672   0.76654   0.61132   0.00000  Uiso   1.00
H1257  H     0.80407   0.76770   0.88909   0.00000  Uiso   1.00
H1258  H     0.86016   0.90028   0.61074   0.00000  Uiso   1.00
H1259  H     0.79055   0.72870   0.95856   0.00000  Uiso   1.00
H1260  H     0.87749   0.93735   0.54128   0.00000  Uiso   1.00
H1261  H     0.70424   0.76202   0.73237   0.00000  Uiso   1.00
H1262  H     0.96243   0.90466   0.76751   0.00000  Uiso   1.00
H1263  H     0.96245   0.76199   0.73250   0.00000  Uiso   1.00
H1264  H     0.70422   0.90469   0.76739   0.00000  Uiso   1.00
H1265  H     0.87639   0.70875   0.80343   0.00000  Uiso   1.00
H1266  H     0.79022   0.95793   0.69662   0.00000  Uiso   1.00
H1267  H     0.79023   0.70897   0.69661   0.00000  Uiso   1.00
H1268  H     0.87641   0.95769   0.80341   0.00000  Uiso   1.00
N1269  N     0.83333   0.95240   0.75000   0.00000  Uiso   1.00
N1270  N     0.83333   0.71427   0.75000   0.00000  Uiso   1.00
O1271  O     0.77226   0.87154   0.74999   0.00000  Uiso   1.00
O1272  O     0.89441   0.79513   0.75001   0.00000  Uiso   1.00
O1273  O     0.89441   0.87154   0.75001   0.00000  Uiso   1.00
O1274  O     0.77226   0.79513   0.74999   0.00000  Uiso   1.00
O1275  O     0.83333   0.87156   0.68393   0.00000  Uiso   1.00
O1276  O     0.83334   0.79511   0.81608   0.00000  Uiso   1.00
O1277  O     0.83334   0.87156   0.81607   0.00000  Uiso   1.00
O1278  O     0.83333   0.79511   0.68393   0.00000  Uiso   1.00
Zn1279 Zn    0.83333   0.88437   0.75000   0.00000  Uiso   1.00
Zn1280 Zn    0.83333   0.78229   0.75000   0.00000  Uiso   1.00
O1281  O     0.79030   0.71855   0.54566   0.00000  Uiso   1.00
C1282  C     0.74647   0.71659   0.54724   0.00000  Uiso   1.00
H1283  H     0.73326   0.71166   0.51321   0.00000  Uiso   1.00
H1284  H     0.73322   0.74803   0.56223   0.00000  Uiso   1.00
C1285  C     0.73354   0.67659   0.57617   0.00000  Uiso   1.00
H1286  H     0.74592   0.68083   0.61055   0.00000  Uiso   1.00
H1287  H     0.69907   0.67456   0.57769   0.00000  Uiso   1.00
H1288  H     0.74584   0.97790   0.56186   0.00000  Uiso   1.00
O1289  O     0.88487   0.94391   0.95458   0.00000  Uiso   1.00
C1290  C     0.85599   0.97910   0.94700   0.00000  Uiso   1.00
H1291  H     0.84773   0.99599   0.97901   0.00000  Uiso   1.00
H1292  H     0.82710   0.96632   0.93064   0.00000  Uiso   1.00
C1293  C     0.87567   0.68057   0.91605   0.00000  Uiso   1.00
H1294  H     0.88589   0.99731   0.88466   0.00000  Uiso   1.00
H1295  H     0.85273   0.70725   0.90761   0.00000  Uiso   1.00
H1296  H     0.90297   0.69646   0.93253   0.00000  Uiso   1.00
loop_
_geom_bond_atom_site_label_1
_geom_bond_atom_site_label_2
_geom_bond_distance
_geom_bond_site_symmetry_2
_ccdc_geom_bond_type
C1     O50     1.281   .     A
C1     O47     1.281   .     A
C1     C10     1.419   .     S
C2     O49     1.281   .     A
C2     O48     1.281   .     A
C2     C9      1.419   .     S
C3     O57     1.383   .     S
C3     C28     1.408   .     A
C3     C677    1.394   1_554 S
C4     C27     1.408   .     A
C4     O65     1.382   .     S
C4     C678    1.393   .     S
C5     H37     1.084   .     S
C5     C10     1.397   .     A
C5     C151    1.370   1_455 S
C6     H38     1.084   .     S
C6     C9      1.397   .     A
C6     C80     1.370   .     S
C7     C9      1.397   .     A
C7     H39     1.084   .     S
C7     C77     1.370   .     S
C8     H40     1.084   .     S
C8     C10     1.397   .     A
C8     C150    1.370   1_455 S
C11    H41     1.082   .     S
C11    N46     1.366   .     A
C11    C446    1.416   1_545 S
C12    N45     1.366   .     A
C12    H42     1.082   .     S
C12    C229    1.415   .     S
C13    H43     1.082   .     S
C13    N46     1.366   .     A
C13    C444    1.415   1_545 S
C14    H44     1.082   .     S
C14    N45     1.366   .     A
C14    C227    1.416   .     S
C15    O51     1.286   .     A
C15    O54     1.285   .     A
C15    C20     1.434   .     S
C16    O52     1.285   .     A
C16    C19     1.433   .     S
C16    O53     1.285   .     A
C17    H31     1.084   .     S
C17    C19     1.394   .     A
C17    C27     1.387   .     A
C18    H32     1.084   .     S
C18    C28     1.387   .     A
C18    C20     1.395   .     A
C19    C21     1.394   .     A
C20    C22     1.395   .     A
C21    C23     1.383   .     A
C21    H33     1.085   .     S
C22    C24     1.383   .     A
C22    H34     1.085   .     S
C23    C25     1.411   .     A
C23    C29     1.398   .     A
C24    C26     1.412   .     A
C24    C30     1.398   .     A
C25    C27     1.414   .     A
C25    C674    1.392   .     S
C26    C28     1.415   .     A
C26    C673    1.392   1_554 S
C29    H35     1.084   .     S
C29    C651    1.394   .     S
C30    H36     1.084   .     S
C30    C652    1.393   1_554 S
N45    Zn55    2.007   .     S
N46    Zn56    2.007   .     S
O47    Zn55    1.999   .     S
O48    Zn56    1.999   .     S
O49    Zn55    1.999   .     S
O50    Zn56    1.999   .     S
O51    Zn55    2.016   .     S
O52    Zn56    2.016   .     S
O53    Zn55    2.014   .     S
O54    Zn56    2.014   .     S
O57    C58     1.411   .     S
C58    C61     1.521   .     S
C58    H59     1.114   .     S
C58    H60     1.115   .     S
C61    H63     1.110   .     S
C61    H62     1.111   .     S
C61    H496    1.111   1_545 S
H64    C277    1.111   .     S
O65    C66     1.410   .     S
C66    H68     1.116   .     S
C66    H67     1.114   .     S
C66    C285    1.521   .     S
C69    H72     1.111   .     S
C69    H71     1.107   .     S
C69    C498    1.521   1_545 S
C69    H502    1.111   1_545 S
H70    C285    1.111   .     S
C73    O122    1.281   .     A
C73    O119    1.281   .     A
C73    C82     1.419   .     S
C74    O121    1.281   .     A
C74    O120    1.281   .     A
C74    C81     1.419   .     S
C75    O129    1.383   .     S
C75    C100    1.408   .     A
C75    C749    1.394   1_554 S
C76    C99     1.408   .     A
C76    O137    1.382   .     S
C76    C750    1.393   .     S
C77    H109    1.084   .     S
C77    C82     1.397   .     A
C78    H110    1.084   .     S
C78    C81     1.397   .     A
C78    C152    1.370   .     S
C79    C81     1.397   .     A
C79    H111    1.084   .     S
C79    C149    1.370   .     S
C80    H112    1.084   .     S
C80    C82     1.397   .     A
C83    H113    1.082   .     S
C83    N118    1.366   .     A
C83    C518    1.416   1_545 S
C84    N117    1.366   .     A
C84    H114    1.082   .     S
C84    C301    1.415   .     S
C85    H115    1.082   .     S
C85    N118    1.366   .     A
C85    C516    1.415   1_545 S
C86    H116    1.082   .     S
C86    N117    1.366   .     A
C86    C299    1.416   .     S
C87    O123    1.286   .     A
C87    O126    1.285   .     A
C87    C92     1.434   .     S
C88    O124    1.285   .     A
C88    C91     1.433   .     S
C88    O125    1.285   .     A
C89    H103    1.084   .     S
C89    C91     1.394   .     A
C89    C99     1.387   .     A
C90    H104    1.084   .     S
C90    C100    1.387   .     A
C90    C92     1.395   .     A
C91    C93     1.394   .     A
C92    C94     1.395   .     A
C93    C95     1.383   .     A
C93    H105    1.085   .     S
C94    C96     1.383   .     A
C94    H106    1.085   .     S
C95    C97     1.411   .     A
C95    C101    1.398   .     A
C96    C98     1.412   .     A
C96    C102    1.398   .     A
C97    C99     1.414   .     A
C97    C746    1.392   .     S
C98    C100    1.415   .     A
C98    C745    1.392   1_554 S
C101   H107    1.084   .     S
C101   C723    1.394   .     S
C102   H108    1.084   .     S
C102   C724    1.393   1_554 S
N117   Zn127   2.007   .     S
N118   Zn128   2.007   .     S
O119   Zn127   1.999   .     S
O120   Zn128   1.999   .     S
O121   Zn127   1.999   .     S
O122   Zn128   1.999   .     S
O123   Zn127   2.016   .     S
O124   Zn128   2.016   .     S
O125   Zn127   2.014   .     S
O126   Zn128   2.014   .     S
O129   C130    1.411   .     S
C130   C133    1.521   .     S
C130   H131    1.114   .     S
C130   H132    1.115   .     S
C133   H135    1.110   .     S
C133   H134    1.111   .     S
C133   H568    1.111   1_545 S
H136   C349    1.111   .     S
O137   C138    1.410   .     S
C138   H140    1.116   .     S
C138   H139    1.114   .     S
C138   C357    1.521   .     S
C141   H144    1.111   .     S
C141   H143    1.107   .     S
C141   C570    1.521   1_545 S
C141   H574    1.111   1_545 S
H142   C357    1.111   .     S
C145   O194    1.281   .     A
C145   O191    1.281   .     A
C145   C154    1.419   .     S
C146   O193    1.281   .     A
C146   O192    1.281   .     A
C146   C153    1.419   .     S
C147   O201    1.383   .     S
C147   C172    1.408   .     A
C147   C821    1.394   1_554 S
C148   C171    1.408   .     A
C148   O209    1.382   .     S
C148   C822    1.393   .     S
C149   H181    1.084   .     S
C149   C154    1.397   .     A
C150   H182    1.084   .     S
C150   C153    1.397   .     A
C150   C8      1.370   1_655 S
C151   C153    1.397   .     A
C151   H183    1.084   .     S
C151   C5      1.370   1_655 S
C152   H184    1.084   .     S
C152   C154    1.397   .     A
C155   H185    1.082   .     S
C155   N190    1.366   .     A
C155   C590    1.416   1_545 S
C156   N189    1.366   .     A
C156   H186    1.082   .     S
C156   C373    1.415   .     S
C157   H187    1.082   .     S
C157   N190    1.366   .     A
C157   C588    1.415   1_545 S
C158   H188    1.082   .     S
C158   N189    1.366   .     A
C158   C371    1.416   .     S
C159   O195    1.286   .     A
C159   O198    1.285   .     A
C159   C164    1.434   .     S
C160   O196    1.285   .     A
C160   C163    1.433   .     S
C160   O197    1.285   .     A
C161   H175    1.084   .     S
C161   C163    1.394   .     A
C161   C171    1.387   .     A
C162   H176    1.084   .     S
C162   C172    1.387   .     A
C162   C164    1.395   .     A
C163   C165    1.394   .     A
C164   C166    1.395   .     A
C165   C167    1.383   .     A
C165   H177    1.085   .     S
C166   C168    1.383   .     A
C166   H178    1.085   .     S
C167   C169    1.411   .     A
C167   C173    1.398   .     A
C168   C170    1.412   .     A
C168   C174    1.398   .     A
C169   C171    1.414   .     A
C169   C818    1.392   .     S
C170   C172    1.415   .     A
C170   C817    1.392   1_554 S
C173   H179    1.084   .     S
C173   C795    1.394   .     S
C174   H180    1.084   .     S
C174   C796    1.393   1_554 S
N189   Zn199   2.007   .     S
N190   Zn200   2.007   .     S
O191   Zn199   1.999   .     S
O192   Zn200   1.999   .     S
O193   Zn199   1.999   .     S
O194   Zn200   1.999   .     S
O195   Zn199   2.016   .     S
O196   Zn200   2.016   .     S
O197   Zn199   2.014   .     S
O198   Zn200   2.014   .     S
O201   C202    1.411   .     S
C202   C205    1.521   .     S
C202   H203    1.114   .     S
C202   H204    1.115   .     S
C205   H207    1.110   .     S
C205   H206    1.111   .     S
C205   H640    1.111   1_545 S
H208   C421    1.111   .     S
O209   C210    1.410   .     S
C210   H212    1.116   .     S
C210   H211    1.114   .     S
C210   C429    1.521   .     S
C213   H216    1.111   .     S
C213   H215    1.107   .     S
C213   C642    1.521   1_545 S
C213   H646    1.111   1_545 S
H214   C429    1.111   .     S
C217   O266    1.281   .     A
C217   O263    1.281   .     A
C217   C226    1.419   .     S
C218   O265    1.281   .     A
C218   O264    1.281   .     A
C218   C225    1.419   .     S
C219   O273    1.383   .     S
C219   C244    1.408   .     A
C219   C893    1.394   1_554 S
C220   C243    1.408   .     A
C220   O281    1.382   .     S
C220   C894    1.393   .     S
C221   H253    1.084   .     S
C221   C226    1.397   .     A
C221   C367    1.370   1_455 S
C222   H254    1.084   .     S
C222   C225    1.397   .     A
C222   C296    1.370   .     S
C223   C225    1.397   .     A
C223   H255    1.084   .     S
C223   C293    1.370   .     S
C224   H256    1.084   .     S
C224   C226    1.397   .     A
C224   C366    1.370   1_455 S
C227   H257    1.082   .     S
C227   N262    1.366   .     A
C228   N261    1.366   .     A
C228   H258    1.082   .     S
C228   C445    1.415   .     S
C229   H259    1.082   .     S
C229   N262    1.366   .     A
C230   H260    1.082   .     S
C230   N261    1.366   .     A
C230   C443    1.416   .     S
C231   O267    1.286   .     A
C231   O270    1.285   .     A
C231   C236    1.434   .     S
C232   O268    1.285   .     A
C232   C235    1.433   .     S
C232   O269    1.285   .     A
C233   H247    1.084   .     S
C233   C235    1.394   .     A
C233   C243    1.387   .     A
C234   H248    1.084   .     S
C234   C244    1.387   .     A
C234   C236    1.395   .     A
C235   C237    1.394   .     A
C236   C238    1.395   .     A
C237   C239    1.383   .     A
C237   H249    1.085   .     S
C238   C240    1.383   .     A
C238   H250    1.085   .     S
C239   C241    1.411   .     A
C239   C245    1.398   .     A
C240   C242    1.412   .     A
C240   C246    1.398   .     A
C241   C243    1.414   .     A
C241   C890    1.392   .     S
C242   C244    1.415   .     A
C242   C889    1.392   1_554 S
C245   H251    1.084   .     S
C245   C867    1.394   .     S
C246   H252    1.084   .     S
C246   C868    1.393   1_554 S
N261   Zn271   2.007   .     S
N262   Zn272   2.007   .     S
O263   Zn271   1.999   .     S
O264   Zn272   1.999   .     S
O265   Zn271   1.999   .     S
O266   Zn272   1.999   .     S
O267   Zn271   2.016   .     S
O268   Zn272   2.016   .     S
O269   Zn271   2.014   .     S
O270   Zn272   2.014   .     S
O273   C274    1.411   .     S
C274   C277    1.521   .     S
C274   H275    1.114   .     S
C274   H276    1.115   .     S
C277   H279    1.110   .     S
C277   H278    1.111   .     S
H280   C493    1.111   .     S
O281   C282    1.410   .     S
C282   H284    1.116   .     S
C282   H283    1.114   .     S
C282   C501    1.521   .     S
C285   H288    1.111   .     S
C285   H287    1.107   .     S
H286   C501    1.111   .     S
C289   O338    1.281   .     A
C289   O335    1.281   .     A
C289   C298    1.419   .     S
C290   O337    1.281   .     A
C290   O336    1.281   .     A
C290   C297    1.419   .     S
C291   O345    1.383   .     S
C291   C316    1.408   .     A
C291   C965    1.394   1_554 S
C292   C315    1.408   .     A
C292   O353    1.382   .     S
C292   C966    1.393   .     S
C293   H325    1.084   .     S
C293   C298    1.397   .     A
C294   H326    1.084   .     S
C294   C297    1.397   .     A
C294   C368    1.370   .     S
C295   C297    1.397   .     A
C295   H327    1.084   .     S
C295   C365    1.370   .     S
C296   H328    1.084   .     S
C296   C298    1.397   .     A
C299   H329    1.082   .     S
C299   N334    1.366   .     A
C300   N333    1.366   .     A
C300   H330    1.082   .     S
C300   C517    1.415   .     S
C301   H331    1.082   .     S
C301   N334    1.366   .     A
C302   H332    1.082   .     S
C302   N333    1.366   .     A
C302   C515    1.416   .     S
C303   O339    1.286   .     A
C303   O342    1.285   .     A
C303   C308    1.434   .     S
C304   O340    1.285   .     A
C304   C307    1.433   .     S
C304   O341    1.285   .     A
C305   H319    1.084   .     S
C305   C307    1.394   .     A
C305   C315    1.387   .     A
C306   H320    1.084   .     S
C306   C316    1.387   .     A
C306   C308    1.395   .     A
C307   C309    1.394   .     A
C308   C310    1.395   .     A
C309   C311    1.383   .     A
C309   H321    1.085   .     S
C310   C312    1.383   .     A
C310   H322    1.085   .     S
C311   C313    1.411   .     A
C311   C317    1.398   .     A
C312   C314    1.412   .     A
C312   C318    1.398   .     A
C313   C315    1.414   .     A
C313   C962    1.392   .     S
C314   C316    1.415   .     A
C314   C961    1.392   1_554 S
C317   H323    1.084   .     S
C317   C939    1.394   .     S
C318   H324    1.084   .     S
C318   C940    1.393   1_554 S
N333   Zn343   2.007   .     S
N334   Zn344   2.007   .     S
O335   Zn343   1.999   .     S
O336   Zn344   1.999   .     S
O337   Zn343   1.999   .     S
O338   Zn344   1.999   .     S
O339   Zn343   2.016   .     S
O340   Zn344   2.016   .     S
O341   Zn343   2.014   .     S
O342   Zn344   2.014   .     S
O345   C346    1.411   .     S
C346   C349    1.521   .     S
C346   H347    1.114   .     S
C346   H348    1.115   .     S
C349   H351    1.110   .     S
C349   H350    1.111   .     S
H352   C565    1.111   .     S
O353   C354    1.410   .     S
C354   H356    1.116   .     S
C354   H355    1.114   .     S
C354   C573    1.521   .     S
C357   H360    1.111   .     S
C357   H359    1.107   .     S
H358   C573    1.111   .     S
C361   O410    1.281   .     A
C361   O407    1.281   .     A
C361   C370    1.419   .     S
C362   O409    1.281   .     A
C362   O408    1.281   .     A
C362   C369    1.419   .     S
C363   O417    1.383   .     S
C363   C388    1.408   .     A
C363   C1037   1.394   1_554 S
C364   C387    1.408   .     A
C364   O425    1.382   .     S
C364   C1038   1.393   .     S
C365   H397    1.084   .     S
C365   C370    1.397   .     A
C366   H398    1.084   .     S
C366   C369    1.397   .     A
C366   C224    1.370   1_655 S
C367   C369    1.397   .     A
C367   H399    1.084   .     S
C367   C221    1.370   1_655 S
C368   H400    1.084   .     S
C368   C370    1.397   .     A
C371   H401    1.082   .     S
C371   N406    1.366   .     A
C372   N405    1.366   .     A
C372   H402    1.082   .     S
C372   C589    1.415   .     S
C373   H403    1.082   .     S
C373   N406    1.366   .     A
C374   H404    1.082   .     S
C374   N405    1.366   .     A
C374   C587    1.416   .     S
C375   O411    1.286   .     A
C375   O414    1.285   .     A
C375   C380    1.434   .     S
C376   O412    1.285   .     A
C376   C379    1.433   .     S
C376   O413    1.285   .     A
C377   H391    1.084   .     S
C377   C379    1.394   .     A
C377   C387    1.387   .     A
C378   H392    1.084   .     S
C378   C388    1.387   .     A
C378   C380    1.395   .     A
C379   C381    1.394   .     A
C380   C382    1.395   .     A
C381   C383    1.383   .     A
C381   H393    1.085   .     S
C382   C384    1.383   .     A
C382   H394    1.085   .     S
C383   C385    1.411   .     A
C383   C389    1.398   .     A
C384   C386    1.412   .     A
C384   C390    1.398   .     A
C385   C387    1.414   .     A
C385   C1034   1.392   .     S
C386   C388    1.415   .     A
C386   C1033   1.392   1_554 S
C389   H395    1.084   .     S
C389   C1011   1.394   .     S
C390   H396    1.084   .     S
C390   C1012   1.393   1_554 S
N405   Zn415   2.007   .     S
N406   Zn416   2.007   .     S
O407   Zn415   1.999   .     S
O408   Zn416   1.999   .     S
O409   Zn415   1.999   .     S
O410   Zn416   1.999   .     S
O411   Zn415   2.016   .     S
O412   Zn416   2.016   .     S
O413   Zn415   2.014   .     S
O414   Zn416   2.014   .     S
O417   C418    1.411   .     S
C418   C421    1.521   .     S
C418   H419    1.114   .     S
C418   H420    1.115   .     S
C421   H423    1.110   .     S
C421   H422    1.111   .     S
H424   C637    1.111   .     S
O425   C426    1.410   .     S
C426   H428    1.116   .     S
C426   H427    1.114   .     S
C426   C645    1.521   .     S
C429   H432    1.111   .     S
C429   H431    1.107   .     S
H430   C645    1.111   .     S
C433   O482    1.281   .     A
C433   O479    1.281   .     A
C433   C442    1.419   .     S
C434   O481    1.281   .     A
C434   O480    1.281   .     A
C434   C441    1.419   .     S
C435   O489    1.383   .     S
C435   C460    1.408   .     A
C435   C1109   1.394   1_554 S
C436   C459    1.408   .     A
C436   O497    1.382   .     S
C436   C1110   1.393   .     S
C437   H469    1.084   .     S
C437   C442    1.397   .     A
C437   C583    1.370   1_455 S
C438   H470    1.084   .     S
C438   C441    1.397   .     A
C438   C512    1.370   .     S
C439   C441    1.397   .     A
C439   H471    1.084   .     S
C439   C509    1.370   .     S
C440   H472    1.084   .     S
C440   C442    1.397   .     A
C440   C582    1.370   1_455 S
C443   H473    1.082   .     S
C443   N478    1.366   .     A
C444   N477    1.366   .     A
C444   H474    1.082   .     S
C444   C13     1.415   1_565 S
C445   H475    1.082   .     S
C445   N478    1.366   .     A
C446   H476    1.082   .     S
C446   N477    1.366   .     A
C446   C11     1.416   1_565 S
C447   O483    1.286   .     A
C447   O486    1.285   .     A
C447   C452    1.434   .     S
C448   O484    1.285   .     A
C448   C451    1.433   .     S
C448   O485    1.285   .     A
C449   H463    1.084   .     S
C449   C451    1.394   .     A
C449   C459    1.387   .     A
C450   H464    1.084   .     S
C450   C460    1.387   .     A
C450   C452    1.395   .     A
C451   C453    1.394   .     A
C452   C454    1.395   .     A
C453   C455    1.383   .     A
C453   H465    1.085   .     S
C454   C456    1.383   .     A
C454   H466    1.085   .     S
C455   C457    1.411   .     A
C455   C461    1.398   .     A
C456   C458    1.412   .     A
C456   C462    1.398   .     A
C457   C459    1.414   .     A
C457   C1106   1.392   .     S
C458   C460    1.415   .     A
C458   C1105   1.392   1_554 S
C461   H467    1.084   .     S
C461   C1083   1.394   .     S
C462   H468    1.084   .     S
C462   C1084   1.393   1_554 S
N477   Zn487   2.007   .     S
N478   Zn488   2.007   .     S
O479   Zn487   1.999   .     S
O480   Zn488   1.999   .     S
O481   Zn487   1.999   .     S
O482   Zn488   1.999   .     S
O483   Zn487   2.016   .     S
O484   Zn488   2.016   .     S
O485   Zn487   2.014   .     S
O486   Zn488   2.014   .     S
O489   C490    1.411   .     S
C490   C493    1.521   .     S
C490   H491    1.114   .     S
C490   H492    1.115   .     S
C493   H495    1.110   .     S
C493   H494    1.111   .     S
H496   C61     1.111   1_565 S
O497   C498    1.410   .     S
C498   H500    1.116   .     S
C498   H499    1.114   .     S
C498   C69     1.521   1_565 S
C501   H504    1.111   .     S
C501   H503    1.107   .     S
H502   C69     1.111   1_565 S
C505   O554    1.281   .     A
C505   O551    1.281   .     A
C505   C514    1.419   .     S
C506   O553    1.281   .     A
C506   O552    1.281   .     A
C506   C513    1.419   .     S
C507   O561    1.383   .     S
C507   C532    1.408   .     A
C507   C1181   1.394   1_554 S
C508   C531    1.408   .     A
C508   O569    1.382   .     S
C508   C1182   1.393   .     S
C509   H541    1.084   .     S
C509   C514    1.397   .     A
C510   H542    1.084   .     S
C510   C513    1.397   .     A
C510   C584    1.370   .     S
C511   C513    1.397   .     A
C511   H543    1.084   .     S
C511   C581    1.370   .     S
C512   H544    1.084   .     S
C512   C514    1.397   .     A
C515   H545    1.082   .     S
C515   N550    1.366   .     A
C516   N549    1.366   .     A
C516   H546    1.082   .     S
C516   C85     1.415   1_565 S
C517   H547    1.082   .     S
C517   N550    1.366   .     A
C518   H548    1.082   .     S
C518   N549    1.366   .     A
C518   C83     1.416   1_565 S
C519   O555    1.286   .     A
C519   O558    1.285   .     A
C519   C524    1.434   .     S
C520   O556    1.285   .     A
C520   C523    1.433   .     S
C520   O557    1.285   .     A
C521   H535    1.084   .     S
C521   C523    1.394   .     A
C521   C531    1.387   .     A
C522   H536    1.084   .     S
C522   C532    1.387   .     A
C522   C524    1.395   .     A
C523   C525    1.394   .     A
C524   C526    1.395   .     A
C525   C527    1.383   .     A
C525   H537    1.085   .     S
C526   C528    1.383   .     A
C526   H538    1.085   .     S
C527   C529    1.411   .     A
C527   C533    1.398   .     A
C528   C530    1.412   .     A
C528   C534    1.398   .     A
C529   C531    1.414   .     A
C529   C1178   1.392   .     S
C530   C532    1.415   .     A
C530   C1177   1.392   1_554 S
C533   H539    1.084   .     S
C533   C1155   1.394   .     S
C534   H540    1.084   .     S
C534   C1156   1.393   1_554 S
N549   Zn559   2.007   .     S
N550   Zn560   2.007   .     S
O551   Zn559   1.999   .     S
O552   Zn560   1.999   .     S
O553   Zn559   1.999   .     S
O554   Zn560   1.999   .     S
O555   Zn559   2.016   .     S
O556   Zn560   2.016   .     S
O557   Zn559   2.014   .     S
O558   Zn560   2.014   .     S
O561   C562    1.411   .     S
C562   C565    1.521   .     S
C562   H563    1.114   .     S
C562   H564    1.115   .     S
C565   H567    1.110   .     S
C565   H566    1.111   .     S
H568   C133    1.111   1_565 S
O569   C570    1.410   .     S
C570   H572    1.116   .     S
C570   H571    1.114   .     S
C570   C141    1.521   1_565 S
C573   H576    1.111   .     S
C573   H575    1.107   .     S
H574   C141    1.111   1_565 S
C577   O626    1.281   .     A
C577   O623    1.281   .     A
C577   C586    1.419   .     S
C578   O625    1.281   .     A
C578   O624    1.281   .     A
C578   C585    1.419   .     S
C579   O633    1.383   .     S
C579   C604    1.408   .     A
C579   C1253   1.394   1_554 S
C580   C603    1.408   .     A
C580   O641    1.382   .     S
C580   C1254   1.393   .     S
C581   H613    1.084   .     S
C581   C586    1.397   .     A
C582   H614    1.084   .     S
C582   C585    1.397   .     A
C582   C440    1.370   1_655 S
C583   C585    1.397   .     A
C583   H615    1.084   .     S
C583   C437    1.370   1_655 S
C584   H616    1.084   .     S
C584   C586    1.397   .     A
C587   H617    1.082   .     S
C587   N622    1.366   .     A
C588   N621    1.366   .     A
C588   H618    1.082   .     S
C588   C157    1.415   1_565 S
C589   H619    1.082   .     S
C589   N622    1.366   .     A
C590   H620    1.082   .     S
C590   N621    1.366   .     A
C590   C155    1.416   1_565 S
C591   O627    1.286   .     A
C591   O630    1.285   .     A
C591   C596    1.434   .     S
C592   O628    1.285   .     A
C592   C595    1.433   .     S
C592   O629    1.285   .     A
C593   H607    1.084   .     S
C593   C595    1.394   .     A
C593   C603    1.387   .     A
C594   H608    1.084   .     S
C594   C604    1.387   .     A
C594   C596    1.395   .     A
C595   C597    1.394   .     A
C596   C598    1.395   .     A
C597   C599    1.383   .     A
C597   H609    1.085   .     S
C598   C600    1.383   .     A
C598   H610    1.085   .     S
C599   C601    1.411   .     A
C599   C605    1.398   .     A
C600   C602    1.412   .     A
C600   C606    1.398   .     A
C601   C603    1.414   .     A
C601   C1250   1.392   .     S
C602   C604    1.415   .     A
C602   C1249   1.392   1_554 S
C605   H611    1.084   .     S
C605   C1227   1.394   .     S
C606   H612    1.084   .     S
C606   C1228   1.393   1_554 S
N621   Zn631   2.007   .     S
N622   Zn632   2.007   .     S
O623   Zn631   1.999   .     S
O624   Zn632   1.999   .     S
O625   Zn631   1.999   .     S
O626   Zn632   1.999   .     S
O627   Zn631   2.016   .     S
O628   Zn632   2.016   .     S
O629   Zn631   2.014   .     S
O630   Zn632   2.014   .     S
O633   C634    1.411   .     S
C634   C637    1.521   .     S
C634   H635    1.114   .     S
C634   H636    1.115   .     S
C637   H639    1.110   .     S
C637   H638    1.111   .     S
H640   C205    1.111   1_565 S
O641   C642    1.410   .     S
C642   H644    1.116   .     S
C642   H643    1.114   .     S
C642   C213    1.521   1_565 S
C645   H648    1.111   .     S
C645   H647    1.107   .     S
H646   C213    1.111   1_565 S
C649   O698    1.281   .     A
C649   O695    1.281   .     A
C649   C658    1.419   .     S
C650   O697    1.281   .     A
C650   O696    1.281   .     A
C650   C657    1.419   .     S
C651   O705    1.383   .     S
C651   C676    1.408   .     A
C652   C675    1.408   .     A
C652   O713    1.382   .     S
C652   C30     1.393   1_556 S
C653   H685    1.084   .     S
C653   C658    1.397   .     A
C653   C799    1.370   1_455 S
C654   H686    1.084   .     S
C654   C657    1.397   .     A
C654   C728    1.370   .     S
C655   C657    1.397   .     A
C655   H687    1.084   .     S
C655   C725    1.370   .     S
C656   H688    1.084   .     S
C656   C658    1.397   .     A
C656   C798    1.370   1_455 S
C659   H689    1.082   .     S
C659   N694    1.366   .     A
C659   C1094   1.416   1_545 S
C660   N693    1.366   .     A
C660   H690    1.082   .     S
C660   C877    1.415   .     S
C661   H691    1.082   .     S
C661   N694    1.366   .     A
C661   C1092   1.415   1_545 S
C662   H692    1.082   .     S
C662   N693    1.366   .     A
C662   C875    1.416   .     S
C663   O699    1.286   .     A
C663   O702    1.285   .     A
C663   C668    1.434   .     S
C664   O700    1.285   .     A
C664   C667    1.433   .     S
C664   O701    1.285   .     A
C665   H679    1.084   .     S
C665   C667    1.394   .     A
C665   C675    1.387   .     A
C666   H680    1.084   .     S
C666   C676    1.387   .     A
C666   C668    1.395   .     A
C667   C669    1.394   .     A
C668   C670    1.395   .     A
C669   C671    1.383   .     A
C669   H681    1.085   .     S
C670   C672    1.383   .     A
C670   H682    1.085   .     S
C671   C673    1.411   .     A
C671   C677    1.398   .     A
C672   C674    1.412   .     A
C672   C678    1.398   .     A
C673   C675    1.414   .     A
C673   C26     1.392   1_556 S
C674   C676    1.415   .     A
C677   H683    1.084   .     S
C677   C3      1.394   1_556 S
C678   H684    1.084   .     S
N693   Zn703   2.007   .     S
N694   Zn704   2.007   .     S
O695   Zn703   1.999   .     S
O696   Zn704   1.999   .     S
O697   Zn703   1.999   .     S
O698   Zn704   1.999   .     S
O699   Zn703   2.016   .     S
O700   Zn704   2.016   .     S
O701   Zn703   2.014   .     S
O702   Zn704   2.014   .     S
O705   C706    1.411   .     S
C706   C709    1.521   .     S
C706   H707    1.114   .     S
C706   H708    1.115   .     S
C709   H711    1.110   .     S
C709   H710    1.111   .     S
C709   H1144   1.111   1_545 S
H712   C925    1.111   .     S
O713   C714    1.410   .     S
C714   H716    1.116   .     S
C714   H715    1.114   .     S
C714   C933    1.521   .     S
C717   H720    1.111   .     S
C717   H719    1.107   .     S
C717   C1146   1.521   1_545 S
C717   H1150   1.111   1_545 S
H718   C933    1.111   .     S
C721   O770    1.281   .     A
C721   O767    1.281   .     A
C721   C730    1.419   .     S
C722   O769    1.281   .     A
C722   O768    1.281   .     A
C722   C729    1.419   .     S
C723   O777    1.383   .     S
C723   C748    1.408   .     A
C724   C747    1.408   .     A
C724   O785    1.382   .     S
C724   C102    1.393   1_556 S
C725   H757    1.084   .     S
C725   C730    1.397   .     A
C726   H758    1.084   .     S
C726   C729    1.397   .     A
C726   C800    1.370   .     S
C727   C729    1.397   .     A
C727   H759    1.084   .     S
C727   C797    1.370   .     S
C728   H760    1.084   .     S
C728   C730    1.397   .     A
C731   H761    1.082   .     S
C731   N766    1.366   .     A
C731   C1166   1.416   1_545 S
C732   N765    1.366   .     A
C732   H762    1.082   .     S
C732   C949    1.415   .     S
C733   H763    1.082   .     S
C733   N766    1.366   .     A
C733   C1164   1.415   1_545 S
C734   H764    1.082   .     S
C734   N765    1.366   .     A
C734   C947    1.416   .     S
C735   O771    1.286   .     A
C735   O774    1.285   .     A
C735   C740    1.434   .     S
C736   O772    1.285   .     A
C736   C739    1.433   .     S
C736   O773    1.285   .     A
C737   H751    1.084   .     S
C737   C739    1.394   .     A
C737   C747    1.387   .     A
C738   H752    1.084   .     S
C738   C748    1.387   .     A
C738   C740    1.395   .     A
C739   C741    1.394   .     A
C740   C742    1.395   .     A
C741   C743    1.383   .     A
C741   H753    1.085   .     S
C742   C744    1.383   .     A
C742   H754    1.085   .     S
C743   C745    1.411   .     A
C743   C749    1.398   .     A
C744   C746    1.412   .     A
C744   C750    1.398   .     A
C745   C747    1.414   .     A
C745   C98     1.392   1_556 S
C746   C748    1.415   .     A
C749   H755    1.084   .     S
C749   C75     1.394   1_556 S
C750   H756    1.084   .     S
N765   Zn775   2.007   .     S
N766   Zn776   2.007   .     S
O767   Zn775   1.999   .     S
O768   Zn776   1.999   .     S
O769   Zn775   1.999   .     S
O770   Zn776   1.999   .     S
O771   Zn775   2.016   .     S
O772   Zn776   2.016   .     S
O773   Zn775   2.014   .     S
O774   Zn776   2.014   .     S
O777   C778    1.411   .     S
C778   C781    1.521   .     S
C778   H779    1.114   .     S
C778   H780    1.115   .     S
C781   H783    1.110   .     S
C781   H782    1.111   .     S
C781   H1216   1.111   1_545 S
H784   C997    1.111   .     S
O785   C786    1.410   .     S
C786   H788    1.116   .     S
C786   H787    1.114   .     S
C786   C1005   1.521   .     S
C789   H792    1.111   .     S
C789   H791    1.107   .     S
C789   C1218   1.521   1_545 S
C789   H1222   1.111   1_545 S
H790   C1005   1.111   .     S
C793   O842    1.281   .     A
C793   O839    1.281   .     A
C793   C802    1.419   .     S
C794   O841    1.281   .     A
C794   O840    1.281   .     A
C794   C801    1.419   .     S
C795   O849    1.383   .     S
C795   C820    1.408   .     A
C796   C819    1.408   .     A
C796   O857    1.382   .     S
C796   C174    1.393   1_556 S
C797   H829    1.084   .     S
C797   C802    1.397   .     A
C798   H830    1.084   .     S
C798   C801    1.397   .     A
C798   C656    1.370   1_655 S
C799   C801    1.397   .     A
C799   H831    1.084   .     S
C799   C653    1.370   1_655 S
C800   H832    1.084   .     S
C800   C802    1.397   .     A
C803   H833    1.082   .     S
C803   N838    1.366   .     A
C803   C1238   1.416   1_545 S
C804   N837    1.366   .     A
C804   H834    1.082   .     S
C804   C1021   1.415   .     S
C805   H835    1.082   .     S
C805   N838    1.366   .     A
C805   C1236   1.415   1_545 S
C806   H836    1.082   .     S
C806   N837    1.366   .     A
C806   C1019   1.416   .     S
C807   O843    1.286   .     A
C807   O846    1.285   .     A
C807   C812    1.434   .     S
C808   O844    1.285   .     A
C808   C811    1.433   .     S
C808   O845    1.285   .     A
C809   H823    1.084   .     S
C809   C811    1.394   .     A
C809   C819    1.387   .     A
C810   H824    1.084   .     S
C810   C820    1.387   .     A
C810   C812    1.395   .     A
C811   C813    1.394   .     A
C812   C814    1.395   .     A
C813   C815    1.383   .     A
C813   H825    1.085   .     S
C814   C816    1.383   .     A
C814   H826    1.085   .     S
C815   C817    1.411   .     A
C815   C821    1.398   .     A
C816   C818    1.412   .     A
C816   C822    1.398   .     A
C817   C819    1.414   .     A
C817   C170    1.392   1_556 S
C818   C820    1.415   .     A
C821   H827    1.084   .     S
C821   C147    1.394   1_556 S
C822   H828    1.084   .     S
N837   Zn847   2.007   .     S
N838   Zn848   2.007   .     S
O839   Zn847   1.999   .     S
O840   Zn848   1.999   .     S
O841   Zn847   1.999   .     S
O842   Zn848   1.999   .     S
O843   Zn847   2.016   .     S
O844   Zn848   2.016   .     S
O845   Zn847   2.014   .     S
O846   Zn848   2.014   .     S
O849   C850    1.411   .     S
C850   C853    1.521   .     S
C850   H851    1.114   .     S
C850   H852    1.115   .     S
C853   H855    1.110   .     S
C853   H854    1.111   .     S
C853   H1288   1.111   1_545 S
H856   C1069   1.111   .     S
O857   C858    1.410   .     S
C858   H860    1.116   .     S
C858   H859    1.114   .     S
C858   C1077   1.521   .     S
C861   H864    1.111   .     S
C861   H863    1.107   .     S
C861   C1290   1.521   1_545 S
C861   H1294   1.111   1_545 S
H862   C1077   1.111   .     S
C865   O914    1.281   .     A
C865   O911    1.281   .     A
C865   C874    1.419   .     S
C866   O913    1.281   .     A
C866   O912    1.281   .     A
C866   C873    1.419   .     S
C867   O921    1.383   .     S
C867   C892    1.408   .     A
C868   C891    1.408   .     A
C868   O929    1.382   .     S
C868   C246    1.393   1_556 S
C869   H901    1.084   .     S
C869   C874    1.397   .     A
C869   C1015   1.370   1_455 S
C870   H902    1.084   .     S
C870   C873    1.397   .     A
C870   C944    1.370   .     S
C871   C873    1.397   .     A
C871   H903    1.084   .     S
C871   C941    1.370   .     S
C872   H904    1.084   .     S
C872   C874    1.397   .     A
C872   C1014   1.370   1_455 S
C875   H905    1.082   .     S
C875   N910    1.366   .     A
C876   N909    1.366   .     A
C876   H906    1.082   .     S
C876   C1093   1.415   .     S
C877   H907    1.082   .     S
C877   N910    1.366   .     A
C878   H908    1.082   .     S
C878   N909    1.366   .     A
C878   C1091   1.416   .     S
C879   O915    1.286   .     A
C879   O918    1.285   .     A
C879   C884    1.434   .     S
C880   O916    1.285   .     A
C880   C883    1.433   .     S
C880   O917    1.285   .     A
C881   H895    1.084   .     S
C881   C883    1.394   .     A
C881   C891    1.387   .     A
C882   H896    1.084   .     S
C882   C892    1.387   .     A
C882   C884    1.395   .     A
C883   C885    1.394   .     A
C884   C886    1.395   .     A
C885   C887    1.383   .     A
C885   H897    1.085   .     S
C886   C888    1.383   .     A
C886   H898    1.085   .     S
C887   C889    1.411   .     A
C887   C893    1.398   .     A
C888   C890    1.412   .     A
C888   C894    1.398   .     A
C889   C891    1.414   .     A
C889   C242    1.392   1_556 S
C890   C892    1.415   .     A
C893   H899    1.084   .     S
C893   C219    1.394   1_556 S
C894   H900    1.084   .     S
N909   Zn919   2.007   .     S
N910   Zn920   2.007   .     S
O911   Zn919   1.999   .     S
O912   Zn920   1.999   .     S
O913   Zn919   1.999   .     S
O914   Zn920   1.999   .     S
O915   Zn919   2.016   .     S
O916   Zn920   2.016   .     S
O917   Zn919   2.014   .     S
O918   Zn920   2.014   .     S
O921   C922    1.411   .     S
C922   C925    1.521   .     S
C922   H923    1.114   .     S
C922   H924    1.115   .     S
C925   H927    1.110   .     S
C925   H926    1.111   .     S
H928   C1141   1.111   .     S
O929   C930    1.410   .     S
C930   H932    1.116   .     S
C930   H931    1.114   .     S
C930   C1149   1.521   .     S
C933   H936    1.111   .     S
C933   H935    1.107   .     S
H934   C1149   1.111   .     S
C937   O986    1.281   .     A
C937   O983    1.281   .     A
C937   C946    1.419   .     S
C938   O985    1.281   .     A
C938   O984    1.281   .     A
C938   C945    1.419   .     S
C939   O993    1.383   .     S
C939   C964    1.408   .     A
C940   C963    1.408   .     A
C940   O1001   1.382   .     S
C940   C318    1.393   1_556 S
C941   H973    1.084   .     S
C941   C946    1.397   .     A
C942   H974    1.084   .     S
C942   C945    1.397   .     A
C942   C1016   1.370   .     S
C943   C945    1.397   .     A
C943   H975    1.084   .     S
C943   C1013   1.370   .     S
C944   H976    1.084   .     S
C944   C946    1.397   .     A
C947   H977    1.082   .     S
C947   N982    1.366   .     A
C948   N981    1.366   .     A
C948   H978    1.082   .     S
C948   C1165   1.415   .     S
C949   H979    1.082   .     S
C949   N982    1.366   .     A
C950   H980    1.082   .     S
C950   N981    1.366   .     A
C950   C1163   1.416   .     S
C951   O987    1.286   .     A
C951   O990    1.285   .     A
C951   C956    1.434   .     S
C952   O988    1.285   .     A
C952   C955    1.433   .     S
C952   O989    1.285   .     A
C953   H967    1.084   .     S
C953   C955    1.394   .     A
C953   C963    1.387   .     A
C954   H968    1.084   .     S
C954   C964    1.387   .     A
C954   C956    1.395   .     A
C955   C957    1.394   .     A
C956   C958    1.395   .     A
C957   C959    1.383   .     A
C957   H969    1.085   .     S
C958   C960    1.383   .     A
C958   H970    1.085   .     S
C959   C961    1.411   .     A
C959   C965    1.398   .     A
C960   C962    1.412   .     A
C960   C966    1.398   .     A
C961   C963    1.414   .     A
C961   C314    1.392   1_556 S
C962   C964    1.415   .     A
C965   H971    1.084   .     S
C965   C291    1.394   1_556 S
C966   H972    1.084   .     S
N981   Zn991   2.007   .     S
N982   Zn992   2.007   .     S
O983   Zn991   1.999   .     S
O984   Zn992   1.999   .     S
O985   Zn991   1.999   .     S
O986   Zn992   1.999   .     S
O987   Zn991   2.016   .     S
O988   Zn992   2.016   .     S
O989   Zn991   2.014   .     S
O990   Zn992   2.014   .     S
O993   C994    1.411   .     S
C994   C997    1.521   .     S
C994   H995    1.114   .     S
C994   H996    1.115   .     S
C997   H999    1.110   .     S
C997   H998    1.111   .     S
H1000  C1213   1.111   .     S
O1001  C1002   1.410   .     S
C1002  H1004   1.116   .     S
C1002  H1003   1.114   .     S
C1002  C1221   1.521   .     S
C1005  H1008   1.111   .     S
C1005  H1007   1.107   .     S
H1006  C1221   1.111   .     S
C1009  O1058   1.281   .     A
C1009  O1055   1.281   .     A
C1009  C1018   1.419   .     S
C1010  O1057   1.281   .     A
C1010  O1056   1.281   .     A
C1010  C1017   1.419   .     S
C1011  O1065   1.383   .     S
C1011  C1036   1.408   .     A
C1012  C1035   1.408   .     A
C1012  O1073   1.382   .     S
C1012  C390    1.393   1_556 S
C1013  H1045   1.084   .     S
C1013  C1018   1.397   .     A
C1014  H1046   1.084   .     S
C1014  C1017   1.397   .     A
C1014  C872    1.370   1_655 S
C1015  C1017   1.397   .     A
C1015  H1047   1.084   .     S
C1015  C869    1.370   1_655 S
C1016  H1048   1.084   .     S
C1016  C1018   1.397   .     A
C1019  H1049   1.082   .     S
C1019  N1054   1.366   .     A
C1020  N1053   1.366   .     A
C1020  H1050   1.082   .     S
C1020  C1237   1.415   .     S
C1021  H1051   1.082   .     S
C1021  N1054   1.366   .     A
C1022  H1052   1.082   .     S
C1022  N1053   1.366   .     A
C1022  C1235   1.416   .     S
C1023  O1059   1.286   .     A
C1023  O1062   1.285   .     A
C1023  C1028   1.434   .     S
C1024  O1060   1.285   .     A
C1024  C1027   1.433   .     S
C1024  O1061   1.285   .     A
C1025  H1039   1.084   .     S
C1025  C1027   1.394   .     A
C1025  C1035   1.387   .     A
C1026  H1040   1.084   .     S
C1026  C1036   1.387   .     A
C1026  C1028   1.395   .     A
C1027  C1029   1.394   .     A
C1028  C1030   1.395   .     A
C1029  C1031   1.383   .     A
C1029  H1041   1.085   .     S
C1030  C1032   1.383   .     A
C1030  H1042   1.085   .     S
C1031  C1033   1.411   .     A
C1031  C1037   1.398   .     A
C1032  C1034   1.412   .     A
C1032  C1038   1.398   .     A
C1033  C1035   1.414   .     A
C1033  C386    1.392   1_556 S
C1034  C1036   1.415   .     A
C1037  H1043   1.084   .     S
C1037  C363    1.394   1_556 S
C1038  H1044   1.084   .     S
N1053  Zn1063  2.007   .     S
N1054  Zn1064  2.007   .     S
O1055  Zn1063  1.999   .     S
O1056  Zn1064  1.999   .     S
O1057  Zn1063  1.999   .     S
O1058  Zn1064  1.999   .     S
O1059  Zn1063  2.016   .     S
O1060  Zn1064  2.016   .     S
O1061  Zn1063  2.014   .     S
O1062  Zn1064  2.014   .     S
O1065  C1066   1.411   .     S
C1066  C1069   1.521   .     S
C1066  H1067   1.114   .     S
C1066  H1068   1.115   .     S
C1069  H1071   1.110   .     S
C1069  H1070   1.111   .     S
H1072  C1285   1.111   .     S
O1073  C1074   1.410   .     S
C1074  H1076   1.116   .     S
C1074  H1075   1.114   .     S
C1074  C1293   1.521   .     S
C1077  H1080   1.111   .     S
C1077  H1079   1.107   .     S
H1078  C1293   1.111   .     S
C1081  O1130   1.281   .     A
C1081  O1127   1.281   .     A
C1081  C1090   1.419   .     S
C1082  O1129   1.281   .     A
C1082  O1128   1.281   .     A
C1082  C1089   1.419   .     S
C1083  O1137   1.383   .     S
C1083  C1108   1.408   .     A
C1084  C1107   1.408   .     A
C1084  O1145   1.382   .     S
C1084  C462    1.393   1_556 S
C1085  H1117   1.084   .     S
C1085  C1090   1.397   .     A
C1085  C1231   1.370   1_455 S
C1086  H1118   1.084   .     S
C1086  C1089   1.397   .     A
C1086  C1160   1.370   .     S
C1087  C1089   1.397   .     A
C1087  H1119   1.084   .     S
C1087  C1157   1.370   .     S
C1088  H1120   1.084   .     S
C1088  C1090   1.397   .     A
C1088  C1230   1.370   1_455 S
C1091  H1121   1.082   .     S
C1091  N1126   1.366   .     A
C1092  N1125   1.366   .     A
C1092  H1122   1.082   .     S
C1092  C661    1.415   1_565 S
C1093  H1123   1.082   .     S
C1093  N1126   1.366   .     A
C1094  H1124   1.082   .     S
C1094  N1125   1.366   .     A
C1094  C659    1.416   1_565 S
C1095  O1131   1.286   .     A
C1095  O1134   1.285   .     A
C1095  C1100   1.434   .     S
C1096  O1132   1.285   .     A
C1096  C1099   1.433   .     S
C1096  O1133   1.285   .     A
C1097  H1111   1.084   .     S
C1097  C1099   1.394   .     A
C1097  C1107   1.387   .     A
C1098  H1112   1.084   .     S
C1098  C1108   1.387   .     A
C1098  C1100   1.395   .     A
C1099  C1101   1.394   .     A
C1100  C1102   1.395   .     A
C1101  C1103   1.383   .     A
C1101  H1113   1.085   .     S
C1102  C1104   1.383   .     A
C1102  H1114   1.085   .     S
C1103  C1105   1.411   .     A
C1103  C1109   1.398   .     A
C1104  C1106   1.412   .     A
C1104  C1110   1.398   .     A
C1105  C1107   1.414   .     A
C1105  C458    1.392   1_556 S
C1106  C1108   1.415   .     A
C1109  H1115   1.084   .     S
C1109  C435    1.394   1_556 S
C1110  H1116   1.084   .     S
N1125  Zn1135  2.007   .     S
N1126  Zn1136  2.007   .     S
O1127  Zn1135  1.999   .     S
O1128  Zn1136  1.999   .     S
O1129  Zn1135  1.999   .     S
O1130  Zn1136  1.999   .     S
O1131  Zn1135  2.016   .     S
O1132  Zn1136  2.016   .     S
O1133  Zn1135  2.014   .     S
O1134  Zn1136  2.014   .     S
O1137  C1138   1.411   .     S
C1138  C1141   1.521   .     S
C1138  H1139   1.114   .     S
C1138  H1140   1.115   .     S
C1141  H1143   1.110   .     S
C1141  H1142   1.111   .     S
H1144  C709    1.111   1_565 S
O1145  C1146   1.410   .     S
C1146  H1148   1.116   .     S
C1146  H1147   1.114   .     S
C1146  C717    1.521   1_565 S
C1149  H1152   1.111   .     S
C1149  H1151   1.107   .     S
H1150  C717    1.111   1_565 S
C1153  O1202   1.281   .     A
C1153  O1199   1.281   .     A
C1153  C1162   1.419   .     S
C1154  O1201   1.281   .     A
C1154  O1200   1.281   .     A
C1154  C1161   1.419   .     S
C1155  O1209   1.383   .     S
C1155  C1180   1.408   .     A
C1156  C1179   1.408   .     A
C1156  O1217   1.382   .     S
C1156  C534    1.393   1_556 S
C1157  H1189   1.084   .     S
C1157  C1162   1.397   .     A
C1158  H1190   1.084   .     S
C1158  C1161   1.397   .     A
C1158  C1232   1.370   .     S
C1159  C1161   1.397   .     A
C1159  H1191   1.084   .     S
C1159  C1229   1.370   .     S
C1160  H1192   1.084   .     S
C1160  C1162   1.397   .     A
C1163  H1193   1.082   .     S
C1163  N1198   1.366   .     A
C1164  N1197   1.366   .     A
C1164  H1194   1.082   .     S
C1164  C733    1.415   1_565 S
C1165  H1195   1.082   .     S
C1165  N1198   1.366   .     A
C1166  H1196   1.082   .     S
C1166  N1197   1.366   .     A
C1166  C731    1.416   1_565 S
C1167  O1203   1.286   .     A
C1167  O1206   1.285   .     A
C1167  C1172   1.434   .     S
C1168  O1204   1.285   .     A
C1168  C1171   1.433   .     S
C1168  O1205   1.285   .     A
C1169  H1183   1.084   .     S
C1169  C1171   1.394   .     A
C1169  C1179   1.387   .     A
C1170  H1184   1.084   .     S
C1170  C1180   1.387   .     A
C1170  C1172   1.395   .     A
C1171  C1173   1.394   .     A
C1172  C1174   1.395   .     A
C1173  C1175   1.383   .     A
C1173  H1185   1.085   .     S
C1174  C1176   1.383   .     A
C1174  H1186   1.085   .     S
C1175  C1177   1.411   .     A
C1175  C1181   1.398   .     A
C1176  C1178   1.412   .     A
C1176  C1182   1.398   .     A
C1177  C1179   1.414   .     A
C1177  C530    1.392   1_556 S
C1178  C1180   1.415   .     A
C1181  H1187   1.084   .     S
C1181  C507    1.394   1_556 S
C1182  H1188   1.084   .     S
N1197  Zn1207  2.007   .     S
N1198  Zn1208  2.007   .     S
O1199  Zn1207  1.999   .     S
O1200  Zn1208  1.999   .     S
O1201  Zn1207  1.999   .     S
O1202  Zn1208  1.999   .     S
O1203  Zn1207  2.016   .     S
O1204  Zn1208  2.016   .     S
O1205  Zn1207  2.014   .     S
O1206  Zn1208  2.014   .     S
O1209  C1210   1.411   .     S
C1210  C1213   1.521   .     S
C1210  H1211   1.114   .     S
C1210  H1212   1.115   .     S
C1213  H1215   1.110   .     S
C1213  H1214   1.111   .     S
H1216  C781    1.111   1_565 S
O1217  C1218   1.410   .     S
C1218  H1220   1.116   .     S
C1218  H1219   1.114   .     S
C1218  C789    1.521   1_565 S
C1221  H1224   1.111   .     S
C1221  H1223   1.107   .     S
H1222  C789    1.111   1_565 S
C1225  O1274   1.281   .     A
C1225  O1271   1.281   .     A
C1225  C1234   1.419   .     S
C1226  O1273   1.281   .     A
C1226  O1272   1.281   .     A
C1226  C1233   1.419   .     S
C1227  O1281   1.383   .     S
C1227  C1252   1.408   .     A
C1228  C1251   1.408   .     A
C1228  O1289   1.382   .     S
C1228  C606    1.393   1_556 S
C1229  H1261   1.084   .     S
C1229  C1234   1.397   .     A
C1230  H1262   1.084   .     S
C1230  C1233   1.397   .     A
C1230  C1088   1.370   1_655 S
C1231  C1233   1.397   .     A
C1231  H1263   1.084   .     S
C1231  C1085   1.370   1_655 S
C1232  H1264   1.084   .     S
C1232  C1234   1.397   .     A
C1235  H1265   1.082   .     S
C1235  N1270   1.366   .     A
C1236  N1269   1.366   .     A
C1236  H1266   1.082   .     S
C1236  C805    1.415   1_565 S
C1237  H1267   1.082   .     S
C1237  N1270   1.366   .     A
C1238  H1268   1.082   .     S
C1238  N1269   1.366   .     A
C1238  C803    1.416   1_565 S
C1239  O1275   1.286   .     A
C1239  O1278   1.285   .     A
C1239  C1244   1.434   .     S
C1240  O1276   1.285   .     A
C1240  C1243   1.433   .     S
C1240  O1277   1.285   .     A
C1241  H1255   1.084   .     S
C1241  C1243   1.394   .     A
C1241  C1251   1.387   .     A
C1242  H1256   1.084   .     S
C1242  C1252   1.387   .     A
C1242  C1244   1.395   .     A
C1243  C1245   1.394   .     A
C1244  C1246   1.395   .     A
C1245  C1247   1.383   .     A
C1245  H1257   1.085   .     S
C1246  C1248   1.383   .     A
C1246  H1258   1.085   .     S
C1247  C1249   1.411   .     A
C1247  C1253   1.398   .     A
C1248  C1250   1.412   .     A
C1248  C1254   1.398   .     A
C1249  C1251   1.414   .     A
C1249  C602    1.392   1_556 S
C1250  C1252   1.415   .     A
C1253  H1259   1.084   .     S
C1253  C579    1.394   1_556 S
C1254  H1260   1.084   .     S
N1269  Zn1279  2.007   .     S
N1270  Zn1280  2.007   .     S
O1271  Zn1279  1.999   .     S
O1272  Zn1280  1.999   .     S
O1273  Zn1279  1.999   .     S
O1274  Zn1280  1.999   .     S
O1275  Zn1279  2.016   .     S
O1276  Zn1280  2.016   .     S
O1277  Zn1279  2.014   .     S
O1278  Zn1280  2.014   .     S
O1281  C1282   1.411   .     S
C1282  C1285   1.521   .     S
C1282  H1283   1.114   .     S
C1282  H1284   1.115   .     S
C1285  H1287   1.110   .     S
C1285  H1286   1.111   .     S
H1288  C853    1.111   1_565 S
O1289  C1290   1.410   .     S
C1290  H1292   1.116   .     S
C1290  H1291   1.114   .     S
C1290  C861    1.521   1_565 S
C1293  H1296   1.111   .     S
C1293  H1295   1.107   .     S
H1294  C861    1.111   1_565 S
