data_str_m3_o1_o2_pcu_sym.99
_audit_creation_date              2020-01-03
_audit_creation_method            'Materials Studio'
_symmetry_space_group_name_H-M    'P1'
_symmetry_Int_Tables_number       1
_symmetry_cell_setting            triclinic
loop_
_symmetry_equiv_pos_as_xyz
  x,y,z
_cell_length_a                    32.1217
_cell_length_b                    29.5280
_cell_length_c                    29.9165
_cell_angle_alpha                 89.8297
_cell_angle_beta                  90.1348
_cell_angle_gamma                 89.9868
loop_
_atom_site_label
_atom_site_type_symbol
_atom_site_fract_x
_atom_site_fract_y
_atom_site_fract_z
_atom_site_U_iso_or_equiv
_atom_site_adp_type
_atom_site_occupancy
C1     C     0.08663   0.16667   0.24999   0.00000  Uiso   1.00
C2     C     0.31202   0.20627   0.26158   0.00000  Uiso   1.00
C3     C     0.31198   0.12701   0.23872   0.00000  Uiso   1.00
C4     C     0.02134   0.20629   0.26152   0.00000  Uiso   1.00
C5     C     0.13792   0.19201   0.04649   0.00000  Uiso   1.00
C6     C     0.13397   0.14490   0.45305   0.00000  Uiso   1.00
C7     C     0.19961   0.18609   0.45336   0.00000  Uiso   1.00
C8     C     0.19636   0.13936   0.04685   0.00000  Uiso   1.00
C9     C     0.13824   0.19293   0.09309   0.00000  Uiso   1.00
C10    C     0.13300   0.14592   0.40683   0.00000  Uiso   1.00
C11    C     0.20035   0.18626   0.40715   0.00000  Uiso   1.00
C12    C     0.24670   0.16666   0.25005   0.00000  Uiso   1.00
C13    C     0.19800   0.14064   0.09301   0.00000  Uiso   1.00
C14    C     0.16821   0.16700   0.11606   0.00000  Uiso   1.00
C15    C     0.16662   0.16637   0.38374   0.00000  Uiso   1.00
C16    C     0.16678   0.16517   0.02396   0.00000  Uiso   1.00
C17    C     0.16685   0.16519   0.47593   0.00000  Uiso   1.00
C18    C     0.29084   0.16664   0.25013   0.00000  Uiso   1.00
C19    C     0.04249   0.16666   0.25007   0.00000  Uiso   1.00
C20    C     0.16713   0.16675   0.16401   0.00000  Uiso   1.00
C21    C     0.16665   0.16660   0.33592   0.00000  Uiso   1.00
C22    C     0.19349   0.02389   0.27677   0.00000  Uiso   1.00
C23    C     0.13985   0.30944   0.22322   0.00000  Uiso   1.00
C24    C     0.13985   0.02407   0.22323   0.00000  Uiso   1.00
C25    C     0.19349   0.30926   0.27677   0.00000  Uiso   1.00
C26    C     0.02130   0.12701   0.23870   0.00000  Uiso   1.00
F27    F     0.10993   0.21716   0.02293   0.00000  Uiso   1.00
F28    F     0.10239   0.12476   0.47582   0.00000  Uiso   1.00
F29    F     0.23119   0.20591   0.47644   0.00000  Uiso   1.00
F30    F     0.22426   0.11367   0.02409   0.00000  Uiso   1.00
H31    H     0.21493   0.04200   0.29817   0.00000  Uiso   1.00
H32    H     0.09706   0.13738   0.35453   0.00000  Uiso   1.00
H33    H     0.23590   0.19648   0.35492   0.00000  Uiso   1.00
H34    H     0.23413   0.12868   0.14426   0.00000  Uiso   1.00
H35    H     0.11842   0.29133   0.20180   0.00000  Uiso   1.00
H36    H     0.11840   0.04231   0.20182   0.00000  Uiso   1.00
H37    H     0.21493   0.29101   0.29818   0.00000  Uiso   1.00
H38    H     0.03758   0.09629   0.22946   0.00000  Uiso   1.00
H39    H     0.29573   0.23698   0.27085   0.00000  Uiso   1.00
H40    H     0.29568   0.09629   0.22948   0.00000  Uiso   1.00
H41    H     0.03765   0.23701   0.27072   0.00000  Uiso   1.00
H42    H     0.09049   0.23386   0.09620   0.00000  Uiso   1.00
N43    N     0.16667   0.28573   0.25000   0.00000  Uiso   1.00
N44    N     0.16667   0.04760   0.25000   0.00000  Uiso   1.00
O45    O     0.10559   0.20487   0.25000   0.00000  Uiso   1.00
O46    O     0.09863   0.12713   0.38597   0.00000  Uiso   1.00
O47    O     0.23460   0.20562   0.38664   0.00000  Uiso   1.00
O48    O     0.22933   0.11641   0.11395   0.00000  Uiso   1.00
O49    O     0.22774   0.12846   0.25001   0.00000  Uiso   1.00
O50    O     0.22774   0.20487   0.25001   0.00000  Uiso   1.00
O51    O     0.10559   0.12846   0.25000   0.00000  Uiso   1.00
O52    O     0.16666   0.20489   0.18453   0.00000  Uiso   1.00
O53    O     0.16667   0.12845   0.31547   0.00000  Uiso   1.00
O54    O     0.16667   0.20489   0.31547   0.00000  Uiso   1.00
O55    O     0.16666   0.12845   0.18453   0.00000  Uiso   1.00
O56    O     0.10947   0.21785   0.11707   0.00000  Uiso   1.00
Zn57   Zn    0.16667   0.21771   0.25000   0.00000  Uiso   1.00
Zn58   Zn    0.16667   0.11563   0.25000   0.00000  Uiso   1.00
C59    C     0.41996   0.16667   0.24999   0.00000  Uiso   1.00
C60    C     0.64535   0.20627   0.26158   0.00000  Uiso   1.00
C61    C     0.64532   0.12701   0.23872   0.00000  Uiso   1.00
C62    C     0.35467   0.20629   0.26152   0.00000  Uiso   1.00
C63    C     0.47125   0.19201   0.04649   0.00000  Uiso   1.00
C64    C     0.46730   0.14490   0.45305   0.00000  Uiso   1.00
C65    C     0.53294   0.18609   0.45336   0.00000  Uiso   1.00
C66    C     0.52969   0.13936   0.04685   0.00000  Uiso   1.00
C67    C     0.47157   0.19293   0.09309   0.00000  Uiso   1.00
C68    C     0.46633   0.14592   0.40683   0.00000  Uiso   1.00
C69    C     0.53368   0.18626   0.40715   0.00000  Uiso   1.00
C70    C     0.58003   0.16666   0.25005   0.00000  Uiso   1.00
C71    C     0.53133   0.14064   0.09301   0.00000  Uiso   1.00
C72    C     0.50154   0.16700   0.11606   0.00000  Uiso   1.00
C73    C     0.49995   0.16637   0.38374   0.00000  Uiso   1.00
C74    C     0.50012   0.16517   0.02396   0.00000  Uiso   1.00
C75    C     0.50018   0.16519   0.47593   0.00000  Uiso   1.00
C76    C     0.62417   0.16664   0.25013   0.00000  Uiso   1.00
C77    C     0.37582   0.16666   0.25007   0.00000  Uiso   1.00
C78    C     0.50047   0.16675   0.16401   0.00000  Uiso   1.00
C79    C     0.49998   0.16660   0.33592   0.00000  Uiso   1.00
C80    C     0.52682   0.02389   0.27677   0.00000  Uiso   1.00
C81    C     0.47319   0.30944   0.22322   0.00000  Uiso   1.00
C82    C     0.47318   0.02407   0.22323   0.00000  Uiso   1.00
C83    C     0.52682   0.30926   0.27677   0.00000  Uiso   1.00
C84    C     0.35464   0.12701   0.23870   0.00000  Uiso   1.00
F85    F     0.44327   0.21716   0.02293   0.00000  Uiso   1.00
F86    F     0.43572   0.12476   0.47582   0.00000  Uiso   1.00
F87    F     0.56453   0.20591   0.47644   0.00000  Uiso   1.00
F88    F     0.55759   0.11367   0.02409   0.00000  Uiso   1.00
H89    H     0.54827   0.04200   0.29817   0.00000  Uiso   1.00
H90    H     0.43040   0.13738   0.35453   0.00000  Uiso   1.00
H91    H     0.56923   0.19648   0.35492   0.00000  Uiso   1.00
H92    H     0.56746   0.12868   0.14426   0.00000  Uiso   1.00
H93    H     0.45176   0.29133   0.20180   0.00000  Uiso   1.00
H94    H     0.45174   0.04231   0.20182   0.00000  Uiso   1.00
H95    H     0.54826   0.29101   0.29818   0.00000  Uiso   1.00
H96    H     0.37091   0.09629   0.22946   0.00000  Uiso   1.00
H97    H     0.62907   0.23698   0.27085   0.00000  Uiso   1.00
H98    H     0.62901   0.09629   0.22948   0.00000  Uiso   1.00
H99    H     0.37098   0.23701   0.27072   0.00000  Uiso   1.00
H100   H     0.42382   0.23386   0.09620   0.00000  Uiso   1.00
N101   N     0.50000   0.28573   0.25000   0.00000  Uiso   1.00
N102   N     0.50000   0.04760   0.25000   0.00000  Uiso   1.00
O103   O     0.43892   0.20487   0.25000   0.00000  Uiso   1.00
O104   O     0.43197   0.12713   0.38597   0.00000  Uiso   1.00
O105   O     0.56793   0.20562   0.38664   0.00000  Uiso   1.00
O106   O     0.56267   0.11641   0.11395   0.00000  Uiso   1.00
O107   O     0.56108   0.12846   0.25001   0.00000  Uiso   1.00
O108   O     0.56108   0.20487   0.25001   0.00000  Uiso   1.00
O109   O     0.43892   0.12846   0.25000   0.00000  Uiso   1.00
O110   O     0.50000   0.20489   0.18453   0.00000  Uiso   1.00
O111   O     0.50000   0.12845   0.31547   0.00000  Uiso   1.00
O112   O     0.50000   0.20489   0.31547   0.00000  Uiso   1.00
O113   O     0.50000   0.12845   0.18453   0.00000  Uiso   1.00
O114   O     0.44280   0.21785   0.11707   0.00000  Uiso   1.00
Zn115  Zn    0.50000   0.21771   0.25000   0.00000  Uiso   1.00
Zn116  Zn    0.50000   0.11563   0.25000   0.00000  Uiso   1.00
C117   C     0.75330   0.16667   0.24999   0.00000  Uiso   1.00
C118   C     0.97868   0.20627   0.26158   0.00000  Uiso   1.00
C119   C     0.97865   0.12701   0.23872   0.00000  Uiso   1.00
C120   C     0.68801   0.20629   0.26152   0.00000  Uiso   1.00
C121   C     0.80459   0.19201   0.04649   0.00000  Uiso   1.00
C122   C     0.80063   0.14490   0.45305   0.00000  Uiso   1.00
C123   C     0.86627   0.18609   0.45336   0.00000  Uiso   1.00
C124   C     0.86303   0.13936   0.04685   0.00000  Uiso   1.00
C125   C     0.80491   0.19293   0.09309   0.00000  Uiso   1.00
C126   C     0.79966   0.14592   0.40683   0.00000  Uiso   1.00
C127   C     0.86702   0.18626   0.40715   0.00000  Uiso   1.00
C128   C     0.91337   0.16666   0.25005   0.00000  Uiso   1.00
C129   C     0.86467   0.14064   0.09301   0.00000  Uiso   1.00
C130   C     0.83487   0.16700   0.11606   0.00000  Uiso   1.00
C131   C     0.83329   0.16637   0.38374   0.00000  Uiso   1.00
C132   C     0.83345   0.16517   0.02396   0.00000  Uiso   1.00
C133   C     0.83352   0.16519   0.47593   0.00000  Uiso   1.00
C134   C     0.95751   0.16664   0.25013   0.00000  Uiso   1.00
C135   C     0.70915   0.16666   0.25007   0.00000  Uiso   1.00
C136   C     0.83380   0.16675   0.16401   0.00000  Uiso   1.00
C137   C     0.83332   0.16660   0.33592   0.00000  Uiso   1.00
C138   C     0.86016   0.02389   0.27677   0.00000  Uiso   1.00
C139   C     0.80652   0.30944   0.22322   0.00000  Uiso   1.00
C140   C     0.80651   0.02407   0.22323   0.00000  Uiso   1.00
C141   C     0.86016   0.30926   0.27677   0.00000  Uiso   1.00
C142   C     0.68797   0.12701   0.23870   0.00000  Uiso   1.00
F143   F     0.77660   0.21716   0.02293   0.00000  Uiso   1.00
F144   F     0.76905   0.12476   0.47582   0.00000  Uiso   1.00
F145   F     0.89786   0.20591   0.47644   0.00000  Uiso   1.00
F146   F     0.89093   0.11367   0.02409   0.00000  Uiso   1.00
H147   H     0.88160   0.04200   0.29817   0.00000  Uiso   1.00
H148   H     0.76373   0.13738   0.35453   0.00000  Uiso   1.00
H149   H     0.90257   0.19648   0.35492   0.00000  Uiso   1.00
H150   H     0.90080   0.12868   0.14426   0.00000  Uiso   1.00
H151   H     0.78509   0.29133   0.20180   0.00000  Uiso   1.00
H152   H     0.78507   0.04231   0.20182   0.00000  Uiso   1.00
H153   H     0.88159   0.29101   0.29818   0.00000  Uiso   1.00
H154   H     0.70425   0.09629   0.22946   0.00000  Uiso   1.00
H155   H     0.96240   0.23698   0.27085   0.00000  Uiso   1.00
H156   H     0.96234   0.09629   0.22948   0.00000  Uiso   1.00
H157   H     0.70432   0.23701   0.27072   0.00000  Uiso   1.00
H158   H     0.75716   0.23386   0.09620   0.00000  Uiso   1.00
N159   N     0.83333   0.28573   0.25000   0.00000  Uiso   1.00
N160   N     0.83333   0.04760   0.25000   0.00000  Uiso   1.00
O161   O     0.77226   0.20487   0.25000   0.00000  Uiso   1.00
O162   O     0.76530   0.12713   0.38597   0.00000  Uiso   1.00
O163   O     0.90126   0.20562   0.38664   0.00000  Uiso   1.00
O164   O     0.89600   0.11641   0.11395   0.00000  Uiso   1.00
O165   O     0.89441   0.12846   0.25001   0.00000  Uiso   1.00
O166   O     0.89441   0.20487   0.25001   0.00000  Uiso   1.00
O167   O     0.77226   0.12846   0.25000   0.00000  Uiso   1.00
O168   O     0.83333   0.20489   0.18453   0.00000  Uiso   1.00
O169   O     0.83334   0.12845   0.31547   0.00000  Uiso   1.00
O170   O     0.83334   0.20489   0.31547   0.00000  Uiso   1.00
O171   O     0.83333   0.12845   0.18453   0.00000  Uiso   1.00
O172   O     0.77614   0.21785   0.11707   0.00000  Uiso   1.00
Zn173  Zn    0.83333   0.21771   0.25000   0.00000  Uiso   1.00
Zn174  Zn    0.83333   0.11563   0.25000   0.00000  Uiso   1.00
C175   C     0.08663   0.50000   0.24999   0.00000  Uiso   1.00
C176   C     0.31202   0.53961   0.26158   0.00000  Uiso   1.00
C177   C     0.31198   0.46034   0.23872   0.00000  Uiso   1.00
C178   C     0.02134   0.53962   0.26152   0.00000  Uiso   1.00
C179   C     0.13792   0.52535   0.04649   0.00000  Uiso   1.00
C180   C     0.13397   0.47823   0.45305   0.00000  Uiso   1.00
C181   C     0.19961   0.51943   0.45336   0.00000  Uiso   1.00
C182   C     0.19636   0.47270   0.04685   0.00000  Uiso   1.00
C183   C     0.13824   0.52627   0.09309   0.00000  Uiso   1.00
C184   C     0.13300   0.47925   0.40683   0.00000  Uiso   1.00
C185   C     0.20035   0.51959   0.40715   0.00000  Uiso   1.00
C186   C     0.24670   0.49999   0.25005   0.00000  Uiso   1.00
C187   C     0.19800   0.47397   0.09301   0.00000  Uiso   1.00
C188   C     0.16821   0.50033   0.11606   0.00000  Uiso   1.00
C189   C     0.16662   0.49970   0.38374   0.00000  Uiso   1.00
C190   C     0.16678   0.49850   0.02396   0.00000  Uiso   1.00
C191   C     0.16685   0.49852   0.47593   0.00000  Uiso   1.00
C192   C     0.29084   0.49998   0.25013   0.00000  Uiso   1.00
C193   C     0.04249   0.49999   0.25007   0.00000  Uiso   1.00
C194   C     0.16713   0.50008   0.16401   0.00000  Uiso   1.00
C195   C     0.16665   0.49993   0.33592   0.00000  Uiso   1.00
C196   C     0.19349   0.35723   0.27677   0.00000  Uiso   1.00
C197   C     0.13985   0.64277   0.22322   0.00000  Uiso   1.00
C198   C     0.13985   0.35740   0.22323   0.00000  Uiso   1.00
C199   C     0.19349   0.64259   0.27677   0.00000  Uiso   1.00
C200   C     0.02130   0.46034   0.23870   0.00000  Uiso   1.00
F201   F     0.10993   0.55049   0.02293   0.00000  Uiso   1.00
F202   F     0.10239   0.45810   0.47582   0.00000  Uiso   1.00
F203   F     0.23119   0.53924   0.47644   0.00000  Uiso   1.00
F204   F     0.22426   0.44700   0.02409   0.00000  Uiso   1.00
H205   H     0.21493   0.37533   0.29817   0.00000  Uiso   1.00
H206   H     0.09706   0.47071   0.35453   0.00000  Uiso   1.00
H207   H     0.23590   0.52982   0.35492   0.00000  Uiso   1.00
H208   H     0.23413   0.46201   0.14426   0.00000  Uiso   1.00
H209   H     0.11842   0.62466   0.20180   0.00000  Uiso   1.00
H210   H     0.11840   0.37564   0.20182   0.00000  Uiso   1.00
H211   H     0.21493   0.62434   0.29818   0.00000  Uiso   1.00
H212   H     0.03758   0.42962   0.22946   0.00000  Uiso   1.00
H213   H     0.29573   0.57031   0.27085   0.00000  Uiso   1.00
H214   H     0.29568   0.42962   0.22948   0.00000  Uiso   1.00
H215   H     0.03765   0.57035   0.27072   0.00000  Uiso   1.00
H216   H     0.09049   0.56719   0.09620   0.00000  Uiso   1.00
N217   N     0.16667   0.61907   0.25000   0.00000  Uiso   1.00
N218   N     0.16667   0.38093   0.25000   0.00000  Uiso   1.00
O219   O     0.10559   0.53821   0.25000   0.00000  Uiso   1.00
O220   O     0.09863   0.46047   0.38597   0.00000  Uiso   1.00
O221   O     0.23460   0.53896   0.38664   0.00000  Uiso   1.00
O222   O     0.22933   0.44974   0.11395   0.00000  Uiso   1.00
O223   O     0.22774   0.46179   0.25001   0.00000  Uiso   1.00
O224   O     0.22774   0.53821   0.25001   0.00000  Uiso   1.00
O225   O     0.10559   0.46179   0.25000   0.00000  Uiso   1.00
O226   O     0.16666   0.53822   0.18453   0.00000  Uiso   1.00
O227   O     0.16667   0.46178   0.31547   0.00000  Uiso   1.00
O228   O     0.16667   0.53822   0.31547   0.00000  Uiso   1.00
O229   O     0.16666   0.46178   0.18453   0.00000  Uiso   1.00
O230   O     0.10947   0.55119   0.11707   0.00000  Uiso   1.00
Zn231  Zn    0.16667   0.55104   0.25000   0.00000  Uiso   1.00
Zn232  Zn    0.16667   0.44896   0.25000   0.00000  Uiso   1.00
C233   C     0.41996   0.50000   0.24999   0.00000  Uiso   1.00
C234   C     0.64535   0.53961   0.26158   0.00000  Uiso   1.00
C235   C     0.64532   0.46034   0.23872   0.00000  Uiso   1.00
C236   C     0.35467   0.53962   0.26152   0.00000  Uiso   1.00
C237   C     0.47125   0.52535   0.04649   0.00000  Uiso   1.00
C238   C     0.46730   0.47823   0.45305   0.00000  Uiso   1.00
C239   C     0.53294   0.51943   0.45336   0.00000  Uiso   1.00
C240   C     0.52969   0.47270   0.04685   0.00000  Uiso   1.00
C241   C     0.47157   0.52627   0.09309   0.00000  Uiso   1.00
C242   C     0.46633   0.47925   0.40683   0.00000  Uiso   1.00
C243   C     0.53368   0.51959   0.40715   0.00000  Uiso   1.00
C244   C     0.58003   0.49999   0.25005   0.00000  Uiso   1.00
C245   C     0.53133   0.47397   0.09301   0.00000  Uiso   1.00
C246   C     0.50154   0.50033   0.11606   0.00000  Uiso   1.00
C247   C     0.49995   0.49970   0.38374   0.00000  Uiso   1.00
C248   C     0.50012   0.49850   0.02396   0.00000  Uiso   1.00
C249   C     0.50018   0.49852   0.47593   0.00000  Uiso   1.00
C250   C     0.62417   0.49998   0.25013   0.00000  Uiso   1.00
C251   C     0.37582   0.49999   0.25007   0.00000  Uiso   1.00
C252   C     0.50047   0.50008   0.16401   0.00000  Uiso   1.00
C253   C     0.49998   0.49993   0.33592   0.00000  Uiso   1.00
C254   C     0.52682   0.35723   0.27677   0.00000  Uiso   1.00
C255   C     0.47319   0.64277   0.22322   0.00000  Uiso   1.00
C256   C     0.47318   0.35740   0.22323   0.00000  Uiso   1.00
C257   C     0.52682   0.64259   0.27677   0.00000  Uiso   1.00
C258   C     0.35464   0.46034   0.23870   0.00000  Uiso   1.00
F259   F     0.44327   0.55049   0.02293   0.00000  Uiso   1.00
F260   F     0.43572   0.45810   0.47582   0.00000  Uiso   1.00
F261   F     0.56453   0.53924   0.47644   0.00000  Uiso   1.00
F262   F     0.55759   0.44700   0.02409   0.00000  Uiso   1.00
H263   H     0.54827   0.37533   0.29817   0.00000  Uiso   1.00
H264   H     0.43040   0.47071   0.35453   0.00000  Uiso   1.00
H265   H     0.56923   0.52982   0.35492   0.00000  Uiso   1.00
H266   H     0.56746   0.46201   0.14426   0.00000  Uiso   1.00
H267   H     0.45176   0.62466   0.20180   0.00000  Uiso   1.00
H268   H     0.45174   0.37564   0.20182   0.00000  Uiso   1.00
H269   H     0.54826   0.62434   0.29818   0.00000  Uiso   1.00
H270   H     0.37091   0.42962   0.22946   0.00000  Uiso   1.00
H271   H     0.62907   0.57031   0.27085   0.00000  Uiso   1.00
H272   H     0.62901   0.42962   0.22948   0.00000  Uiso   1.00
H273   H     0.37098   0.57035   0.27072   0.00000  Uiso   1.00
H274   H     0.42382   0.56719   0.09620   0.00000  Uiso   1.00
N275   N     0.50000   0.61907   0.25000   0.00000  Uiso   1.00
N276   N     0.50000   0.38093   0.25000   0.00000  Uiso   1.00
O277   O     0.43892   0.53821   0.25000   0.00000  Uiso   1.00
O278   O     0.43197   0.46047   0.38597   0.00000  Uiso   1.00
O279   O     0.56793   0.53896   0.38664   0.00000  Uiso   1.00
O280   O     0.56267   0.44974   0.11395   0.00000  Uiso   1.00
O281   O     0.56108   0.46179   0.25001   0.00000  Uiso   1.00
O282   O     0.56108   0.53821   0.25001   0.00000  Uiso   1.00
O283   O     0.43892   0.46179   0.25000   0.00000  Uiso   1.00
O284   O     0.50000   0.53822   0.18453   0.00000  Uiso   1.00
O285   O     0.50000   0.46178   0.31547   0.00000  Uiso   1.00
O286   O     0.50000   0.53822   0.31547   0.00000  Uiso   1.00
O287   O     0.50000   0.46178   0.18453   0.00000  Uiso   1.00
O288   O     0.44280   0.55119   0.11707   0.00000  Uiso   1.00
Zn289  Zn    0.50000   0.55104   0.25000   0.00000  Uiso   1.00
Zn290  Zn    0.50000   0.44896   0.25000   0.00000  Uiso   1.00
C291   C     0.75330   0.50000   0.24999   0.00000  Uiso   1.00
C292   C     0.97868   0.53961   0.26158   0.00000  Uiso   1.00
C293   C     0.97865   0.46034   0.23872   0.00000  Uiso   1.00
C294   C     0.68801   0.53962   0.26152   0.00000  Uiso   1.00
C295   C     0.80459   0.52535   0.04649   0.00000  Uiso   1.00
C296   C     0.80063   0.47823   0.45305   0.00000  Uiso   1.00
C297   C     0.86627   0.51943   0.45336   0.00000  Uiso   1.00
C298   C     0.86303   0.47270   0.04685   0.00000  Uiso   1.00
C299   C     0.80491   0.52627   0.09309   0.00000  Uiso   1.00
C300   C     0.79966   0.47925   0.40683   0.00000  Uiso   1.00
C301   C     0.86702   0.51959   0.40715   0.00000  Uiso   1.00
C302   C     0.91337   0.49999   0.25005   0.00000  Uiso   1.00
C303   C     0.86467   0.47397   0.09301   0.00000  Uiso   1.00
C304   C     0.83487   0.50033   0.11606   0.00000  Uiso   1.00
C305   C     0.83329   0.49970   0.38374   0.00000  Uiso   1.00
C306   C     0.83345   0.49850   0.02396   0.00000  Uiso   1.00
C307   C     0.83352   0.49852   0.47593   0.00000  Uiso   1.00
C308   C     0.95751   0.49998   0.25013   0.00000  Uiso   1.00
C309   C     0.70915   0.49999   0.25007   0.00000  Uiso   1.00
C310   C     0.83380   0.50008   0.16401   0.00000  Uiso   1.00
C311   C     0.83332   0.49993   0.33592   0.00000  Uiso   1.00
C312   C     0.86016   0.35723   0.27677   0.00000  Uiso   1.00
C313   C     0.80652   0.64277   0.22322   0.00000  Uiso   1.00
C314   C     0.80651   0.35740   0.22323   0.00000  Uiso   1.00
C315   C     0.86016   0.64259   0.27677   0.00000  Uiso   1.00
C316   C     0.68797   0.46034   0.23870   0.00000  Uiso   1.00
F317   F     0.77660   0.55049   0.02293   0.00000  Uiso   1.00
F318   F     0.76905   0.45810   0.47582   0.00000  Uiso   1.00
F319   F     0.89786   0.53924   0.47644   0.00000  Uiso   1.00
F320   F     0.89093   0.44700   0.02409   0.00000  Uiso   1.00
H321   H     0.88160   0.37533   0.29817   0.00000  Uiso   1.00
H322   H     0.76373   0.47071   0.35453   0.00000  Uiso   1.00
H323   H     0.90257   0.52982   0.35492   0.00000  Uiso   1.00
H324   H     0.90080   0.46201   0.14426   0.00000  Uiso   1.00
H325   H     0.78509   0.62466   0.20180   0.00000  Uiso   1.00
H326   H     0.78507   0.37564   0.20182   0.00000  Uiso   1.00
H327   H     0.88159   0.62434   0.29818   0.00000  Uiso   1.00
H328   H     0.70425   0.42962   0.22946   0.00000  Uiso   1.00
H329   H     0.96240   0.57031   0.27085   0.00000  Uiso   1.00
H330   H     0.96234   0.42962   0.22948   0.00000  Uiso   1.00
H331   H     0.70432   0.57035   0.27072   0.00000  Uiso   1.00
H332   H     0.75716   0.56719   0.09620   0.00000  Uiso   1.00
N333   N     0.83333   0.61907   0.25000   0.00000  Uiso   1.00
N334   N     0.83333   0.38093   0.25000   0.00000  Uiso   1.00
O335   O     0.77226   0.53821   0.25000   0.00000  Uiso   1.00
O336   O     0.76530   0.46047   0.38597   0.00000  Uiso   1.00
O337   O     0.90126   0.53896   0.38664   0.00000  Uiso   1.00
O338   O     0.89600   0.44974   0.11395   0.00000  Uiso   1.00
O339   O     0.89441   0.46179   0.25001   0.00000  Uiso   1.00
O340   O     0.89441   0.53821   0.25001   0.00000  Uiso   1.00
O341   O     0.77226   0.46179   0.25000   0.00000  Uiso   1.00
O342   O     0.83333   0.53822   0.18453   0.00000  Uiso   1.00
O343   O     0.83334   0.46178   0.31547   0.00000  Uiso   1.00
O344   O     0.83334   0.53822   0.31547   0.00000  Uiso   1.00
O345   O     0.83333   0.46178   0.18453   0.00000  Uiso   1.00
O346   O     0.77614   0.55119   0.11707   0.00000  Uiso   1.00
Zn347  Zn    0.83333   0.55104   0.25000   0.00000  Uiso   1.00
Zn348  Zn    0.83333   0.44896   0.25000   0.00000  Uiso   1.00
C349   C     0.08663   0.83334   0.24999   0.00000  Uiso   1.00
C350   C     0.31202   0.87294   0.26158   0.00000  Uiso   1.00
C351   C     0.31198   0.79367   0.23872   0.00000  Uiso   1.00
C352   C     0.02134   0.87295   0.26152   0.00000  Uiso   1.00
C353   C     0.13792   0.85868   0.04649   0.00000  Uiso   1.00
C354   C     0.13397   0.81157   0.45305   0.00000  Uiso   1.00
C355   C     0.19961   0.85276   0.45336   0.00000  Uiso   1.00
C356   C     0.19636   0.80603   0.04685   0.00000  Uiso   1.00
C357   C     0.13824   0.85960   0.09309   0.00000  Uiso   1.00
C358   C     0.13300   0.81258   0.40683   0.00000  Uiso   1.00
C359   C     0.20035   0.85292   0.40715   0.00000  Uiso   1.00
C360   C     0.24670   0.83333   0.25005   0.00000  Uiso   1.00
C361   C     0.19800   0.80730   0.09301   0.00000  Uiso   1.00
C362   C     0.16821   0.83367   0.11606   0.00000  Uiso   1.00
C363   C     0.16662   0.83303   0.38374   0.00000  Uiso   1.00
C364   C     0.16678   0.83184   0.02396   0.00000  Uiso   1.00
C365   C     0.16685   0.83186   0.47593   0.00000  Uiso   1.00
C366   C     0.29084   0.83331   0.25013   0.00000  Uiso   1.00
C367   C     0.04249   0.83333   0.25007   0.00000  Uiso   1.00
C368   C     0.16713   0.83341   0.16401   0.00000  Uiso   1.00
C369   C     0.16665   0.83326   0.33592   0.00000  Uiso   1.00
C370   C     0.19349   0.69056   0.27677   0.00000  Uiso   1.00
C371   C     0.13985   0.97610   0.22322   0.00000  Uiso   1.00
C372   C     0.13985   0.69073   0.22323   0.00000  Uiso   1.00
C373   C     0.19349   0.97593   0.27677   0.00000  Uiso   1.00
C374   C     0.02130   0.79368   0.23870   0.00000  Uiso   1.00
F375   F     0.10993   0.88383   0.02293   0.00000  Uiso   1.00
F376   F     0.10239   0.79143   0.47582   0.00000  Uiso   1.00
F377   F     0.23119   0.87258   0.47644   0.00000  Uiso   1.00
F378   F     0.22426   0.78034   0.02409   0.00000  Uiso   1.00
H379   H     0.21493   0.70866   0.29817   0.00000  Uiso   1.00
H380   H     0.09706   0.80405   0.35453   0.00000  Uiso   1.00
H381   H     0.23590   0.86315   0.35492   0.00000  Uiso   1.00
H382   H     0.23413   0.79535   0.14426   0.00000  Uiso   1.00
H383   H     0.11842   0.95800   0.20180   0.00000  Uiso   1.00
H384   H     0.11840   0.70898   0.20182   0.00000  Uiso   1.00
H385   H     0.21493   0.95768   0.29818   0.00000  Uiso   1.00
H386   H     0.03758   0.76296   0.22946   0.00000  Uiso   1.00
H387   H     0.29573   0.90365   0.27085   0.00000  Uiso   1.00
H388   H     0.29568   0.76296   0.22948   0.00000  Uiso   1.00
H389   H     0.03765   0.90368   0.27072   0.00000  Uiso   1.00
H390   H     0.09049   0.90053   0.09620   0.00000  Uiso   1.00
N391   N     0.16667   0.95240   0.25000   0.00000  Uiso   1.00
N392   N     0.16667   0.71427   0.25000   0.00000  Uiso   1.00
O393   O     0.10559   0.87154   0.25000   0.00000  Uiso   1.00
O394   O     0.09863   0.79380   0.38597   0.00000  Uiso   1.00
O395   O     0.23460   0.87229   0.38664   0.00000  Uiso   1.00
O396   O     0.22933   0.78308   0.11395   0.00000  Uiso   1.00
O397   O     0.22774   0.79513   0.25001   0.00000  Uiso   1.00
O398   O     0.22774   0.87154   0.25001   0.00000  Uiso   1.00
O399   O     0.10559   0.79513   0.25000   0.00000  Uiso   1.00
O400   O     0.16666   0.87155   0.18453   0.00000  Uiso   1.00
O401   O     0.16667   0.79511   0.31547   0.00000  Uiso   1.00
O402   O     0.16667   0.87155   0.31547   0.00000  Uiso   1.00
O403   O     0.16666   0.79511   0.18453   0.00000  Uiso   1.00
O404   O     0.10947   0.88452   0.11707   0.00000  Uiso   1.00
Zn405  Zn    0.16667   0.88437   0.25000   0.00000  Uiso   1.00
Zn406  Zn    0.16667   0.78229   0.25000   0.00000  Uiso   1.00
C407   C     0.41996   0.83334   0.24999   0.00000  Uiso   1.00
C408   C     0.64535   0.87294   0.26158   0.00000  Uiso   1.00
C409   C     0.64532   0.79367   0.23872   0.00000  Uiso   1.00
C410   C     0.35467   0.87295   0.26152   0.00000  Uiso   1.00
C411   C     0.47125   0.85868   0.04649   0.00000  Uiso   1.00
C412   C     0.46730   0.81157   0.45305   0.00000  Uiso   1.00
C413   C     0.53294   0.85276   0.45336   0.00000  Uiso   1.00
C414   C     0.52969   0.80603   0.04685   0.00000  Uiso   1.00
C415   C     0.47157   0.85960   0.09309   0.00000  Uiso   1.00
C416   C     0.46633   0.81258   0.40683   0.00000  Uiso   1.00
C417   C     0.53368   0.85292   0.40715   0.00000  Uiso   1.00
C418   C     0.58003   0.83333   0.25005   0.00000  Uiso   1.00
C419   C     0.53133   0.80730   0.09301   0.00000  Uiso   1.00
C420   C     0.50154   0.83367   0.11606   0.00000  Uiso   1.00
C421   C     0.49995   0.83303   0.38374   0.00000  Uiso   1.00
C422   C     0.50012   0.83184   0.02396   0.00000  Uiso   1.00
C423   C     0.50018   0.83186   0.47593   0.00000  Uiso   1.00
C424   C     0.62417   0.83331   0.25013   0.00000  Uiso   1.00
C425   C     0.37582   0.83333   0.25007   0.00000  Uiso   1.00
C426   C     0.50047   0.83341   0.16401   0.00000  Uiso   1.00
C427   C     0.49998   0.83326   0.33592   0.00000  Uiso   1.00
C428   C     0.52682   0.69056   0.27677   0.00000  Uiso   1.00
C429   C     0.47319   0.97610   0.22322   0.00000  Uiso   1.00
C430   C     0.47318   0.69073   0.22323   0.00000  Uiso   1.00
C431   C     0.52682   0.97593   0.27677   0.00000  Uiso   1.00
C432   C     0.35464   0.79368   0.23870   0.00000  Uiso   1.00
F433   F     0.44327   0.88383   0.02293   0.00000  Uiso   1.00
F434   F     0.43572   0.79143   0.47582   0.00000  Uiso   1.00
F435   F     0.56453   0.87258   0.47644   0.00000  Uiso   1.00
F436   F     0.55759   0.78034   0.02409   0.00000  Uiso   1.00
H437   H     0.54827   0.70866   0.29817   0.00000  Uiso   1.00
H438   H     0.43040   0.80405   0.35453   0.00000  Uiso   1.00
H439   H     0.56923   0.86315   0.35492   0.00000  Uiso   1.00
H440   H     0.56746   0.79535   0.14426   0.00000  Uiso   1.00
H441   H     0.45176   0.95800   0.20180   0.00000  Uiso   1.00
H442   H     0.45174   0.70898   0.20182   0.00000  Uiso   1.00
H443   H     0.54826   0.95768   0.29818   0.00000  Uiso   1.00
H444   H     0.37091   0.76296   0.22946   0.00000  Uiso   1.00
H445   H     0.62907   0.90365   0.27085   0.00000  Uiso   1.00
H446   H     0.62901   0.76296   0.22948   0.00000  Uiso   1.00
H447   H     0.37098   0.90368   0.27072   0.00000  Uiso   1.00
H448   H     0.42382   0.90053   0.09620   0.00000  Uiso   1.00
N449   N     0.50000   0.95240   0.25000   0.00000  Uiso   1.00
N450   N     0.50000   0.71427   0.25000   0.00000  Uiso   1.00
O451   O     0.43892   0.87154   0.25000   0.00000  Uiso   1.00
O452   O     0.43197   0.79380   0.38597   0.00000  Uiso   1.00
O453   O     0.56793   0.87229   0.38664   0.00000  Uiso   1.00
O454   O     0.56267   0.78308   0.11395   0.00000  Uiso   1.00
O455   O     0.56108   0.79513   0.25001   0.00000  Uiso   1.00
O456   O     0.56108   0.87154   0.25001   0.00000  Uiso   1.00
O457   O     0.43892   0.79513   0.25000   0.00000  Uiso   1.00
O458   O     0.50000   0.87155   0.18453   0.00000  Uiso   1.00
O459   O     0.50000   0.79511   0.31547   0.00000  Uiso   1.00
O460   O     0.50000   0.87155   0.31547   0.00000  Uiso   1.00
O461   O     0.50000   0.79511   0.18453   0.00000  Uiso   1.00
O462   O     0.44280   0.88452   0.11707   0.00000  Uiso   1.00
Zn463  Zn    0.50000   0.88437   0.25000   0.00000  Uiso   1.00
Zn464  Zn    0.50000   0.78229   0.25000   0.00000  Uiso   1.00
C465   C     0.75330   0.83334   0.24999   0.00000  Uiso   1.00
C466   C     0.97868   0.87294   0.26158   0.00000  Uiso   1.00
C467   C     0.97865   0.79367   0.23872   0.00000  Uiso   1.00
C468   C     0.68801   0.87295   0.26152   0.00000  Uiso   1.00
C469   C     0.80459   0.85868   0.04649   0.00000  Uiso   1.00
C470   C     0.80063   0.81157   0.45305   0.00000  Uiso   1.00
C471   C     0.86627   0.85276   0.45336   0.00000  Uiso   1.00
C472   C     0.86303   0.80603   0.04685   0.00000  Uiso   1.00
C473   C     0.80491   0.85960   0.09309   0.00000  Uiso   1.00
C474   C     0.79966   0.81258   0.40683   0.00000  Uiso   1.00
C475   C     0.86702   0.85292   0.40715   0.00000  Uiso   1.00
C476   C     0.91337   0.83333   0.25005   0.00000  Uiso   1.00
C477   C     0.86467   0.80730   0.09301   0.00000  Uiso   1.00
C478   C     0.83487   0.83367   0.11606   0.00000  Uiso   1.00
C479   C     0.83329   0.83303   0.38374   0.00000  Uiso   1.00
C480   C     0.83345   0.83184   0.02396   0.00000  Uiso   1.00
C481   C     0.83352   0.83186   0.47593   0.00000  Uiso   1.00
C482   C     0.95751   0.83331   0.25013   0.00000  Uiso   1.00
C483   C     0.70915   0.83333   0.25007   0.00000  Uiso   1.00
C484   C     0.83380   0.83341   0.16401   0.00000  Uiso   1.00
C485   C     0.83332   0.83326   0.33592   0.00000  Uiso   1.00
C486   C     0.86016   0.69056   0.27677   0.00000  Uiso   1.00
C487   C     0.80652   0.97610   0.22322   0.00000  Uiso   1.00
C488   C     0.80651   0.69073   0.22323   0.00000  Uiso   1.00
C489   C     0.86016   0.97593   0.27677   0.00000  Uiso   1.00
C490   C     0.68797   0.79368   0.23870   0.00000  Uiso   1.00
F491   F     0.77660   0.88383   0.02293   0.00000  Uiso   1.00
F492   F     0.76905   0.79143   0.47582   0.00000  Uiso   1.00
F493   F     0.89786   0.87258   0.47644   0.00000  Uiso   1.00
F494   F     0.89093   0.78034   0.02409   0.00000  Uiso   1.00
H495   H     0.88160   0.70866   0.29817   0.00000  Uiso   1.00
H496   H     0.76373   0.80405   0.35453   0.00000  Uiso   1.00
H497   H     0.90257   0.86315   0.35492   0.00000  Uiso   1.00
H498   H     0.90080   0.79535   0.14426   0.00000  Uiso   1.00
H499   H     0.78509   0.95800   0.20180   0.00000  Uiso   1.00
H500   H     0.78507   0.70898   0.20182   0.00000  Uiso   1.00
H501   H     0.88159   0.95768   0.29818   0.00000  Uiso   1.00
H502   H     0.70425   0.76296   0.22946   0.00000  Uiso   1.00
H503   H     0.96240   0.90365   0.27085   0.00000  Uiso   1.00
H504   H     0.96234   0.76296   0.22948   0.00000  Uiso   1.00
H505   H     0.70432   0.90368   0.27072   0.00000  Uiso   1.00
H506   H     0.75716   0.90053   0.09620   0.00000  Uiso   1.00
N507   N     0.83333   0.95240   0.25000   0.00000  Uiso   1.00
N508   N     0.83333   0.71427   0.25000   0.00000  Uiso   1.00
O509   O     0.77226   0.87154   0.25000   0.00000  Uiso   1.00
O510   O     0.76530   0.79380   0.38597   0.00000  Uiso   1.00
O511   O     0.90126   0.87229   0.38664   0.00000  Uiso   1.00
O512   O     0.89600   0.78308   0.11395   0.00000  Uiso   1.00
O513   O     0.89441   0.79513   0.25001   0.00000  Uiso   1.00
O514   O     0.89441   0.87154   0.25001   0.00000  Uiso   1.00
O515   O     0.77226   0.79513   0.25000   0.00000  Uiso   1.00
O516   O     0.83333   0.87155   0.18453   0.00000  Uiso   1.00
O517   O     0.83334   0.79511   0.31547   0.00000  Uiso   1.00
O518   O     0.83334   0.87155   0.31547   0.00000  Uiso   1.00
O519   O     0.83333   0.79511   0.18453   0.00000  Uiso   1.00
O520   O     0.77614   0.88452   0.11707   0.00000  Uiso   1.00
Zn521  Zn    0.83333   0.88437   0.25000   0.00000  Uiso   1.00
Zn522  Zn    0.83333   0.78229   0.25000   0.00000  Uiso   1.00
C523   C     0.08663   0.16667   0.74999   0.00000  Uiso   1.00
C524   C     0.31202   0.20627   0.76158   0.00000  Uiso   1.00
C525   C     0.31198   0.12701   0.73872   0.00000  Uiso   1.00
C526   C     0.02134   0.20629   0.76152   0.00000  Uiso   1.00
C527   C     0.13792   0.19201   0.54649   0.00000  Uiso   1.00
C528   C     0.13397   0.14490   0.95305   0.00000  Uiso   1.00
C529   C     0.19961   0.18609   0.95336   0.00000  Uiso   1.00
C530   C     0.19636   0.13936   0.54685   0.00000  Uiso   1.00
C531   C     0.13824   0.19293   0.59309   0.00000  Uiso   1.00
C532   C     0.13300   0.14592   0.90683   0.00000  Uiso   1.00
C533   C     0.20035   0.18626   0.90715   0.00000  Uiso   1.00
C534   C     0.24670   0.16666   0.75005   0.00000  Uiso   1.00
C535   C     0.19800   0.14064   0.59301   0.00000  Uiso   1.00
C536   C     0.16821   0.16700   0.61606   0.00000  Uiso   1.00
C537   C     0.16662   0.16637   0.88374   0.00000  Uiso   1.00
C538   C     0.16678   0.16517   0.52396   0.00000  Uiso   1.00
C539   C     0.16685   0.16519   0.97593   0.00000  Uiso   1.00
C540   C     0.29084   0.16664   0.75013   0.00000  Uiso   1.00
C541   C     0.04249   0.16666   0.75007   0.00000  Uiso   1.00
C542   C     0.16713   0.16675   0.66401   0.00000  Uiso   1.00
C543   C     0.16665   0.16660   0.83592   0.00000  Uiso   1.00
C544   C     0.19349   0.02389   0.77677   0.00000  Uiso   1.00
C545   C     0.13985   0.30944   0.72322   0.00000  Uiso   1.00
C546   C     0.13985   0.02407   0.72323   0.00000  Uiso   1.00
C547   C     0.19349   0.30926   0.77677   0.00000  Uiso   1.00
C548   C     0.02130   0.12701   0.73870   0.00000  Uiso   1.00
F549   F     0.10993   0.21716   0.52293   0.00000  Uiso   1.00
F550   F     0.10239   0.12476   0.97582   0.00000  Uiso   1.00
F551   F     0.23119   0.20591   0.97644   0.00000  Uiso   1.00
F552   F     0.22426   0.11367   0.52409   0.00000  Uiso   1.00
H553   H     0.21493   0.04200   0.79817   0.00000  Uiso   1.00
H554   H     0.09706   0.13738   0.85453   0.00000  Uiso   1.00
H555   H     0.23590   0.19648   0.85492   0.00000  Uiso   1.00
H556   H     0.23413   0.12868   0.64426   0.00000  Uiso   1.00
H557   H     0.11842   0.29133   0.70180   0.00000  Uiso   1.00
H558   H     0.11840   0.04231   0.70182   0.00000  Uiso   1.00
H559   H     0.21493   0.29101   0.79818   0.00000  Uiso   1.00
H560   H     0.03758   0.09629   0.72946   0.00000  Uiso   1.00
H561   H     0.29573   0.23698   0.77085   0.00000  Uiso   1.00
H562   H     0.29568   0.09629   0.72948   0.00000  Uiso   1.00
H563   H     0.03765   0.23701   0.77072   0.00000  Uiso   1.00
H564   H     0.09049   0.23386   0.59620   0.00000  Uiso   1.00
N565   N     0.16667   0.28573   0.75000   0.00000  Uiso   1.00
N566   N     0.16667   0.04760   0.75000   0.00000  Uiso   1.00
O567   O     0.10559   0.20487   0.75000   0.00000  Uiso   1.00
O568   O     0.09863   0.12713   0.88597   0.00000  Uiso   1.00
O569   O     0.23460   0.20562   0.88664   0.00000  Uiso   1.00
O570   O     0.22933   0.11641   0.61395   0.00000  Uiso   1.00
O571   O     0.22774   0.12846   0.75001   0.00000  Uiso   1.00
O572   O     0.22774   0.20487   0.75001   0.00000  Uiso   1.00
O573   O     0.10559   0.12846   0.75000   0.00000  Uiso   1.00
O574   O     0.16666   0.20489   0.68453   0.00000  Uiso   1.00
O575   O     0.16667   0.12845   0.81547   0.00000  Uiso   1.00
O576   O     0.16667   0.20489   0.81547   0.00000  Uiso   1.00
O577   O     0.16666   0.12845   0.68453   0.00000  Uiso   1.00
O578   O     0.10947   0.21785   0.61707   0.00000  Uiso   1.00
Zn579  Zn    0.16667   0.21771   0.75000   0.00000  Uiso   1.00
Zn580  Zn    0.16667   0.11563   0.75000   0.00000  Uiso   1.00
C581   C     0.41996   0.16667   0.74999   0.00000  Uiso   1.00
C582   C     0.64535   0.20627   0.76158   0.00000  Uiso   1.00
C583   C     0.64532   0.12701   0.73872   0.00000  Uiso   1.00
C584   C     0.35467   0.20629   0.76152   0.00000  Uiso   1.00
C585   C     0.47125   0.19201   0.54649   0.00000  Uiso   1.00
C586   C     0.46730   0.14490   0.95305   0.00000  Uiso   1.00
C587   C     0.53294   0.18609   0.95336   0.00000  Uiso   1.00
C588   C     0.52969   0.13936   0.54685   0.00000  Uiso   1.00
C589   C     0.47157   0.19293   0.59309   0.00000  Uiso   1.00
C590   C     0.46633   0.14592   0.90683   0.00000  Uiso   1.00
C591   C     0.53368   0.18626   0.90715   0.00000  Uiso   1.00
C592   C     0.58003   0.16666   0.75005   0.00000  Uiso   1.00
C593   C     0.53133   0.14064   0.59301   0.00000  Uiso   1.00
C594   C     0.50154   0.16700   0.61606   0.00000  Uiso   1.00
C595   C     0.49995   0.16637   0.88374   0.00000  Uiso   1.00
C596   C     0.50012   0.16517   0.52396   0.00000  Uiso   1.00
C597   C     0.50018   0.16519   0.97593   0.00000  Uiso   1.00
C598   C     0.62417   0.16664   0.75013   0.00000  Uiso   1.00
C599   C     0.37582   0.16666   0.75007   0.00000  Uiso   1.00
C600   C     0.50047   0.16675   0.66401   0.00000  Uiso   1.00
C601   C     0.49998   0.16660   0.83592   0.00000  Uiso   1.00
C602   C     0.52682   0.02389   0.77677   0.00000  Uiso   1.00
C603   C     0.47319   0.30944   0.72322   0.00000  Uiso   1.00
C604   C     0.47318   0.02407   0.72323   0.00000  Uiso   1.00
C605   C     0.52682   0.30926   0.77677   0.00000  Uiso   1.00
C606   C     0.35464   0.12701   0.73870   0.00000  Uiso   1.00
F607   F     0.44327   0.21716   0.52293   0.00000  Uiso   1.00
F608   F     0.43572   0.12476   0.97582   0.00000  Uiso   1.00
F609   F     0.56453   0.20591   0.97644   0.00000  Uiso   1.00
F610   F     0.55759   0.11367   0.52409   0.00000  Uiso   1.00
H611   H     0.54827   0.04200   0.79817   0.00000  Uiso   1.00
H612   H     0.43040   0.13738   0.85453   0.00000  Uiso   1.00
H613   H     0.56923   0.19648   0.85492   0.00000  Uiso   1.00
H614   H     0.56746   0.12868   0.64426   0.00000  Uiso   1.00
H615   H     0.45176   0.29133   0.70180   0.00000  Uiso   1.00
H616   H     0.45174   0.04231   0.70182   0.00000  Uiso   1.00
H617   H     0.54826   0.29101   0.79818   0.00000  Uiso   1.00
H618   H     0.37091   0.09629   0.72946   0.00000  Uiso   1.00
H619   H     0.62907   0.23698   0.77085   0.00000  Uiso   1.00
H620   H     0.62901   0.09629   0.72948   0.00000  Uiso   1.00
H621   H     0.37098   0.23701   0.77072   0.00000  Uiso   1.00
H622   H     0.42382   0.23386   0.59620   0.00000  Uiso   1.00
N623   N     0.50000   0.28573   0.75000   0.00000  Uiso   1.00
N624   N     0.50000   0.04760   0.75000   0.00000  Uiso   1.00
O625   O     0.43892   0.20487   0.75000   0.00000  Uiso   1.00
O626   O     0.43197   0.12713   0.88597   0.00000  Uiso   1.00
O627   O     0.56793   0.20562   0.88664   0.00000  Uiso   1.00
O628   O     0.56267   0.11641   0.61395   0.00000  Uiso   1.00
O629   O     0.56108   0.12846   0.75001   0.00000  Uiso   1.00
O630   O     0.56108   0.20487   0.75001   0.00000  Uiso   1.00
O631   O     0.43892   0.12846   0.75000   0.00000  Uiso   1.00
O632   O     0.50000   0.20489   0.68453   0.00000  Uiso   1.00
O633   O     0.50000   0.12845   0.81547   0.00000  Uiso   1.00
O634   O     0.50000   0.20489   0.81547   0.00000  Uiso   1.00
O635   O     0.50000   0.12845   0.68453   0.00000  Uiso   1.00
O636   O     0.44280   0.21785   0.61707   0.00000  Uiso   1.00
Zn637  Zn    0.50000   0.21771   0.75000   0.00000  Uiso   1.00
Zn638  Zn    0.50000   0.11563   0.75000   0.00000  Uiso   1.00
C639   C     0.75330   0.16667   0.74999   0.00000  Uiso   1.00
C640   C     0.97868   0.20627   0.76158   0.00000  Uiso   1.00
C641   C     0.97865   0.12701   0.73872   0.00000  Uiso   1.00
C642   C     0.68801   0.20629   0.76152   0.00000  Uiso   1.00
C643   C     0.80459   0.19201   0.54649   0.00000  Uiso   1.00
C644   C     0.80063   0.14490   0.95305   0.00000  Uiso   1.00
C645   C     0.86627   0.18609   0.95336   0.00000  Uiso   1.00
C646   C     0.86303   0.13936   0.54685   0.00000  Uiso   1.00
C647   C     0.80491   0.19293   0.59309   0.00000  Uiso   1.00
C648   C     0.79966   0.14592   0.90683   0.00000  Uiso   1.00
C649   C     0.86702   0.18626   0.90715   0.00000  Uiso   1.00
C650   C     0.91337   0.16666   0.75005   0.00000  Uiso   1.00
C651   C     0.86467   0.14064   0.59301   0.00000  Uiso   1.00
C652   C     0.83487   0.16700   0.61606   0.00000  Uiso   1.00
C653   C     0.83329   0.16637   0.88374   0.00000  Uiso   1.00
C654   C     0.83345   0.16517   0.52396   0.00000  Uiso   1.00
C655   C     0.83352   0.16519   0.97593   0.00000  Uiso   1.00
C656   C     0.95751   0.16664   0.75013   0.00000  Uiso   1.00
C657   C     0.70915   0.16666   0.75007   0.00000  Uiso   1.00
C658   C     0.83380   0.16675   0.66401   0.00000  Uiso   1.00
C659   C     0.83332   0.16660   0.83592   0.00000  Uiso   1.00
C660   C     0.86016   0.02389   0.77677   0.00000  Uiso   1.00
C661   C     0.80652   0.30944   0.72322   0.00000  Uiso   1.00
C662   C     0.80651   0.02407   0.72323   0.00000  Uiso   1.00
C663   C     0.86016   0.30926   0.77677   0.00000  Uiso   1.00
C664   C     0.68797   0.12701   0.73870   0.00000  Uiso   1.00
F665   F     0.77660   0.21716   0.52293   0.00000  Uiso   1.00
F666   F     0.76905   0.12476   0.97582   0.00000  Uiso   1.00
F667   F     0.89786   0.20591   0.97644   0.00000  Uiso   1.00
F668   F     0.89093   0.11367   0.52409   0.00000  Uiso   1.00
H669   H     0.88160   0.04200   0.79817   0.00000  Uiso   1.00
H670   H     0.76373   0.13738   0.85453   0.00000  Uiso   1.00
H671   H     0.90257   0.19648   0.85492   0.00000  Uiso   1.00
H672   H     0.90080   0.12868   0.64426   0.00000  Uiso   1.00
H673   H     0.78509   0.29133   0.70180   0.00000  Uiso   1.00
H674   H     0.78507   0.04231   0.70182   0.00000  Uiso   1.00
H675   H     0.88159   0.29101   0.79818   0.00000  Uiso   1.00
H676   H     0.70425   0.09629   0.72946   0.00000  Uiso   1.00
H677   H     0.96240   0.23698   0.77085   0.00000  Uiso   1.00
H678   H     0.96234   0.09629   0.72948   0.00000  Uiso   1.00
H679   H     0.70432   0.23701   0.77072   0.00000  Uiso   1.00
H680   H     0.75716   0.23386   0.59620   0.00000  Uiso   1.00
N681   N     0.83333   0.28573   0.75000   0.00000  Uiso   1.00
N682   N     0.83333   0.04760   0.75000   0.00000  Uiso   1.00
O683   O     0.77226   0.20487   0.75000   0.00000  Uiso   1.00
O684   O     0.76530   0.12713   0.88597   0.00000  Uiso   1.00
O685   O     0.90126   0.20562   0.88664   0.00000  Uiso   1.00
O686   O     0.89600   0.11641   0.61395   0.00000  Uiso   1.00
O687   O     0.89441   0.12846   0.75001   0.00000  Uiso   1.00
O688   O     0.89441   0.20487   0.75001   0.00000  Uiso   1.00
O689   O     0.77226   0.12846   0.75000   0.00000  Uiso   1.00
O690   O     0.83333   0.20489   0.68453   0.00000  Uiso   1.00
O691   O     0.83334   0.12845   0.81547   0.00000  Uiso   1.00
O692   O     0.83334   0.20489   0.81547   0.00000  Uiso   1.00
O693   O     0.83333   0.12845   0.68453   0.00000  Uiso   1.00
O694   O     0.77614   0.21785   0.61707   0.00000  Uiso   1.00
Zn695  Zn    0.83333   0.21771   0.75000   0.00000  Uiso   1.00
Zn696  Zn    0.83333   0.11563   0.75000   0.00000  Uiso   1.00
C697   C     0.08663   0.50000   0.74999   0.00000  Uiso   1.00
C698   C     0.31202   0.53961   0.76158   0.00000  Uiso   1.00
C699   C     0.31198   0.46034   0.73872   0.00000  Uiso   1.00
C700   C     0.02134   0.53962   0.76152   0.00000  Uiso   1.00
C701   C     0.13792   0.52535   0.54649   0.00000  Uiso   1.00
C702   C     0.13397   0.47823   0.95305   0.00000  Uiso   1.00
C703   C     0.19961   0.51943   0.95336   0.00000  Uiso   1.00
C704   C     0.19636   0.47270   0.54685   0.00000  Uiso   1.00
C705   C     0.13824   0.52627   0.59309   0.00000  Uiso   1.00
C706   C     0.13300   0.47925   0.90683   0.00000  Uiso   1.00
C707   C     0.20035   0.51959   0.90715   0.00000  Uiso   1.00
C708   C     0.24670   0.49999   0.75005   0.00000  Uiso   1.00
C709   C     0.19800   0.47397   0.59301   0.00000  Uiso   1.00
C710   C     0.16821   0.50033   0.61606   0.00000  Uiso   1.00
C711   C     0.16662   0.49970   0.88374   0.00000  Uiso   1.00
C712   C     0.16678   0.49850   0.52396   0.00000  Uiso   1.00
C713   C     0.16685   0.49852   0.97593   0.00000  Uiso   1.00
C714   C     0.29084   0.49998   0.75013   0.00000  Uiso   1.00
C715   C     0.04249   0.49999   0.75007   0.00000  Uiso   1.00
C716   C     0.16713   0.50008   0.66401   0.00000  Uiso   1.00
C717   C     0.16665   0.49993   0.83592   0.00000  Uiso   1.00
C718   C     0.19349   0.35723   0.77677   0.00000  Uiso   1.00
C719   C     0.13985   0.64277   0.72322   0.00000  Uiso   1.00
C720   C     0.13985   0.35740   0.72323   0.00000  Uiso   1.00
C721   C     0.19349   0.64259   0.77677   0.00000  Uiso   1.00
C722   C     0.02130   0.46034   0.73870   0.00000  Uiso   1.00
F723   F     0.10993   0.55049   0.52293   0.00000  Uiso   1.00
F724   F     0.10239   0.45810   0.97582   0.00000  Uiso   1.00
F725   F     0.23119   0.53924   0.97644   0.00000  Uiso   1.00
F726   F     0.22426   0.44700   0.52409   0.00000  Uiso   1.00
H727   H     0.21493   0.37533   0.79817   0.00000  Uiso   1.00
H728   H     0.09706   0.47071   0.85453   0.00000  Uiso   1.00
H729   H     0.23590   0.52982   0.85492   0.00000  Uiso   1.00
H730   H     0.23413   0.46201   0.64426   0.00000  Uiso   1.00
H731   H     0.11842   0.62466   0.70180   0.00000  Uiso   1.00
H732   H     0.11840   0.37564   0.70182   0.00000  Uiso   1.00
H733   H     0.21493   0.62434   0.79818   0.00000  Uiso   1.00
H734   H     0.03758   0.42962   0.72946   0.00000  Uiso   1.00
H735   H     0.29573   0.57031   0.77085   0.00000  Uiso   1.00
H736   H     0.29568   0.42962   0.72948   0.00000  Uiso   1.00
H737   H     0.03765   0.57035   0.77072   0.00000  Uiso   1.00
H738   H     0.09049   0.56719   0.59620   0.00000  Uiso   1.00
N739   N     0.16667   0.61907   0.75000   0.00000  Uiso   1.00
N740   N     0.16667   0.38093   0.75000   0.00000  Uiso   1.00
O741   O     0.10559   0.53821   0.75000   0.00000  Uiso   1.00
O742   O     0.09863   0.46047   0.88597   0.00000  Uiso   1.00
O743   O     0.23460   0.53896   0.88664   0.00000  Uiso   1.00
O744   O     0.22933   0.44974   0.61395   0.00000  Uiso   1.00
O745   O     0.22774   0.46179   0.75001   0.00000  Uiso   1.00
O746   O     0.22774   0.53821   0.75001   0.00000  Uiso   1.00
O747   O     0.10559   0.46179   0.75000   0.00000  Uiso   1.00
O748   O     0.16666   0.53822   0.68453   0.00000  Uiso   1.00
O749   O     0.16667   0.46178   0.81547   0.00000  Uiso   1.00
O750   O     0.16667   0.53822   0.81547   0.00000  Uiso   1.00
O751   O     0.16666   0.46178   0.68453   0.00000  Uiso   1.00
O752   O     0.10947   0.55119   0.61707   0.00000  Uiso   1.00
Zn753  Zn    0.16667   0.55104   0.75000   0.00000  Uiso   1.00
Zn754  Zn    0.16667   0.44896   0.75000   0.00000  Uiso   1.00
C755   C     0.41996   0.50000   0.74999   0.00000  Uiso   1.00
C756   C     0.64535   0.53961   0.76158   0.00000  Uiso   1.00
C757   C     0.64532   0.46034   0.73872   0.00000  Uiso   1.00
C758   C     0.35467   0.53962   0.76152   0.00000  Uiso   1.00
C759   C     0.47125   0.52535   0.54649   0.00000  Uiso   1.00
C760   C     0.46730   0.47823   0.95305   0.00000  Uiso   1.00
C761   C     0.53294   0.51943   0.95336   0.00000  Uiso   1.00
C762   C     0.52969   0.47270   0.54685   0.00000  Uiso   1.00
C763   C     0.47157   0.52627   0.59309   0.00000  Uiso   1.00
C764   C     0.46633   0.47925   0.90683   0.00000  Uiso   1.00
C765   C     0.53368   0.51959   0.90715   0.00000  Uiso   1.00
C766   C     0.58003   0.49999   0.75005   0.00000  Uiso   1.00
C767   C     0.53133   0.47397   0.59301   0.00000  Uiso   1.00
C768   C     0.50154   0.50033   0.61606   0.00000  Uiso   1.00
C769   C     0.49995   0.49970   0.88374   0.00000  Uiso   1.00
C770   C     0.50012   0.49850   0.52396   0.00000  Uiso   1.00
C771   C     0.50018   0.49852   0.97593   0.00000  Uiso   1.00
C772   C     0.62417   0.49998   0.75013   0.00000  Uiso   1.00
C773   C     0.37582   0.49999   0.75007   0.00000  Uiso   1.00
C774   C     0.50047   0.50008   0.66401   0.00000  Uiso   1.00
C775   C     0.49998   0.49993   0.83592   0.00000  Uiso   1.00
C776   C     0.52682   0.35723   0.77677   0.00000  Uiso   1.00
C777   C     0.47319   0.64277   0.72322   0.00000  Uiso   1.00
C778   C     0.47318   0.35740   0.72323   0.00000  Uiso   1.00
C779   C     0.52682   0.64259   0.77677   0.00000  Uiso   1.00
C780   C     0.35464   0.46034   0.73870   0.00000  Uiso   1.00
F781   F     0.44327   0.55049   0.52293   0.00000  Uiso   1.00
F782   F     0.43572   0.45810   0.97582   0.00000  Uiso   1.00
F783   F     0.56453   0.53924   0.97644   0.00000  Uiso   1.00
F784   F     0.55759   0.44700   0.52409   0.00000  Uiso   1.00
H785   H     0.54827   0.37533   0.79817   0.00000  Uiso   1.00
H786   H     0.43040   0.47071   0.85453   0.00000  Uiso   1.00
H787   H     0.56923   0.52982   0.85492   0.00000  Uiso   1.00
H788   H     0.56746   0.46201   0.64426   0.00000  Uiso   1.00
H789   H     0.45176   0.62466   0.70180   0.00000  Uiso   1.00
H790   H     0.45174   0.37564   0.70182   0.00000  Uiso   1.00
H791   H     0.54826   0.62434   0.79818   0.00000  Uiso   1.00
H792   H     0.37091   0.42962   0.72946   0.00000  Uiso   1.00
H793   H     0.62907   0.57031   0.77085   0.00000  Uiso   1.00
H794   H     0.62901   0.42962   0.72948   0.00000  Uiso   1.00
H795   H     0.37098   0.57035   0.77072   0.00000  Uiso   1.00
H796   H     0.42382   0.56719   0.59620   0.00000  Uiso   1.00
N797   N     0.50000   0.61907   0.75000   0.00000  Uiso   1.00
N798   N     0.50000   0.38093   0.75000   0.00000  Uiso   1.00
O799   O     0.43892   0.53821   0.75000   0.00000  Uiso   1.00
O800   O     0.43197   0.46047   0.88597   0.00000  Uiso   1.00
O801   O     0.56793   0.53896   0.88664   0.00000  Uiso   1.00
O802   O     0.56267   0.44974   0.61395   0.00000  Uiso   1.00
O803   O     0.56108   0.46179   0.75001   0.00000  Uiso   1.00
O804   O     0.56108   0.53821   0.75001   0.00000  Uiso   1.00
O805   O     0.43892   0.46179   0.75000   0.00000  Uiso   1.00
O806   O     0.50000   0.53822   0.68453   0.00000  Uiso   1.00
O807   O     0.50000   0.46178   0.81547   0.00000  Uiso   1.00
O808   O     0.50000   0.53822   0.81547   0.00000  Uiso   1.00
O809   O     0.50000   0.46178   0.68453   0.00000  Uiso   1.00
O810   O     0.44280   0.55119   0.61707   0.00000  Uiso   1.00
Zn811  Zn    0.50000   0.55104   0.75000   0.00000  Uiso   1.00
Zn812  Zn    0.50000   0.44896   0.75000   0.00000  Uiso   1.00
C813   C     0.75330   0.50000   0.74999   0.00000  Uiso   1.00
C814   C     0.97868   0.53961   0.76158   0.00000  Uiso   1.00
C815   C     0.97865   0.46034   0.73872   0.00000  Uiso   1.00
C816   C     0.68801   0.53962   0.76152   0.00000  Uiso   1.00
C817   C     0.80459   0.52535   0.54649   0.00000  Uiso   1.00
C818   C     0.80063   0.47823   0.95305   0.00000  Uiso   1.00
C819   C     0.86627   0.51943   0.95336   0.00000  Uiso   1.00
C820   C     0.86303   0.47270   0.54685   0.00000  Uiso   1.00
C821   C     0.80491   0.52627   0.59309   0.00000  Uiso   1.00
C822   C     0.79966   0.47925   0.90683   0.00000  Uiso   1.00
C823   C     0.86702   0.51959   0.90715   0.00000  Uiso   1.00
C824   C     0.91337   0.49999   0.75005   0.00000  Uiso   1.00
C825   C     0.86467   0.47397   0.59301   0.00000  Uiso   1.00
C826   C     0.83487   0.50033   0.61606   0.00000  Uiso   1.00
C827   C     0.83329   0.49970   0.88374   0.00000  Uiso   1.00
C828   C     0.83345   0.49850   0.52396   0.00000  Uiso   1.00
C829   C     0.83352   0.49852   0.97593   0.00000  Uiso   1.00
C830   C     0.95751   0.49998   0.75013   0.00000  Uiso   1.00
C831   C     0.70915   0.49999   0.75007   0.00000  Uiso   1.00
C832   C     0.83380   0.50008   0.66401   0.00000  Uiso   1.00
C833   C     0.83332   0.49993   0.83592   0.00000  Uiso   1.00
C834   C     0.86016   0.35723   0.77677   0.00000  Uiso   1.00
C835   C     0.80652   0.64277   0.72322   0.00000  Uiso   1.00
C836   C     0.80651   0.35740   0.72323   0.00000  Uiso   1.00
C837   C     0.86016   0.64259   0.77677   0.00000  Uiso   1.00
C838   C     0.68797   0.46034   0.73870   0.00000  Uiso   1.00
F839   F     0.77660   0.55049   0.52293   0.00000  Uiso   1.00
F840   F     0.76905   0.45810   0.97582   0.00000  Uiso   1.00
F841   F     0.89786   0.53924   0.97644   0.00000  Uiso   1.00
F842   F     0.89093   0.44700   0.52409   0.00000  Uiso   1.00
H843   H     0.88160   0.37533   0.79817   0.00000  Uiso   1.00
H844   H     0.76373   0.47071   0.85453   0.00000  Uiso   1.00
H845   H     0.90257   0.52982   0.85492   0.00000  Uiso   1.00
H846   H     0.90080   0.46201   0.64426   0.00000  Uiso   1.00
H847   H     0.78509   0.62466   0.70180   0.00000  Uiso   1.00
H848   H     0.78507   0.37564   0.70182   0.00000  Uiso   1.00
H849   H     0.88159   0.62434   0.79818   0.00000  Uiso   1.00
H850   H     0.70425   0.42962   0.72946   0.00000  Uiso   1.00
H851   H     0.96240   0.57031   0.77085   0.00000  Uiso   1.00
H852   H     0.96234   0.42962   0.72948   0.00000  Uiso   1.00
H853   H     0.70432   0.57035   0.77072   0.00000  Uiso   1.00
H854   H     0.75716   0.56719   0.59620   0.00000  Uiso   1.00
N855   N     0.83333   0.61907   0.75000   0.00000  Uiso   1.00
N856   N     0.83333   0.38093   0.75000   0.00000  Uiso   1.00
O857   O     0.77226   0.53821   0.75000   0.00000  Uiso   1.00
O858   O     0.76530   0.46047   0.88597   0.00000  Uiso   1.00
O859   O     0.90126   0.53896   0.88664   0.00000  Uiso   1.00
O860   O     0.89600   0.44974   0.61395   0.00000  Uiso   1.00
O861   O     0.89441   0.46179   0.75001   0.00000  Uiso   1.00
O862   O     0.89441   0.53821   0.75001   0.00000  Uiso   1.00
O863   O     0.77226   0.46179   0.75000   0.00000  Uiso   1.00
O864   O     0.83333   0.53822   0.68453   0.00000  Uiso   1.00
O865   O     0.83334   0.46178   0.81547   0.00000  Uiso   1.00
O866   O     0.83334   0.53822   0.81547   0.00000  Uiso   1.00
O867   O     0.83333   0.46178   0.68453   0.00000  Uiso   1.00
O868   O     0.77614   0.55119   0.61707   0.00000  Uiso   1.00
Zn869  Zn    0.83333   0.55104   0.75000   0.00000  Uiso   1.00
Zn870  Zn    0.83333   0.44896   0.75000   0.00000  Uiso   1.00
C871   C     0.08663   0.83334   0.74999   0.00000  Uiso   1.00
C872   C     0.31202   0.87294   0.76158   0.00000  Uiso   1.00
C873   C     0.31198   0.79367   0.73872   0.00000  Uiso   1.00
C874   C     0.02134   0.87295   0.76152   0.00000  Uiso   1.00
C875   C     0.13792   0.85868   0.54649   0.00000  Uiso   1.00
C876   C     0.13397   0.81157   0.95305   0.00000  Uiso   1.00
C877   C     0.19961   0.85276   0.95336   0.00000  Uiso   1.00
C878   C     0.19636   0.80603   0.54685   0.00000  Uiso   1.00
C879   C     0.13824   0.85960   0.59309   0.00000  Uiso   1.00
C880   C     0.13300   0.81258   0.90683   0.00000  Uiso   1.00
C881   C     0.20035   0.85292   0.90715   0.00000  Uiso   1.00
C882   C     0.24670   0.83333   0.75005   0.00000  Uiso   1.00
C883   C     0.19800   0.80730   0.59301   0.00000  Uiso   1.00
C884   C     0.16821   0.83367   0.61606   0.00000  Uiso   1.00
C885   C     0.16662   0.83303   0.88374   0.00000  Uiso   1.00
C886   C     0.16678   0.83184   0.52396   0.00000  Uiso   1.00
C887   C     0.16685   0.83186   0.97593   0.00000  Uiso   1.00
C888   C     0.29084   0.83331   0.75013   0.00000  Uiso   1.00
C889   C     0.04249   0.83333   0.75007   0.00000  Uiso   1.00
C890   C     0.16713   0.83341   0.66401   0.00000  Uiso   1.00
C891   C     0.16665   0.83326   0.83592   0.00000  Uiso   1.00
C892   C     0.19349   0.69056   0.77677   0.00000  Uiso   1.00
C893   C     0.13985   0.97610   0.72322   0.00000  Uiso   1.00
C894   C     0.13985   0.69073   0.72323   0.00000  Uiso   1.00
C895   C     0.19349   0.97593   0.77677   0.00000  Uiso   1.00
C896   C     0.02130   0.79368   0.73870   0.00000  Uiso   1.00
F897   F     0.10993   0.88383   0.52293   0.00000  Uiso   1.00
F898   F     0.10239   0.79143   0.97582   0.00000  Uiso   1.00
F899   F     0.23119   0.87258   0.97644   0.00000  Uiso   1.00
F900   F     0.22426   0.78034   0.52409   0.00000  Uiso   1.00
H901   H     0.21493   0.70866   0.79817   0.00000  Uiso   1.00
H902   H     0.09706   0.80405   0.85453   0.00000  Uiso   1.00
H903   H     0.23590   0.86315   0.85492   0.00000  Uiso   1.00
H904   H     0.23413   0.79535   0.64426   0.00000  Uiso   1.00
H905   H     0.11842   0.95800   0.70180   0.00000  Uiso   1.00
H906   H     0.11840   0.70898   0.70182   0.00000  Uiso   1.00
H907   H     0.21493   0.95768   0.79818   0.00000  Uiso   1.00
H908   H     0.03758   0.76296   0.72946   0.00000  Uiso   1.00
H909   H     0.29573   0.90365   0.77085   0.00000  Uiso   1.00
H910   H     0.29568   0.76296   0.72948   0.00000  Uiso   1.00
H911   H     0.03765   0.90368   0.77072   0.00000  Uiso   1.00
H912   H     0.09049   0.90053   0.59620   0.00000  Uiso   1.00
N913   N     0.16667   0.95240   0.75000   0.00000  Uiso   1.00
N914   N     0.16667   0.71427   0.75000   0.00000  Uiso   1.00
O915   O     0.10559   0.87154   0.75000   0.00000  Uiso   1.00
O916   O     0.09863   0.79380   0.88597   0.00000  Uiso   1.00
O917   O     0.23460   0.87229   0.88664   0.00000  Uiso   1.00
O918   O     0.22933   0.78308   0.61395   0.00000  Uiso   1.00
O919   O     0.22774   0.79513   0.75001   0.00000  Uiso   1.00
O920   O     0.22774   0.87154   0.75001   0.00000  Uiso   1.00
O921   O     0.10559   0.79513   0.75000   0.00000  Uiso   1.00
O922   O     0.16666   0.87155   0.68453   0.00000  Uiso   1.00
O923   O     0.16667   0.79511   0.81547   0.00000  Uiso   1.00
O924   O     0.16667   0.87155   0.81547   0.00000  Uiso   1.00
O925   O     0.16666   0.79511   0.68453   0.00000  Uiso   1.00
O926   O     0.10947   0.88452   0.61707   0.00000  Uiso   1.00
Zn927  Zn    0.16667   0.88437   0.75000   0.00000  Uiso   1.00
Zn928  Zn    0.16667   0.78229   0.75000   0.00000  Uiso   1.00
C929   C     0.41996   0.83334   0.74999   0.00000  Uiso   1.00
C930   C     0.64535   0.87294   0.76158   0.00000  Uiso   1.00
C931   C     0.64532   0.79367   0.73872   0.00000  Uiso   1.00
C932   C     0.35467   0.87295   0.76152   0.00000  Uiso   1.00
C933   C     0.47125   0.85868   0.54649   0.00000  Uiso   1.00
C934   C     0.46730   0.81157   0.95305   0.00000  Uiso   1.00
C935   C     0.53294   0.85276   0.95336   0.00000  Uiso   1.00
C936   C     0.52969   0.80603   0.54685   0.00000  Uiso   1.00
C937   C     0.47157   0.85960   0.59309   0.00000  Uiso   1.00
C938   C     0.46633   0.81258   0.90683   0.00000  Uiso   1.00
C939   C     0.53368   0.85292   0.90715   0.00000  Uiso   1.00
C940   C     0.58003   0.83333   0.75005   0.00000  Uiso   1.00
C941   C     0.53133   0.80730   0.59301   0.00000  Uiso   1.00
C942   C     0.50154   0.83367   0.61606   0.00000  Uiso   1.00
C943   C     0.49995   0.83303   0.88374   0.00000  Uiso   1.00
C944   C     0.50012   0.83184   0.52396   0.00000  Uiso   1.00
C945   C     0.50018   0.83186   0.97593   0.00000  Uiso   1.00
C946   C     0.62417   0.83331   0.75013   0.00000  Uiso   1.00
C947   C     0.37582   0.83333   0.75007   0.00000  Uiso   1.00
C948   C     0.50047   0.83341   0.66401   0.00000  Uiso   1.00
C949   C     0.49998   0.83326   0.83592   0.00000  Uiso   1.00
C950   C     0.52682   0.69056   0.77677   0.00000  Uiso   1.00
C951   C     0.47319   0.97610   0.72322   0.00000  Uiso   1.00
C952   C     0.47318   0.69073   0.72323   0.00000  Uiso   1.00
C953   C     0.52682   0.97593   0.77677   0.00000  Uiso   1.00
C954   C     0.35464   0.79368   0.73870   0.00000  Uiso   1.00
F955   F     0.44327   0.88383   0.52293   0.00000  Uiso   1.00
F956   F     0.43572   0.79143   0.97582   0.00000  Uiso   1.00
F957   F     0.56453   0.87258   0.97644   0.00000  Uiso   1.00
F958   F     0.55759   0.78034   0.52409   0.00000  Uiso   1.00
H959   H     0.54827   0.70866   0.79817   0.00000  Uiso   1.00
H960   H     0.43040   0.80405   0.85453   0.00000  Uiso   1.00
H961   H     0.56923   0.86315   0.85492   0.00000  Uiso   1.00
H962   H     0.56746   0.79535   0.64426   0.00000  Uiso   1.00
H963   H     0.45176   0.95800   0.70180   0.00000  Uiso   1.00
H964   H     0.45174   0.70898   0.70182   0.00000  Uiso   1.00
H965   H     0.54826   0.95768   0.79818   0.00000  Uiso   1.00
H966   H     0.37091   0.76296   0.72946   0.00000  Uiso   1.00
H967   H     0.62907   0.90365   0.77085   0.00000  Uiso   1.00
H968   H     0.62901   0.76296   0.72948   0.00000  Uiso   1.00
H969   H     0.37098   0.90368   0.77072   0.00000  Uiso   1.00
H970   H     0.42382   0.90053   0.59620   0.00000  Uiso   1.00
N971   N     0.50000   0.95240   0.75000   0.00000  Uiso   1.00
N972   N     0.50000   0.71427   0.75000   0.00000  Uiso   1.00
O973   O     0.43892   0.87154   0.75000   0.00000  Uiso   1.00
O974   O     0.43197   0.79380   0.88597   0.00000  Uiso   1.00
O975   O     0.56793   0.87229   0.88664   0.00000  Uiso   1.00
O976   O     0.56267   0.78308   0.61395   0.00000  Uiso   1.00
O977   O     0.56108   0.79513   0.75001   0.00000  Uiso   1.00
O978   O     0.56108   0.87154   0.75001   0.00000  Uiso   1.00
O979   O     0.43892   0.79513   0.75000   0.00000  Uiso   1.00
O980   O     0.50000   0.87155   0.68453   0.00000  Uiso   1.00
O981   O     0.50000   0.79511   0.81547   0.00000  Uiso   1.00
O982   O     0.50000   0.87155   0.81547   0.00000  Uiso   1.00
O983   O     0.50000   0.79511   0.68453   0.00000  Uiso   1.00
O984   O     0.44280   0.88452   0.61707   0.00000  Uiso   1.00
Zn985  Zn    0.50000   0.88437   0.75000   0.00000  Uiso   1.00
Zn986  Zn    0.50000   0.78229   0.75000   0.00000  Uiso   1.00
C987   C     0.75330   0.83334   0.74999   0.00000  Uiso   1.00
C988   C     0.97868   0.87294   0.76158   0.00000  Uiso   1.00
C989   C     0.97865   0.79367   0.73872   0.00000  Uiso   1.00
C990   C     0.68801   0.87295   0.76152   0.00000  Uiso   1.00
C991   C     0.80459   0.85868   0.54649   0.00000  Uiso   1.00
C992   C     0.80063   0.81157   0.95305   0.00000  Uiso   1.00
C993   C     0.86627   0.85276   0.95336   0.00000  Uiso   1.00
C994   C     0.86303   0.80603   0.54685   0.00000  Uiso   1.00
C995   C     0.80491   0.85960   0.59309   0.00000  Uiso   1.00
C996   C     0.79966   0.81258   0.90683   0.00000  Uiso   1.00
C997   C     0.86702   0.85292   0.90715   0.00000  Uiso   1.00
C998   C     0.91337   0.83333   0.75005   0.00000  Uiso   1.00
C999   C     0.86467   0.80730   0.59301   0.00000  Uiso   1.00
C1000  C     0.83487   0.83367   0.61606   0.00000  Uiso   1.00
C1001  C     0.83329   0.83303   0.88374   0.00000  Uiso   1.00
C1002  C     0.83345   0.83184   0.52396   0.00000  Uiso   1.00
C1003  C     0.83352   0.83186   0.97593   0.00000  Uiso   1.00
C1004  C     0.95751   0.83331   0.75013   0.00000  Uiso   1.00
C1005  C     0.70915   0.83333   0.75007   0.00000  Uiso   1.00
C1006  C     0.83380   0.83341   0.66401   0.00000  Uiso   1.00
C1007  C     0.83332   0.83326   0.83592   0.00000  Uiso   1.00
C1008  C     0.86016   0.69056   0.77677   0.00000  Uiso   1.00
C1009  C     0.80652   0.97610   0.72322   0.00000  Uiso   1.00
C1010  C     0.80651   0.69073   0.72323   0.00000  Uiso   1.00
C1011  C     0.86016   0.97593   0.77677   0.00000  Uiso   1.00
C1012  C     0.68797   0.79368   0.73870   0.00000  Uiso   1.00
F1013  F     0.77660   0.88383   0.52293   0.00000  Uiso   1.00
F1014  F     0.76905   0.79143   0.97582   0.00000  Uiso   1.00
F1015  F     0.89786   0.87258   0.97644   0.00000  Uiso   1.00
F1016  F     0.89093   0.78034   0.52409   0.00000  Uiso   1.00
H1017  H     0.88160   0.70866   0.79817   0.00000  Uiso   1.00
H1018  H     0.76373   0.80405   0.85453   0.00000  Uiso   1.00
H1019  H     0.90257   0.86315   0.85492   0.00000  Uiso   1.00
H1020  H     0.90080   0.79535   0.64426   0.00000  Uiso   1.00
H1021  H     0.78509   0.95800   0.70180   0.00000  Uiso   1.00
H1022  H     0.78507   0.70898   0.70182   0.00000  Uiso   1.00
H1023  H     0.88159   0.95768   0.79818   0.00000  Uiso   1.00
H1024  H     0.70425   0.76296   0.72946   0.00000  Uiso   1.00
H1025  H     0.96240   0.90365   0.77085   0.00000  Uiso   1.00
H1026  H     0.96234   0.76296   0.72948   0.00000  Uiso   1.00
H1027  H     0.70432   0.90368   0.77072   0.00000  Uiso   1.00
H1028  H     0.75716   0.90053   0.59620   0.00000  Uiso   1.00
N1029  N     0.83333   0.95240   0.75000   0.00000  Uiso   1.00
N1030  N     0.83333   0.71427   0.75000   0.00000  Uiso   1.00
O1031  O     0.77226   0.87154   0.75000   0.00000  Uiso   1.00
O1032  O     0.76530   0.79380   0.88597   0.00000  Uiso   1.00
O1033  O     0.90126   0.87229   0.88664   0.00000  Uiso   1.00
O1034  O     0.89600   0.78308   0.61395   0.00000  Uiso   1.00
O1035  O     0.89441   0.79513   0.75001   0.00000  Uiso   1.00
O1036  O     0.89441   0.87154   0.75001   0.00000  Uiso   1.00
O1037  O     0.77226   0.79513   0.75000   0.00000  Uiso   1.00
O1038  O     0.83333   0.87155   0.68453   0.00000  Uiso   1.00
O1039  O     0.83334   0.79511   0.81547   0.00000  Uiso   1.00
O1040  O     0.83334   0.87155   0.81547   0.00000  Uiso   1.00
O1041  O     0.83333   0.79511   0.68453   0.00000  Uiso   1.00
O1042  O     0.77614   0.88452   0.61707   0.00000  Uiso   1.00
Zn1043 Zn    0.83333   0.88437   0.75000   0.00000  Uiso   1.00
Zn1044 Zn    0.83333   0.78229   0.75000   0.00000  Uiso   1.00
loop_
_geom_bond_atom_site_label_1
_geom_bond_atom_site_label_2
_geom_bond_distance
_geom_bond_site_symmetry_2
_ccdc_geom_bond_type
C1     O51     1.282   .     A
C1     O45     1.282   .     A
C1     C19     1.418   .     S
C2     C18     1.397   .     A
C2     H39     1.084   .     S
C2     C62     1.370   .     S
C3     H40     1.084   .     S
C3     C18     1.397   .     A
C3     C84     1.370   .     S
C4     H41     1.084   .     S
C4     C19     1.397   .     A
C4     C118    1.370   1_455 S
C5     C9      1.395   .     A
C5     C16     1.396   .     A
C5     F27     1.360   .     S
C6     C10     1.383   .     A
C6     F28     1.359   .     S
C6     C17     1.394   .     A
C7     F29     1.359   .     S
C7     C11     1.383   .     A
C7     C17     1.395   .     A
C8     C13     1.383   .     A
C8     F30     1.359   .     S
C8     C16     1.395   .     A
C9     C14     1.407   .     A
C9     O56     1.384   .     S
C10    O46     1.384   .     S
C10    C15     1.418   .     A
C11    O47     1.384   .     S
C11    C15     1.417   .     A
C12    O49     1.282   .     A
C12    C18     1.418   .     S
C12    O50     1.282   .     A
C13    O48     1.383   .     S
C13    C14     1.415   .     A
C14    C20     1.435   .     S
C15    C21     1.431   .     S
C16    C539    1.437   1_554 S
C17    C538    1.437   .     S
C19    C26     1.397   .     A
C20    O55     1.285   .     A
C20    O52     1.284   .     A
C21    O53     1.283   .     A
C21    O54     1.284   .     A
C22    H31     1.082   .     S
C22    N44     1.366   .     A
C22    C373    1.416   1_545 S
C23    H35     1.082   .     S
C23    N43     1.366   .     A
C23    C198    1.416   .     S
C24    H36     1.082   .     S
C24    N44     1.366   .     A
C24    C371    1.416   1_545 S
C25    N43     1.366   .     A
C25    H37     1.082   .     S
C25    C196    1.416   .     S
C26    H38     1.084   .     S
C26    C119    1.370   1_455 S
H32    O46     0.988   .     S
H33    O47     0.988   .     S
H34    O48     0.989   .     S
H42    O56     0.990   .     S
N43    Zn57    2.009   .     S
N44    Zn58    2.009   .     S
O45    Zn57    1.998   .     S
O49    Zn58    1.998   .     S
O50    Zn57    1.998   .     S
O51    Zn58    1.998   .     S
O52    Zn57    1.996   .     S
O53    Zn58    1.996   .     S
O54    Zn57    1.994   .     S
O55    Zn58    1.994   .     S
C59    O109    1.282   .     A
C59    O103    1.282   .     A
C59    C77     1.418   .     S
C60    C76     1.397   .     A
C60    H97     1.084   .     S
C60    C120    1.370   .     S
C61    H98     1.084   .     S
C61    C76     1.397   .     A
C61    C142    1.370   .     S
C62    H99     1.084   .     S
C62    C77     1.397   .     A
C63    C67     1.395   .     A
C63    C74     1.396   .     A
C63    F85     1.360   .     S
C64    C68     1.383   .     A
C64    F86     1.359   .     S
C64    C75     1.394   .     A
C65    F87     1.359   .     S
C65    C69     1.383   .     A
C65    C75     1.395   .     A
C66    C71     1.383   .     A
C66    F88     1.359   .     S
C66    C74     1.395   .     A
C67    C72     1.407   .     A
C67    O114    1.384   .     S
C68    O104    1.384   .     S
C68    C73     1.418   .     A
C69    O105    1.384   .     S
C69    C73     1.417   .     A
C70    O107    1.282   .     A
C70    C76     1.418   .     S
C70    O108    1.282   .     A
C71    O106    1.383   .     S
C71    C72     1.415   .     A
C72    C78     1.435   .     S
C73    C79     1.431   .     S
C74    C597    1.437   1_554 S
C75    C596    1.437   .     S
C77    C84     1.397   .     A
C78    O113    1.285   .     A
C78    O110    1.284   .     A
C79    O111    1.283   .     A
C79    O112    1.284   .     A
C80    H89     1.082   .     S
C80    N102    1.366   .     A
C80    C431    1.416   1_545 S
C81    H93     1.082   .     S
C81    N101    1.366   .     A
C81    C256    1.416   .     S
C82    H94     1.082   .     S
C82    N102    1.366   .     A
C82    C429    1.416   1_545 S
C83    N101    1.366   .     A
C83    H95     1.082   .     S
C83    C254    1.416   .     S
C84    H96     1.084   .     S
H90    O104    0.988   .     S
H91    O105    0.988   .     S
H92    O106    0.989   .     S
H100   O114    0.990   .     S
N101   Zn115   2.009   .     S
N102   Zn116   2.009   .     S
O103   Zn115   1.998   .     S
O107   Zn116   1.998   .     S
O108   Zn115   1.998   .     S
O109   Zn116   1.998   .     S
O110   Zn115   1.996   .     S
O111   Zn116   1.996   .     S
O112   Zn115   1.994   .     S
O113   Zn116   1.994   .     S
C117   O167    1.282   .     A
C117   O161    1.282   .     A
C117   C135    1.418   .     S
C118   C134    1.397   .     A
C118   H155    1.084   .     S
C118   C4      1.370   1_655 S
C119   H156    1.084   .     S
C119   C134    1.397   .     A
C119   C26     1.370   1_655 S
C120   H157    1.084   .     S
C120   C135    1.397   .     A
C121   C125    1.395   .     A
C121   C132    1.396   .     A
C121   F143    1.360   .     S
C122   C126    1.383   .     A
C122   F144    1.359   .     S
C122   C133    1.394   .     A
C123   F145    1.359   .     S
C123   C127    1.383   .     A
C123   C133    1.395   .     A
C124   C129    1.383   .     A
C124   F146    1.359   .     S
C124   C132    1.395   .     A
C125   C130    1.407   .     A
C125   O172    1.384   .     S
C126   O162    1.384   .     S
C126   C131    1.418   .     A
C127   O163    1.384   .     S
C127   C131    1.417   .     A
C128   O165    1.282   .     A
C128   C134    1.418   .     S
C128   O166    1.282   .     A
C129   O164    1.383   .     S
C129   C130    1.415   .     A
C130   C136    1.435   .     S
C131   C137    1.431   .     S
C132   C655    1.437   1_554 S
C133   C654    1.437   .     S
C135   C142    1.397   .     A
C136   O171    1.285   .     A
C136   O168    1.284   .     A
C137   O169    1.283   .     A
C137   O170    1.284   .     A
C138   H147    1.082   .     S
C138   N160    1.366   .     A
C138   C489    1.416   1_545 S
C139   H151    1.082   .     S
C139   N159    1.366   .     A
C139   C314    1.416   .     S
C140   H152    1.082   .     S
C140   N160    1.366   .     A
C140   C487    1.416   1_545 S
C141   N159    1.366   .     A
C141   H153    1.082   .     S
C141   C312    1.416   .     S
C142   H154    1.084   .     S
H148   O162    0.988   .     S
H149   O163    0.988   .     S
H150   O164    0.989   .     S
H158   O172    0.990   .     S
N159   Zn173   2.009   .     S
N160   Zn174   2.009   .     S
O161   Zn173   1.998   .     S
O165   Zn174   1.998   .     S
O166   Zn173   1.998   .     S
O167   Zn174   1.998   .     S
O168   Zn173   1.996   .     S
O169   Zn174   1.996   .     S
O170   Zn173   1.994   .     S
O171   Zn174   1.994   .     S
C175   O225    1.282   .     A
C175   O219    1.282   .     A
C175   C193    1.418   .     S
C176   C192    1.397   .     A
C176   H213    1.084   .     S
C176   C236    1.370   .     S
C177   H214    1.084   .     S
C177   C192    1.397   .     A
C177   C258    1.370   .     S
C178   H215    1.084   .     S
C178   C193    1.397   .     A
C178   C292    1.370   1_455 S
C179   C183    1.395   .     A
C179   C190    1.396   .     A
C179   F201    1.360   .     S
C180   C184    1.383   .     A
C180   F202    1.359   .     S
C180   C191    1.394   .     A
C181   F203    1.359   .     S
C181   C185    1.383   .     A
C181   C191    1.395   .     A
C182   C187    1.383   .     A
C182   F204    1.359   .     S
C182   C190    1.395   .     A
C183   C188    1.407   .     A
C183   O230    1.384   .     S
C184   O220    1.384   .     S
C184   C189    1.418   .     A
C185   O221    1.384   .     S
C185   C189    1.417   .     A
C186   O223    1.282   .     A
C186   C192    1.418   .     S
C186   O224    1.282   .     A
C187   O222    1.383   .     S
C187   C188    1.415   .     A
C188   C194    1.435   .     S
C189   C195    1.431   .     S
C190   C713    1.437   1_554 S
C191   C712    1.437   .     S
C193   C200    1.397   .     A
C194   O229    1.285   .     A
C194   O226    1.284   .     A
C195   O227    1.283   .     A
C195   O228    1.284   .     A
C196   H205    1.082   .     S
C196   N218    1.366   .     A
C197   H209    1.082   .     S
C197   N217    1.366   .     A
C197   C372    1.416   .     S
C198   H210    1.082   .     S
C198   N218    1.366   .     A
C199   N217    1.366   .     A
C199   H211    1.082   .     S
C199   C370    1.416   .     S
C200   H212    1.084   .     S
C200   C293    1.370   1_455 S
H206   O220    0.988   .     S
H207   O221    0.988   .     S
H208   O222    0.989   .     S
H216   O230    0.990   .     S
N217   Zn231   2.009   .     S
N218   Zn232   2.009   .     S
O219   Zn231   1.998   .     S
O223   Zn232   1.998   .     S
O224   Zn231   1.998   .     S
O225   Zn232   1.998   .     S
O226   Zn231   1.996   .     S
O227   Zn232   1.996   .     S
O228   Zn231   1.994   .     S
O229   Zn232   1.994   .     S
C233   O283    1.282   .     A
C233   O277    1.282   .     A
C233   C251    1.418   .     S
C234   C250    1.397   .     A
C234   H271    1.084   .     S
C234   C294    1.370   .     S
C235   H272    1.084   .     S
C235   C250    1.397   .     A
C235   C316    1.370   .     S
C236   H273    1.084   .     S
C236   C251    1.397   .     A
C237   C241    1.395   .     A
C237   C248    1.396   .     A
C237   F259    1.360   .     S
C238   C242    1.383   .     A
C238   F260    1.359   .     S
C238   C249    1.394   .     A
C239   F261    1.359   .     S
C239   C243    1.383   .     A
C239   C249    1.395   .     A
C240   C245    1.383   .     A
C240   F262    1.359   .     S
C240   C248    1.395   .     A
C241   C246    1.407   .     A
C241   O288    1.384   .     S
C242   O278    1.384   .     S
C242   C247    1.418   .     A
C243   O279    1.384   .     S
C243   C247    1.417   .     A
C244   O281    1.282   .     A
C244   C250    1.418   .     S
C244   O282    1.282   .     A
C245   O280    1.383   .     S
C245   C246    1.415   .     A
C246   C252    1.435   .     S
C247   C253    1.431   .     S
C248   C771    1.437   1_554 S
C249   C770    1.437   .     S
C251   C258    1.397   .     A
C252   O287    1.285   .     A
C252   O284    1.284   .     A
C253   O285    1.283   .     A
C253   O286    1.284   .     A
C254   H263    1.082   .     S
C254   N276    1.366   .     A
C255   H267    1.082   .     S
C255   N275    1.366   .     A
C255   C430    1.416   .     S
C256   H268    1.082   .     S
C256   N276    1.366   .     A
C257   N275    1.366   .     A
C257   H269    1.082   .     S
C257   C428    1.416   .     S
C258   H270    1.084   .     S
H264   O278    0.988   .     S
H265   O279    0.988   .     S
H266   O280    0.989   .     S
H274   O288    0.990   .     S
N275   Zn289   2.009   .     S
N276   Zn290   2.009   .     S
O277   Zn289   1.998   .     S
O281   Zn290   1.998   .     S
O282   Zn289   1.998   .     S
O283   Zn290   1.998   .     S
O284   Zn289   1.996   .     S
O285   Zn290   1.996   .     S
O286   Zn289   1.994   .     S
O287   Zn290   1.994   .     S
C291   O341    1.282   .     A
C291   O335    1.282   .     A
C291   C309    1.418   .     S
C292   C308    1.397   .     A
C292   H329    1.084   .     S
C292   C178    1.370   1_655 S
C293   H330    1.084   .     S
C293   C308    1.397   .     A
C293   C200    1.370   1_655 S
C294   H331    1.084   .     S
C294   C309    1.397   .     A
C295   C299    1.395   .     A
C295   C306    1.396   .     A
C295   F317    1.360   .     S
C296   C300    1.383   .     A
C296   F318    1.359   .     S
C296   C307    1.394   .     A
C297   F319    1.359   .     S
C297   C301    1.383   .     A
C297   C307    1.395   .     A
C298   C303    1.383   .     A
C298   F320    1.359   .     S
C298   C306    1.395   .     A
C299   C304    1.407   .     A
C299   O346    1.384   .     S
C300   O336    1.384   .     S
C300   C305    1.418   .     A
C301   O337    1.384   .     S
C301   C305    1.417   .     A
C302   O339    1.282   .     A
C302   C308    1.418   .     S
C302   O340    1.282   .     A
C303   O338    1.383   .     S
C303   C304    1.415   .     A
C304   C310    1.435   .     S
C305   C311    1.431   .     S
C306   C829    1.437   1_554 S
C307   C828    1.437   .     S
C309   C316    1.397   .     A
C310   O345    1.285   .     A
C310   O342    1.284   .     A
C311   O343    1.283   .     A
C311   O344    1.284   .     A
C312   H321    1.082   .     S
C312   N334    1.366   .     A
C313   H325    1.082   .     S
C313   N333    1.366   .     A
C313   C488    1.416   .     S
C314   H326    1.082   .     S
C314   N334    1.366   .     A
C315   N333    1.366   .     A
C315   H327    1.082   .     S
C315   C486    1.416   .     S
C316   H328    1.084   .     S
H322   O336    0.988   .     S
H323   O337    0.988   .     S
H324   O338    0.989   .     S
H332   O346    0.990   .     S
N333   Zn347   2.009   .     S
N334   Zn348   2.009   .     S
O335   Zn347   1.998   .     S
O339   Zn348   1.998   .     S
O340   Zn347   1.998   .     S
O341   Zn348   1.998   .     S
O342   Zn347   1.996   .     S
O343   Zn348   1.996   .     S
O344   Zn347   1.994   .     S
O345   Zn348   1.994   .     S
C349   O399    1.282   .     A
C349   O393    1.282   .     A
C349   C367    1.418   .     S
C350   C366    1.397   .     A
C350   H387    1.084   .     S
C350   C410    1.370   .     S
C351   H388    1.084   .     S
C351   C366    1.397   .     A
C351   C432    1.370   .     S
C352   H389    1.084   .     S
C352   C367    1.397   .     A
C352   C466    1.370   1_455 S
C353   C357    1.395   .     A
C353   C364    1.396   .     A
C353   F375    1.360   .     S
C354   C358    1.383   .     A
C354   F376    1.359   .     S
C354   C365    1.394   .     A
C355   F377    1.359   .     S
C355   C359    1.383   .     A
C355   C365    1.395   .     A
C356   C361    1.383   .     A
C356   F378    1.359   .     S
C356   C364    1.395   .     A
C357   C362    1.407   .     A
C357   O404    1.384   .     S
C358   O394    1.384   .     S
C358   C363    1.418   .     A
C359   O395    1.384   .     S
C359   C363    1.417   .     A
C360   O397    1.282   .     A
C360   C366    1.418   .     S
C360   O398    1.282   .     A
C361   O396    1.383   .     S
C361   C362    1.415   .     A
C362   C368    1.435   .     S
C363   C369    1.431   .     S
C364   C887    1.437   1_554 S
C365   C886    1.437   .     S
C367   C374    1.397   .     A
C368   O403    1.285   .     A
C368   O400    1.284   .     A
C369   O401    1.283   .     A
C369   O402    1.284   .     A
C370   H379    1.082   .     S
C370   N392    1.366   .     A
C371   H383    1.082   .     S
C371   N391    1.366   .     A
C371   C24     1.416   1_565 S
C372   H384    1.082   .     S
C372   N392    1.366   .     A
C373   N391    1.366   .     A
C373   H385    1.082   .     S
C373   C22     1.416   1_565 S
C374   H386    1.084   .     S
C374   C467    1.370   1_455 S
H380   O394    0.988   .     S
H381   O395    0.988   .     S
H382   O396    0.989   .     S
H390   O404    0.990   .     S
N391   Zn405   2.009   .     S
N392   Zn406   2.009   .     S
O393   Zn405   1.998   .     S
O397   Zn406   1.998   .     S
O398   Zn405   1.998   .     S
O399   Zn406   1.998   .     S
O400   Zn405   1.996   .     S
O401   Zn406   1.996   .     S
O402   Zn405   1.994   .     S
O403   Zn406   1.994   .     S
C407   O457    1.282   .     A
C407   O451    1.282   .     A
C407   C425    1.418   .     S
C408   C424    1.397   .     A
C408   H445    1.084   .     S
C408   C468    1.370   .     S
C409   H446    1.084   .     S
C409   C424    1.397   .     A
C409   C490    1.370   .     S
C410   H447    1.084   .     S
C410   C425    1.397   .     A
C411   C415    1.395   .     A
C411   C422    1.396   .     A
C411   F433    1.360   .     S
C412   C416    1.383   .     A
C412   F434    1.359   .     S
C412   C423    1.394   .     A
C413   F435    1.359   .     S
C413   C417    1.383   .     A
C413   C423    1.395   .     A
C414   C419    1.383   .     A
C414   F436    1.359   .     S
C414   C422    1.395   .     A
C415   C420    1.407   .     A
C415   O462    1.384   .     S
C416   O452    1.384   .     S
C416   C421    1.418   .     A
C417   O453    1.384   .     S
C417   C421    1.417   .     A
C418   O455    1.282   .     A
C418   C424    1.418   .     S
C418   O456    1.282   .     A
C419   O454    1.383   .     S
C419   C420    1.415   .     A
C420   C426    1.435   .     S
C421   C427    1.431   .     S
C422   C945    1.437   1_554 S
C423   C944    1.437   .     S
C425   C432    1.397   .     A
C426   O461    1.285   .     A
C426   O458    1.284   .     A
C427   O459    1.283   .     A
C427   O460    1.284   .     A
C428   H437    1.082   .     S
C428   N450    1.366   .     A
C429   H441    1.082   .     S
C429   N449    1.366   .     A
C429   C82     1.416   1_565 S
C430   H442    1.082   .     S
C430   N450    1.366   .     A
C431   N449    1.366   .     A
C431   H443    1.082   .     S
C431   C80     1.416   1_565 S
C432   H444    1.084   .     S
H438   O452    0.988   .     S
H439   O453    0.988   .     S
H440   O454    0.989   .     S
H448   O462    0.990   .     S
N449   Zn463   2.009   .     S
N450   Zn464   2.009   .     S
O451   Zn463   1.998   .     S
O455   Zn464   1.998   .     S
O456   Zn463   1.998   .     S
O457   Zn464   1.998   .     S
O458   Zn463   1.996   .     S
O459   Zn464   1.996   .     S
O460   Zn463   1.994   .     S
O461   Zn464   1.994   .     S
C465   O515    1.282   .     A
C465   O509    1.282   .     A
C465   C483    1.418   .     S
C466   C482    1.397   .     A
C466   H503    1.084   .     S
C466   C352    1.370   1_655 S
C467   H504    1.084   .     S
C467   C482    1.397   .     A
C467   C374    1.370   1_655 S
C468   H505    1.084   .     S
C468   C483    1.397   .     A
C469   C473    1.395   .     A
C469   C480    1.396   .     A
C469   F491    1.360   .     S
C470   C474    1.383   .     A
C470   F492    1.359   .     S
C470   C481    1.394   .     A
C471   F493    1.359   .     S
C471   C475    1.383   .     A
C471   C481    1.395   .     A
C472   C477    1.383   .     A
C472   F494    1.359   .     S
C472   C480    1.395   .     A
C473   C478    1.407   .     A
C473   O520    1.384   .     S
C474   O510    1.384   .     S
C474   C479    1.418   .     A
C475   O511    1.384   .     S
C475   C479    1.417   .     A
C476   O513    1.282   .     A
C476   C482    1.418   .     S
C476   O514    1.282   .     A
C477   O512    1.383   .     S
C477   C478    1.415   .     A
C478   C484    1.435   .     S
C479   C485    1.431   .     S
C480   C1003   1.437   1_554 S
C481   C1002   1.437   .     S
C483   C490    1.397   .     A
C484   O519    1.285   .     A
C484   O516    1.284   .     A
C485   O517    1.283   .     A
C485   O518    1.284   .     A
C486   H495    1.082   .     S
C486   N508    1.366   .     A
C487   H499    1.082   .     S
C487   N507    1.366   .     A
C487   C140    1.416   1_565 S
C488   H500    1.082   .     S
C488   N508    1.366   .     A
C489   N507    1.366   .     A
C489   H501    1.082   .     S
C489   C138    1.416   1_565 S
C490   H502    1.084   .     S
H496   O510    0.988   .     S
H497   O511    0.988   .     S
H498   O512    0.989   .     S
H506   O520    0.990   .     S
N507   Zn521   2.009   .     S
N508   Zn522   2.009   .     S
O509   Zn521   1.998   .     S
O513   Zn522   1.998   .     S
O514   Zn521   1.998   .     S
O515   Zn522   1.998   .     S
O516   Zn521   1.996   .     S
O517   Zn522   1.996   .     S
O518   Zn521   1.994   .     S
O519   Zn522   1.994   .     S
C523   O573    1.282   .     A
C523   O567    1.282   .     A
C523   C541    1.418   .     S
C524   C540    1.397   .     A
C524   H561    1.084   .     S
C524   C584    1.370   .     S
C525   H562    1.084   .     S
C525   C540    1.397   .     A
C525   C606    1.370   .     S
C526   H563    1.084   .     S
C526   C541    1.397   .     A
C526   C640    1.370   1_455 S
C527   C531    1.395   .     A
C527   C538    1.396   .     A
C527   F549    1.360   .     S
C528   C532    1.383   .     A
C528   F550    1.359   .     S
C528   C539    1.394   .     A
C529   F551    1.359   .     S
C529   C533    1.383   .     A
C529   C539    1.395   .     A
C530   C535    1.383   .     A
C530   F552    1.359   .     S
C530   C538    1.395   .     A
C531   C536    1.407   .     A
C531   O578    1.384   .     S
C532   O568    1.384   .     S
C532   C537    1.418   .     A
C533   O569    1.384   .     S
C533   C537    1.417   .     A
C534   O571    1.282   .     A
C534   C540    1.418   .     S
C534   O572    1.282   .     A
C535   O570    1.383   .     S
C535   C536    1.415   .     A
C536   C542    1.435   .     S
C537   C543    1.431   .     S
C539   C16     1.437   1_556 S
C541   C548    1.397   .     A
C542   O577    1.285   .     A
C542   O574    1.284   .     A
C543   O575    1.283   .     A
C543   O576    1.284   .     A
C544   H553    1.082   .     S
C544   N566    1.366   .     A
C544   C895    1.416   1_545 S
C545   H557    1.082   .     S
C545   N565    1.366   .     A
C545   C720    1.416   .     S
C546   H558    1.082   .     S
C546   N566    1.366   .     A
C546   C893    1.416   1_545 S
C547   N565    1.366   .     A
C547   H559    1.082   .     S
C547   C718    1.416   .     S
C548   H560    1.084   .     S
C548   C641    1.370   1_455 S
H554   O568    0.988   .     S
H555   O569    0.988   .     S
H556   O570    0.989   .     S
H564   O578    0.990   .     S
N565   Zn579   2.009   .     S
N566   Zn580   2.009   .     S
O567   Zn579   1.998   .     S
O571   Zn580   1.998   .     S
O572   Zn579   1.998   .     S
O573   Zn580   1.998   .     S
O574   Zn579   1.996   .     S
O575   Zn580   1.996   .     S
O576   Zn579   1.994   .     S
O577   Zn580   1.994   .     S
C581   O631    1.282   .     A
C581   O625    1.282   .     A
C581   C599    1.418   .     S
C582   C598    1.397   .     A
C582   H619    1.084   .     S
C582   C642    1.370   .     S
C583   H620    1.084   .     S
C583   C598    1.397   .     A
C583   C664    1.370   .     S
C584   H621    1.084   .     S
C584   C599    1.397   .     A
C585   C589    1.395   .     A
C585   C596    1.396   .     A
C585   F607    1.360   .     S
C586   C590    1.383   .     A
C586   F608    1.359   .     S
C586   C597    1.394   .     A
C587   F609    1.359   .     S
C587   C591    1.383   .     A
C587   C597    1.395   .     A
C588   C593    1.383   .     A
C588   F610    1.359   .     S
C588   C596    1.395   .     A
C589   C594    1.407   .     A
C589   O636    1.384   .     S
C590   O626    1.384   .     S
C590   C595    1.418   .     A
C591   O627    1.384   .     S
C591   C595    1.417   .     A
C592   O629    1.282   .     A
C592   C598    1.418   .     S
C592   O630    1.282   .     A
C593   O628    1.383   .     S
C593   C594    1.415   .     A
C594   C600    1.435   .     S
C595   C601    1.431   .     S
C597   C74     1.437   1_556 S
C599   C606    1.397   .     A
C600   O635    1.285   .     A
C600   O632    1.284   .     A
C601   O633    1.283   .     A
C601   O634    1.284   .     A
C602   H611    1.082   .     S
C602   N624    1.366   .     A
C602   C953    1.416   1_545 S
C603   H615    1.082   .     S
C603   N623    1.366   .     A
C603   C778    1.416   .     S
C604   H616    1.082   .     S
C604   N624    1.366   .     A
C604   C951    1.416   1_545 S
C605   N623    1.366   .     A
C605   H617    1.082   .     S
C605   C776    1.416   .     S
C606   H618    1.084   .     S
H612   O626    0.988   .     S
H613   O627    0.988   .     S
H614   O628    0.989   .     S
H622   O636    0.990   .     S
N623   Zn637   2.009   .     S
N624   Zn638   2.009   .     S
O625   Zn637   1.998   .     S
O629   Zn638   1.998   .     S
O630   Zn637   1.998   .     S
O631   Zn638   1.998   .     S
O632   Zn637   1.996   .     S
O633   Zn638   1.996   .     S
O634   Zn637   1.994   .     S
O635   Zn638   1.994   .     S
C639   O689    1.282   .     A
C639   O683    1.282   .     A
C639   C657    1.418   .     S
C640   C656    1.397   .     A
C640   H677    1.084   .     S
C640   C526    1.370   1_655 S
C641   H678    1.084   .     S
C641   C656    1.397   .     A
C641   C548    1.370   1_655 S
C642   H679    1.084   .     S
C642   C657    1.397   .     A
C643   C647    1.395   .     A
C643   C654    1.396   .     A
C643   F665    1.360   .     S
C644   C648    1.383   .     A
C644   F666    1.359   .     S
C644   C655    1.394   .     A
C645   F667    1.359   .     S
C645   C649    1.383   .     A
C645   C655    1.395   .     A
C646   C651    1.383   .     A
C646   F668    1.359   .     S
C646   C654    1.395   .     A
C647   C652    1.407   .     A
C647   O694    1.384   .     S
C648   O684    1.384   .     S
C648   C653    1.418   .     A
C649   O685    1.384   .     S
C649   C653    1.417   .     A
C650   O687    1.282   .     A
C650   C656    1.418   .     S
C650   O688    1.282   .     A
C651   O686    1.383   .     S
C651   C652    1.415   .     A
C652   C658    1.435   .     S
C653   C659    1.431   .     S
C655   C132    1.437   1_556 S
C657   C664    1.397   .     A
C658   O693    1.285   .     A
C658   O690    1.284   .     A
C659   O691    1.283   .     A
C659   O692    1.284   .     A
C660   H669    1.082   .     S
C660   N682    1.366   .     A
C660   C1011   1.416   1_545 S
C661   H673    1.082   .     S
C661   N681    1.366   .     A
C661   C836    1.416   .     S
C662   H674    1.082   .     S
C662   N682    1.366   .     A
C662   C1009   1.416   1_545 S
C663   N681    1.366   .     A
C663   H675    1.082   .     S
C663   C834    1.416   .     S
C664   H676    1.084   .     S
H670   O684    0.988   .     S
H671   O685    0.988   .     S
H672   O686    0.989   .     S
H680   O694    0.990   .     S
N681   Zn695   2.009   .     S
N682   Zn696   2.009   .     S
O683   Zn695   1.998   .     S
O687   Zn696   1.998   .     S
O688   Zn695   1.998   .     S
O689   Zn696   1.998   .     S
O690   Zn695   1.996   .     S
O691   Zn696   1.996   .     S
O692   Zn695   1.994   .     S
O693   Zn696   1.994   .     S
C697   O747    1.282   .     A
C697   O741    1.282   .     A
C697   C715    1.418   .     S
C698   C714    1.397   .     A
C698   H735    1.084   .     S
C698   C758    1.370   .     S
C699   H736    1.084   .     S
C699   C714    1.397   .     A
C699   C780    1.370   .     S
C700   H737    1.084   .     S
C700   C715    1.397   .     A
C700   C814    1.370   1_455 S
C701   C705    1.395   .     A
C701   C712    1.396   .     A
C701   F723    1.360   .     S
C702   C706    1.383   .     A
C702   F724    1.359   .     S
C702   C713    1.394   .     A
C703   F725    1.359   .     S
C703   C707    1.383   .     A
C703   C713    1.395   .     A
C704   C709    1.383   .     A
C704   F726    1.359   .     S
C704   C712    1.395   .     A
C705   C710    1.407   .     A
C705   O752    1.384   .     S
C706   O742    1.384   .     S
C706   C711    1.418   .     A
C707   O743    1.384   .     S
C707   C711    1.417   .     A
C708   O745    1.282   .     A
C708   C714    1.418   .     S
C708   O746    1.282   .     A
C709   O744    1.383   .     S
C709   C710    1.415   .     A
C710   C716    1.435   .     S
C711   C717    1.431   .     S
C713   C190    1.437   1_556 S
C715   C722    1.397   .     A
C716   O751    1.285   .     A
C716   O748    1.284   .     A
C717   O749    1.283   .     A
C717   O750    1.284   .     A
C718   H727    1.082   .     S
C718   N740    1.366   .     A
C719   H731    1.082   .     S
C719   N739    1.366   .     A
C719   C894    1.416   .     S
C720   H732    1.082   .     S
C720   N740    1.366   .     A
C721   N739    1.366   .     A
C721   H733    1.082   .     S
C721   C892    1.416   .     S
C722   H734    1.084   .     S
C722   C815    1.370   1_455 S
H728   O742    0.988   .     S
H729   O743    0.988   .     S
H730   O744    0.989   .     S
H738   O752    0.990   .     S
N739   Zn753   2.009   .     S
N740   Zn754   2.009   .     S
O741   Zn753   1.998   .     S
O745   Zn754   1.998   .     S
O746   Zn753   1.998   .     S
O747   Zn754   1.998   .     S
O748   Zn753   1.996   .     S
O749   Zn754   1.996   .     S
O750   Zn753   1.994   .     S
O751   Zn754   1.994   .     S
C755   O805    1.282   .     A
C755   O799    1.282   .     A
C755   C773    1.418   .     S
C756   C772    1.397   .     A
C756   H793    1.084   .     S
C756   C816    1.370   .     S
C757   H794    1.084   .     S
C757   C772    1.397   .     A
C757   C838    1.370   .     S
C758   H795    1.084   .     S
C758   C773    1.397   .     A
C759   C763    1.395   .     A
C759   C770    1.396   .     A
C759   F781    1.360   .     S
C760   C764    1.383   .     A
C760   F782    1.359   .     S
C760   C771    1.394   .     A
C761   F783    1.359   .     S
C761   C765    1.383   .     A
C761   C771    1.395   .     A
C762   C767    1.383   .     A
C762   F784    1.359   .     S
C762   C770    1.395   .     A
C763   C768    1.407   .     A
C763   O810    1.384   .     S
C764   O800    1.384   .     S
C764   C769    1.418   .     A
C765   O801    1.384   .     S
C765   C769    1.417   .     A
C766   O803    1.282   .     A
C766   C772    1.418   .     S
C766   O804    1.282   .     A
C767   O802    1.383   .     S
C767   C768    1.415   .     A
C768   C774    1.435   .     S
C769   C775    1.431   .     S
C771   C248    1.437   1_556 S
C773   C780    1.397   .     A
C774   O809    1.285   .     A
C774   O806    1.284   .     A
C775   O807    1.283   .     A
C775   O808    1.284   .     A
C776   H785    1.082   .     S
C776   N798    1.366   .     A
C777   H789    1.082   .     S
C777   N797    1.366   .     A
C777   C952    1.416   .     S
C778   H790    1.082   .     S
C778   N798    1.366   .     A
C779   N797    1.366   .     A
C779   H791    1.082   .     S
C779   C950    1.416   .     S
C780   H792    1.084   .     S
H786   O800    0.988   .     S
H787   O801    0.988   .     S
H788   O802    0.989   .     S
H796   O810    0.990   .     S
N797   Zn811   2.009   .     S
N798   Zn812   2.009   .     S
O799   Zn811   1.998   .     S
O803   Zn812   1.998   .     S
O804   Zn811   1.998   .     S
O805   Zn812   1.998   .     S
O806   Zn811   1.996   .     S
O807   Zn812   1.996   .     S
O808   Zn811   1.994   .     S
O809   Zn812   1.994   .     S
C813   O863    1.282   .     A
C813   O857    1.282   .     A
C813   C831    1.418   .     S
C814   C830    1.397   .     A
C814   H851    1.084   .     S
C814   C700    1.370   1_655 S
C815   H852    1.084   .     S
C815   C830    1.397   .     A
C815   C722    1.370   1_655 S
C816   H853    1.084   .     S
C816   C831    1.397   .     A
C817   C821    1.395   .     A
C817   C828    1.396   .     A
C817   F839    1.360   .     S
C818   C822    1.383   .     A
C818   F840    1.359   .     S
C818   C829    1.394   .     A
C819   F841    1.359   .     S
C819   C823    1.383   .     A
C819   C829    1.395   .     A
C820   C825    1.383   .     A
C820   F842    1.359   .     S
C820   C828    1.395   .     A
C821   C826    1.407   .     A
C821   O868    1.384   .     S
C822   O858    1.384   .     S
C822   C827    1.418   .     A
C823   O859    1.384   .     S
C823   C827    1.417   .     A
C824   O861    1.282   .     A
C824   C830    1.418   .     S
C824   O862    1.282   .     A
C825   O860    1.383   .     S
C825   C826    1.415   .     A
C826   C832    1.435   .     S
C827   C833    1.431   .     S
C829   C306    1.437   1_556 S
C831   C838    1.397   .     A
C832   O867    1.285   .     A
C832   O864    1.284   .     A
C833   O865    1.283   .     A
C833   O866    1.284   .     A
C834   H843    1.082   .     S
C834   N856    1.366   .     A
C835   H847    1.082   .     S
C835   N855    1.366   .     A
C835   C1010   1.416   .     S
C836   H848    1.082   .     S
C836   N856    1.366   .     A
C837   N855    1.366   .     A
C837   H849    1.082   .     S
C837   C1008   1.416   .     S
C838   H850    1.084   .     S
H844   O858    0.988   .     S
H845   O859    0.988   .     S
H846   O860    0.989   .     S
H854   O868    0.990   .     S
N855   Zn869   2.009   .     S
N856   Zn870   2.009   .     S
O857   Zn869   1.998   .     S
O861   Zn870   1.998   .     S
O862   Zn869   1.998   .     S
O863   Zn870   1.998   .     S
O864   Zn869   1.996   .     S
O865   Zn870   1.996   .     S
O866   Zn869   1.994   .     S
O867   Zn870   1.994   .     S
C871   O921    1.282   .     A
C871   O915    1.282   .     A
C871   C889    1.418   .     S
C872   C888    1.397   .     A
C872   H909    1.084   .     S
C872   C932    1.370   .     S
C873   H910    1.084   .     S
C873   C888    1.397   .     A
C873   C954    1.370   .     S
C874   H911    1.084   .     S
C874   C889    1.397   .     A
C874   C988    1.370   1_455 S
C875   C879    1.395   .     A
C875   C886    1.396   .     A
C875   F897    1.360   .     S
C876   C880    1.383   .     A
C876   F898    1.359   .     S
C876   C887    1.394   .     A
C877   F899    1.359   .     S
C877   C881    1.383   .     A
C877   C887    1.395   .     A
C878   C883    1.383   .     A
C878   F900    1.359   .     S
C878   C886    1.395   .     A
C879   C884    1.407   .     A
C879   O926    1.384   .     S
C880   O916    1.384   .     S
C880   C885    1.418   .     A
C881   O917    1.384   .     S
C881   C885    1.417   .     A
C882   O919    1.282   .     A
C882   C888    1.418   .     S
C882   O920    1.282   .     A
C883   O918    1.383   .     S
C883   C884    1.415   .     A
C884   C890    1.435   .     S
C885   C891    1.431   .     S
C887   C364    1.437   1_556 S
C889   C896    1.397   .     A
C890   O925    1.285   .     A
C890   O922    1.284   .     A
C891   O923    1.283   .     A
C891   O924    1.284   .     A
C892   H901    1.082   .     S
C892   N914    1.366   .     A
C893   H905    1.082   .     S
C893   N913    1.366   .     A
C893   C546    1.416   1_565 S
C894   H906    1.082   .     S
C894   N914    1.366   .     A
C895   N913    1.366   .     A
C895   H907    1.082   .     S
C895   C544    1.416   1_565 S
C896   H908    1.084   .     S
C896   C989    1.370   1_455 S
H902   O916    0.988   .     S
H903   O917    0.988   .     S
H904   O918    0.989   .     S
H912   O926    0.990   .     S
N913   Zn927   2.009   .     S
N914   Zn928   2.009   .     S
O915   Zn927   1.998   .     S
O919   Zn928   1.998   .     S
O920   Zn927   1.998   .     S
O921   Zn928   1.998   .     S
O922   Zn927   1.996   .     S
O923   Zn928   1.996   .     S
O924   Zn927   1.994   .     S
O925   Zn928   1.994   .     S
C929   O979    1.282   .     A
C929   O973    1.282   .     A
C929   C947    1.418   .     S
C930   C946    1.397   .     A
C930   H967    1.084   .     S
C930   C990    1.370   .     S
C931   H968    1.084   .     S
C931   C946    1.397   .     A
C931   C1012   1.370   .     S
C932   H969    1.084   .     S
C932   C947    1.397   .     A
C933   C937    1.395   .     A
C933   C944    1.396   .     A
C933   F955    1.360   .     S
C934   C938    1.383   .     A
C934   F956    1.359   .     S
C934   C945    1.394   .     A
C935   F957    1.359   .     S
C935   C939    1.383   .     A
C935   C945    1.395   .     A
C936   C941    1.383   .     A
C936   F958    1.359   .     S
C936   C944    1.395   .     A
C937   C942    1.407   .     A
C937   O984    1.384   .     S
C938   O974    1.384   .     S
C938   C943    1.418   .     A
C939   O975    1.384   .     S
C939   C943    1.417   .     A
C940   O977    1.282   .     A
C940   C946    1.418   .     S
C940   O978    1.282   .     A
C941   O976    1.383   .     S
C941   C942    1.415   .     A
C942   C948    1.435   .     S
C943   C949    1.431   .     S
C945   C422    1.437   1_556 S
C947   C954    1.397   .     A
C948   O983    1.285   .     A
C948   O980    1.284   .     A
C949   O981    1.283   .     A
C949   O982    1.284   .     A
C950   H959    1.082   .     S
C950   N972    1.366   .     A
C951   H963    1.082   .     S
C951   N971    1.366   .     A
C951   C604    1.416   1_565 S
C952   H964    1.082   .     S
C952   N972    1.366   .     A
C953   N971    1.366   .     A
C953   H965    1.082   .     S
C953   C602    1.416   1_565 S
C954   H966    1.084   .     S
H960   O974    0.988   .     S
H961   O975    0.988   .     S
H962   O976    0.989   .     S
H970   O984    0.990   .     S
N971   Zn985   2.009   .     S
N972   Zn986   2.009   .     S
O973   Zn985   1.998   .     S
O977   Zn986   1.998   .     S
O978   Zn985   1.998   .     S
O979   Zn986   1.998   .     S
O980   Zn985   1.996   .     S
O981   Zn986   1.996   .     S
O982   Zn985   1.994   .     S
O983   Zn986   1.994   .     S
C987   O1037   1.282   .     A
C987   O1031   1.282   .     A
C987   C1005   1.418   .     S
C988   C1004   1.397   .     A
C988   H1025   1.084   .     S
C988   C874    1.370   1_655 S
C989   H1026   1.084   .     S
C989   C1004   1.397   .     A
C989   C896    1.370   1_655 S
C990   H1027   1.084   .     S
C990   C1005   1.397   .     A
C991   C995    1.395   .     A
C991   C1002   1.396   .     A
C991   F1013   1.360   .     S
C992   C996    1.383   .     A
C992   F1014   1.359   .     S
C992   C1003   1.394   .     A
C993   F1015   1.359   .     S
C993   C997    1.383   .     A
C993   C1003   1.395   .     A
C994   C999    1.383   .     A
C994   F1016   1.359   .     S
C994   C1002   1.395   .     A
C995   C1000   1.407   .     A
C995   O1042   1.384   .     S
C996   O1032   1.384   .     S
C996   C1001   1.418   .     A
C997   O1033   1.384   .     S
C997   C1001   1.417   .     A
C998   O1035   1.282   .     A
C998   C1004   1.418   .     S
C998   O1036   1.282   .     A
C999   O1034   1.383   .     S
C999   C1000   1.415   .     A
C1000  C1006   1.435   .     S
C1001  C1007   1.431   .     S
C1003  C480    1.437   1_556 S
C1005  C1012   1.397   .     A
C1006  O1041   1.285   .     A
C1006  O1038   1.284   .     A
C1007  O1039   1.283   .     A
C1007  O1040   1.284   .     A
C1008  H1017   1.082   .     S
C1008  N1030   1.366   .     A
C1009  H1021   1.082   .     S
C1009  N1029   1.366   .     A
C1009  C662    1.416   1_565 S
C1010  H1022   1.082   .     S
C1010  N1030   1.366   .     A
C1011  N1029   1.366   .     A
C1011  H1023   1.082   .     S
C1011  C660    1.416   1_565 S
C1012  H1024   1.084   .     S
H1018  O1032   0.988   .     S
H1019  O1033   0.988   .     S
H1020  O1034   0.989   .     S
H1028  O1042   0.990   .     S
N1029  Zn1043  2.009   .     S
N1030  Zn1044  2.009   .     S
O1031  Zn1043  1.998   .     S
O1035  Zn1044  1.998   .     S
O1036  Zn1043  1.998   .     S
O1037  Zn1044  1.998   .     S
O1038  Zn1043  1.996   .     S
O1039  Zn1044  1.996   .     S
O1040  Zn1043  1.994   .     S
O1041  Zn1044  1.994   .     S
