data_str_m3_o1_o18_pcu_sym.19
_audit_creation_date              2020-01-03
_audit_creation_method            'Materials Studio'
_symmetry_space_group_name_H-M    'P1'
_symmetry_Int_Tables_number       1
_symmetry_cell_setting            triclinic
loop_
_symmetry_equiv_pos_as_xyz
  x,y,z
_cell_length_a                    29.9188
_cell_length_b                    31.8583
_cell_length_c                    30.8879
_cell_angle_alpha                 90.2031
_cell_angle_beta                  68.6480
_cell_angle_gamma                 89.9676
loop_
_atom_site_label
_atom_site_type_symbol
_atom_site_fract_x
_atom_site_fract_y
_atom_site_fract_z
_atom_site_U_iso_or_equiv
_atom_site_adp_type
_atom_site_occupancy
C1     C     0.16703   0.24647   0.24900   0.00000  Uiso   1.00
C2     C     0.15370   0.31249   0.21608   0.00000  Uiso   1.00
C3     C     0.16614   0.04272   0.25147   0.00000  Uiso   1.00
C4     C     0.16711   0.29065   0.24873   0.00000  Uiso   1.00
C5     C     0.32171   0.14434   0.21756   0.00000  Uiso   1.00
C6     C     0.01162   0.18896   0.28246   0.00000  Uiso   1.00
C7     C     0.03602   0.14433   0.21758   0.00000  Uiso   1.00
C8     C     0.29730   0.18896   0.28245   0.00000  Uiso   1.00
C9     C     0.13672   0.16563   0.33769   0.00000  Uiso   1.00
C10    C     0.19657   0.16578   0.16218   0.00000  Uiso   1.00
C11    C     0.11894   0.15669   0.38722   0.00000  Uiso   1.00
C12    C     0.16627   0.08688   0.25111   0.00000  Uiso   1.00
C13    C     0.21402   0.15985   0.11184   0.00000  Uiso   1.00
C14    C     0.06307   0.12114   0.45428   0.00000  Uiso   1.00
C15    C     0.27752   0.15195   0.03670   0.00000  Uiso   1.00
C16    C     0.07588   0.13524   0.40850   0.00000  Uiso   1.00
C17    C     0.26298   0.15900   0.08447   0.00000  Uiso   1.00
C18    C     0.14984   0.16241   0.41094   0.00000  Uiso   1.00
C19    C     0.18003   0.15296   0.09139   0.00000  Uiso   1.00
C20    C     0.13920   0.14531   0.45501   0.00000  Uiso   1.00
C21    C     0.19387   0.14487   0.04408   0.00000  Uiso   1.00
C22    C     0.09346   0.12813   0.47882   0.00000  Uiso   1.00
C23    C     0.11202   0.12492   0.04869   0.00000  Uiso   1.00
C24    C     0.24334   0.14510   0.01609   0.00000  Uiso   1.00
C25    C     0.17389   0.14390   0.47525   0.00000  Uiso   1.00
C26    C     0.15947   0.13821   0.02347   0.00000  Uiso   1.00
C27    C     0.03716   0.05891   0.05814   0.00000  Uiso   1.00
C28    C     0.30056   0.08371   0.42739   0.00000  Uiso   1.00
C29    C     0.22287   0.14325   0.44769   0.00000  Uiso   1.00
C30    C     0.08017   0.11692   0.02580   0.00000  Uiso   1.00
C31    C     0.25695   0.13864   0.46808   0.00000  Uiso   1.00
C32    C     0.18011   0.31112   0.28236   0.00000  Uiso   1.00
C33    C     0.15314   0.02225   0.21786   0.00000  Uiso   1.00
C34    C     0.17950   0.02089   0.28416   0.00000  Uiso   1.00
H35    H     0.14238   0.15555   0.11243   0.00000  Uiso   1.00
H36    H     0.14352   0.03986   0.19253   0.00000  Uiso   1.00
H37    H     0.31378   0.12638   0.19144   0.00000  Uiso   1.00
H38    H     0.01954   0.20690   0.30858   0.00000  Uiso   1.00
H39    H     0.06357   0.12633   0.19148   0.00000  Uiso   1.00
H40    H     0.26974   0.20693   0.30856   0.00000  Uiso   1.00
H41    H     0.05711   0.05262   0.08160   0.00000  Uiso   1.00
H42    H     0.05371   0.04144   0.02477   0.00000  Uiso   1.00
H43    H     0.00017   0.04677   0.07541   0.00000  Uiso   1.00
H44    H     0.28425   0.08156   0.40037   0.00000  Uiso   1.00
H45    H     0.28085   0.06326   0.45752   0.00000  Uiso   1.00
H46    H     0.18291   0.17953   0.39428   0.00000  Uiso   1.00
H47    H     0.00404   0.07078   0.41171   0.00000  Uiso   1.00
H48    H     0.28982   0.16434   0.09977   0.00000  Uiso   1.00
H49    H     0.05361   0.12825   0.38871   0.00000  Uiso   1.00
H50    H     0.03070   0.10321   0.47012   0.00000  Uiso   1.00
H51    H     0.31519   0.15379   0.01588   0.00000  Uiso   1.00
H52    H     0.10006   0.11756   0.08527   0.00000  Uiso   1.00
H53    H     0.23503   0.14126   0.41018   0.00000  Uiso   1.00
H54    H     0.18974   0.29351   0.30767   0.00000  Uiso   1.00
I55    I     0.19584   0.05032   0.33861   0.00000  Uiso   1.00
I56    I     0.13723   0.28311   0.16173   0.00000  Uiso   1.00
N57    N     0.04759   0.16668   0.25001   0.00000  Uiso   1.00
N58    N     0.28574   0.16666   0.24999   0.00000  Uiso   1.00
O59    O     0.12846   0.22775   0.25000   0.00000  Uiso   1.00
O60    O     0.30268   0.12594   0.44127   0.00000  Uiso   1.00
O61    O     0.20488   0.10558   0.24999   0.00000  Uiso   1.00
O62    O     0.20490   0.22774   0.25000   0.00000  Uiso   1.00
O63    O     0.12843   0.10559   0.25000   0.00000  Uiso   1.00
O64    O     0.10661   0.16667   0.31612   0.00000  Uiso   1.00
O65    O     0.22672   0.16666   0.18387   0.00000  Uiso   1.00
O66    O     0.18305   0.16666   0.31612   0.00000  Uiso   1.00
O67    O     0.15028   0.16667   0.18388   0.00000  Uiso   1.00
O68    O     0.03447   0.10226   0.05049   0.00000  Uiso   1.00
Zn69   Zn    0.11562   0.16667   0.25000   0.00000  Uiso   1.00
Zn70   Zn    0.21771   0.16666   0.25000   0.00000  Uiso   1.00
C71    C     0.50036   0.24647   0.24900   0.00000  Uiso   1.00
C72    C     0.48704   0.31249   0.21608   0.00000  Uiso   1.00
C73    C     0.49947   0.04272   0.25147   0.00000  Uiso   1.00
C74    C     0.50044   0.29065   0.24873   0.00000  Uiso   1.00
C75    C     0.65504   0.14434   0.21756   0.00000  Uiso   1.00
C76    C     0.34495   0.18896   0.28246   0.00000  Uiso   1.00
C77    C     0.36936   0.14433   0.21758   0.00000  Uiso   1.00
C78    C     0.63064   0.18896   0.28245   0.00000  Uiso   1.00
C79    C     0.47005   0.16563   0.33769   0.00000  Uiso   1.00
C80    C     0.52990   0.16578   0.16218   0.00000  Uiso   1.00
C81    C     0.45228   0.15669   0.38722   0.00000  Uiso   1.00
C82    C     0.49960   0.08688   0.25111   0.00000  Uiso   1.00
C83    C     0.54735   0.15985   0.11184   0.00000  Uiso   1.00
C84    C     0.39640   0.12114   0.45428   0.00000  Uiso   1.00
C85    C     0.61086   0.15195   0.03670   0.00000  Uiso   1.00
C86    C     0.40922   0.13524   0.40850   0.00000  Uiso   1.00
C87    C     0.59631   0.15900   0.08447   0.00000  Uiso   1.00
C88    C     0.48317   0.16241   0.41094   0.00000  Uiso   1.00
C89    C     0.51336   0.15296   0.09139   0.00000  Uiso   1.00
C90    C     0.47253   0.14531   0.45501   0.00000  Uiso   1.00
C91    C     0.52721   0.14487   0.04408   0.00000  Uiso   1.00
C92    C     0.42680   0.12813   0.47882   0.00000  Uiso   1.00
C93    C     0.44535   0.12492   0.04869   0.00000  Uiso   1.00
C94    C     0.57667   0.14510   0.01609   0.00000  Uiso   1.00
C95    C     0.50722   0.14390   0.47525   0.00000  Uiso   1.00
C96    C     0.49280   0.13821   0.02347   0.00000  Uiso   1.00
C97    C     0.37049   0.05891   0.05814   0.00000  Uiso   1.00
C98    C     0.63389   0.08371   0.42739   0.00000  Uiso   1.00
C99    C     0.55620   0.14325   0.44769   0.00000  Uiso   1.00
C100   C     0.41350   0.11692   0.02580   0.00000  Uiso   1.00
C101   C     0.59029   0.13864   0.46808   0.00000  Uiso   1.00
C102   C     0.51344   0.31112   0.28236   0.00000  Uiso   1.00
C103   C     0.48647   0.02225   0.21786   0.00000  Uiso   1.00
C104   C     0.51283   0.02089   0.28416   0.00000  Uiso   1.00
H105   H     0.47571   0.15555   0.11243   0.00000  Uiso   1.00
H106   H     0.47686   0.03986   0.19253   0.00000  Uiso   1.00
H107   H     0.64711   0.12638   0.19144   0.00000  Uiso   1.00
H108   H     0.35288   0.20690   0.30858   0.00000  Uiso   1.00
H109   H     0.39690   0.12633   0.19148   0.00000  Uiso   1.00
H110   H     0.60308   0.20693   0.30856   0.00000  Uiso   1.00
H111   H     0.39044   0.05262   0.08160   0.00000  Uiso   1.00
H112   H     0.38704   0.04144   0.02477   0.00000  Uiso   1.00
H113   H     0.33351   0.04677   0.07541   0.00000  Uiso   1.00
H114   H     0.61758   0.08156   0.40037   0.00000  Uiso   1.00
H115   H     0.61418   0.06326   0.45752   0.00000  Uiso   1.00
H116   H     0.51624   0.17953   0.39428   0.00000  Uiso   1.00
H117   H     0.33737   0.07078   0.41171   0.00000  Uiso   1.00
H118   H     0.62315   0.16434   0.09977   0.00000  Uiso   1.00
H119   H     0.38695   0.12825   0.38871   0.00000  Uiso   1.00
H120   H     0.36403   0.10321   0.47012   0.00000  Uiso   1.00
H121   H     0.64852   0.15379   0.01588   0.00000  Uiso   1.00
H122   H     0.43339   0.11756   0.08527   0.00000  Uiso   1.00
H123   H     0.56836   0.14126   0.41018   0.00000  Uiso   1.00
H124   H     0.52307   0.29351   0.30767   0.00000  Uiso   1.00
I125   I     0.52917   0.05032   0.33861   0.00000  Uiso   1.00
I126   I     0.47057   0.28311   0.16173   0.00000  Uiso   1.00
N127   N     0.38093   0.16668   0.25001   0.00000  Uiso   1.00
N128   N     0.61907   0.16666   0.24999   0.00000  Uiso   1.00
O129   O     0.46179   0.22775   0.25000   0.00000  Uiso   1.00
O130   O     0.63602   0.12594   0.44127   0.00000  Uiso   1.00
O131   O     0.53821   0.10558   0.24999   0.00000  Uiso   1.00
O132   O     0.53823   0.22774   0.25000   0.00000  Uiso   1.00
O133   O     0.46177   0.10559   0.25000   0.00000  Uiso   1.00
O134   O     0.43994   0.16667   0.31612   0.00000  Uiso   1.00
O135   O     0.56006   0.16666   0.18387   0.00000  Uiso   1.00
O136   O     0.51639   0.16666   0.31612   0.00000  Uiso   1.00
O137   O     0.48361   0.16667   0.18388   0.00000  Uiso   1.00
O138   O     0.36781   0.10226   0.05049   0.00000  Uiso   1.00
Zn139  Zn    0.44896   0.16667   0.25000   0.00000  Uiso   1.00
Zn140  Zn    0.55104   0.16666   0.25000   0.00000  Uiso   1.00
C141   C     0.83369   0.24647   0.24900   0.00000  Uiso   1.00
C142   C     0.82037   0.31249   0.21608   0.00000  Uiso   1.00
C143   C     0.83281   0.04272   0.25147   0.00000  Uiso   1.00
C144   C     0.83378   0.29065   0.24873   0.00000  Uiso   1.00
C145   C     0.98837   0.14434   0.21756   0.00000  Uiso   1.00
C146   C     0.67828   0.18896   0.28246   0.00000  Uiso   1.00
C147   C     0.70269   0.14433   0.21758   0.00000  Uiso   1.00
C148   C     0.96397   0.18896   0.28245   0.00000  Uiso   1.00
C149   C     0.80338   0.16563   0.33769   0.00000  Uiso   1.00
C150   C     0.86324   0.16578   0.16218   0.00000  Uiso   1.00
C151   C     0.78561   0.15669   0.38722   0.00000  Uiso   1.00
C152   C     0.83293   0.08688   0.25111   0.00000  Uiso   1.00
C153   C     0.88068   0.15985   0.11184   0.00000  Uiso   1.00
C154   C     0.72974   0.12114   0.45428   0.00000  Uiso   1.00
C155   C     0.94419   0.15195   0.03670   0.00000  Uiso   1.00
C156   C     0.74255   0.13524   0.40850   0.00000  Uiso   1.00
C157   C     0.92964   0.15900   0.08447   0.00000  Uiso   1.00
C158   C     0.81650   0.16241   0.41094   0.00000  Uiso   1.00
C159   C     0.84670   0.15296   0.09139   0.00000  Uiso   1.00
C160   C     0.80587   0.14531   0.45501   0.00000  Uiso   1.00
C161   C     0.86054   0.14487   0.04408   0.00000  Uiso   1.00
C162   C     0.76013   0.12813   0.47882   0.00000  Uiso   1.00
C163   C     0.77868   0.12492   0.04869   0.00000  Uiso   1.00
C164   C     0.91000   0.14510   0.01609   0.00000  Uiso   1.00
C165   C     0.84055   0.14390   0.47525   0.00000  Uiso   1.00
C166   C     0.82614   0.13821   0.02347   0.00000  Uiso   1.00
C167   C     0.70382   0.05891   0.05814   0.00000  Uiso   1.00
C168   C     0.96722   0.08371   0.42739   0.00000  Uiso   1.00
C169   C     0.88953   0.14325   0.44769   0.00000  Uiso   1.00
C170   C     0.74683   0.11692   0.02580   0.00000  Uiso   1.00
C171   C     0.92362   0.13864   0.46808   0.00000  Uiso   1.00
C172   C     0.84677   0.31112   0.28236   0.00000  Uiso   1.00
C173   C     0.81980   0.02225   0.21786   0.00000  Uiso   1.00
C174   C     0.84617   0.02089   0.28416   0.00000  Uiso   1.00
H175   H     0.80904   0.15555   0.11243   0.00000  Uiso   1.00
H176   H     0.81019   0.03986   0.19253   0.00000  Uiso   1.00
H177   H     0.98045   0.12638   0.19144   0.00000  Uiso   1.00
H178   H     0.68621   0.20690   0.30858   0.00000  Uiso   1.00
H179   H     0.73024   0.12633   0.19148   0.00000  Uiso   1.00
H180   H     0.93641   0.20693   0.30856   0.00000  Uiso   1.00
H181   H     0.72378   0.05262   0.08160   0.00000  Uiso   1.00
H182   H     0.72038   0.04144   0.02477   0.00000  Uiso   1.00
H183   H     0.66684   0.04677   0.07541   0.00000  Uiso   1.00
H184   H     0.95091   0.08156   0.40037   0.00000  Uiso   1.00
H185   H     0.94751   0.06326   0.45752   0.00000  Uiso   1.00
H186   H     0.84958   0.17953   0.39428   0.00000  Uiso   1.00
H187   H     0.67071   0.07078   0.41171   0.00000  Uiso   1.00
H188   H     0.95649   0.16434   0.09977   0.00000  Uiso   1.00
H189   H     0.72028   0.12825   0.38871   0.00000  Uiso   1.00
H190   H     0.69736   0.10321   0.47012   0.00000  Uiso   1.00
H191   H     0.98185   0.15379   0.01588   0.00000  Uiso   1.00
H192   H     0.76673   0.11756   0.08527   0.00000  Uiso   1.00
H193   H     0.90170   0.14126   0.41018   0.00000  Uiso   1.00
H194   H     0.85640   0.29351   0.30767   0.00000  Uiso   1.00
I195   I     0.86251   0.05032   0.33861   0.00000  Uiso   1.00
I196   I     0.80390   0.28311   0.16173   0.00000  Uiso   1.00
N197   N     0.71426   0.16668   0.25001   0.00000  Uiso   1.00
N198   N     0.95241   0.16666   0.24999   0.00000  Uiso   1.00
O199   O     0.79512   0.22775   0.25000   0.00000  Uiso   1.00
O200   O     0.96935   0.12594   0.44127   0.00000  Uiso   1.00
O201   O     0.87154   0.10558   0.24999   0.00000  Uiso   1.00
O202   O     0.87157   0.22774   0.25000   0.00000  Uiso   1.00
O203   O     0.79510   0.10559   0.25000   0.00000  Uiso   1.00
O204   O     0.77328   0.16667   0.31612   0.00000  Uiso   1.00
O205   O     0.89339   0.16666   0.18387   0.00000  Uiso   1.00
O206   O     0.84972   0.16666   0.31612   0.00000  Uiso   1.00
O207   O     0.81695   0.16667   0.18388   0.00000  Uiso   1.00
O208   O     0.70114   0.10226   0.05049   0.00000  Uiso   1.00
Zn209  Zn    0.78229   0.16667   0.25000   0.00000  Uiso   1.00
Zn210  Zn    0.88438   0.16666   0.25000   0.00000  Uiso   1.00
C211   C     0.16703   0.57980   0.24900   0.00000  Uiso   1.00
C212   C     0.15370   0.64582   0.21608   0.00000  Uiso   1.00
C213   C     0.16614   0.37605   0.25147   0.00000  Uiso   1.00
C214   C     0.16711   0.62398   0.24873   0.00000  Uiso   1.00
C215   C     0.32171   0.47767   0.21756   0.00000  Uiso   1.00
C216   C     0.01162   0.52229   0.28246   0.00000  Uiso   1.00
C217   C     0.03602   0.47767   0.21758   0.00000  Uiso   1.00
C218   C     0.29730   0.52229   0.28245   0.00000  Uiso   1.00
C219   C     0.13672   0.49897   0.33769   0.00000  Uiso   1.00
C220   C     0.19657   0.49911   0.16218   0.00000  Uiso   1.00
C221   C     0.11894   0.49003   0.38722   0.00000  Uiso   1.00
C222   C     0.16627   0.42021   0.25111   0.00000  Uiso   1.00
C223   C     0.21402   0.49318   0.11184   0.00000  Uiso   1.00
C224   C     0.06307   0.45447   0.45428   0.00000  Uiso   1.00
C225   C     0.27752   0.48528   0.03670   0.00000  Uiso   1.00
C226   C     0.07588   0.46857   0.40850   0.00000  Uiso   1.00
C227   C     0.26298   0.49233   0.08447   0.00000  Uiso   1.00
C228   C     0.14984   0.49575   0.41094   0.00000  Uiso   1.00
C229   C     0.18003   0.48630   0.09139   0.00000  Uiso   1.00
C230   C     0.13920   0.47864   0.45501   0.00000  Uiso   1.00
C231   C     0.19387   0.47820   0.04408   0.00000  Uiso   1.00
C232   C     0.09346   0.46146   0.47882   0.00000  Uiso   1.00
C233   C     0.11202   0.45826   0.04869   0.00000  Uiso   1.00
C234   C     0.24334   0.47844   0.01609   0.00000  Uiso   1.00
C235   C     0.17389   0.47723   0.47525   0.00000  Uiso   1.00
C236   C     0.15947   0.47154   0.02347   0.00000  Uiso   1.00
C237   C     0.03716   0.39224   0.05814   0.00000  Uiso   1.00
C238   C     0.30056   0.41705   0.42739   0.00000  Uiso   1.00
C239   C     0.22287   0.47658   0.44769   0.00000  Uiso   1.00
C240   C     0.08017   0.45025   0.02580   0.00000  Uiso   1.00
C241   C     0.25695   0.47197   0.46808   0.00000  Uiso   1.00
C242   C     0.18011   0.64445   0.28236   0.00000  Uiso   1.00
C243   C     0.15314   0.35559   0.21786   0.00000  Uiso   1.00
C244   C     0.17950   0.35422   0.28416   0.00000  Uiso   1.00
H245   H     0.14238   0.48889   0.11243   0.00000  Uiso   1.00
H246   H     0.14352   0.37319   0.19253   0.00000  Uiso   1.00
H247   H     0.31378   0.45971   0.19144   0.00000  Uiso   1.00
H248   H     0.01954   0.54023   0.30858   0.00000  Uiso   1.00
H249   H     0.06357   0.45966   0.19148   0.00000  Uiso   1.00
H250   H     0.26974   0.54026   0.30856   0.00000  Uiso   1.00
H251   H     0.05711   0.38596   0.08160   0.00000  Uiso   1.00
H252   H     0.05371   0.37477   0.02477   0.00000  Uiso   1.00
H253   H     0.00017   0.38011   0.07541   0.00000  Uiso   1.00
H254   H     0.28425   0.41489   0.40037   0.00000  Uiso   1.00
H255   H     0.28085   0.39659   0.45752   0.00000  Uiso   1.00
H256   H     0.18291   0.51286   0.39428   0.00000  Uiso   1.00
H257   H     0.00404   0.40411   0.41171   0.00000  Uiso   1.00
H258   H     0.28982   0.49767   0.09977   0.00000  Uiso   1.00
H259   H     0.05361   0.46158   0.38871   0.00000  Uiso   1.00
H260   H     0.03070   0.43655   0.47012   0.00000  Uiso   1.00
H261   H     0.31519   0.48713   0.01588   0.00000  Uiso   1.00
H262   H     0.10006   0.45089   0.08527   0.00000  Uiso   1.00
H263   H     0.23503   0.47459   0.41018   0.00000  Uiso   1.00
H264   H     0.18974   0.62684   0.30767   0.00000  Uiso   1.00
I265   I     0.19584   0.38366   0.33861   0.00000  Uiso   1.00
I266   I     0.13723   0.61644   0.16173   0.00000  Uiso   1.00
N267   N     0.04759   0.50001   0.25001   0.00000  Uiso   1.00
N268   N     0.28574   0.49999   0.24999   0.00000  Uiso   1.00
O269   O     0.12846   0.56108   0.25000   0.00000  Uiso   1.00
O270   O     0.30268   0.45928   0.44127   0.00000  Uiso   1.00
O271   O     0.20488   0.43892   0.24999   0.00000  Uiso   1.00
O272   O     0.20490   0.56107   0.25000   0.00000  Uiso   1.00
O273   O     0.12843   0.43893   0.25000   0.00000  Uiso   1.00
O274   O     0.10661   0.50001   0.31612   0.00000  Uiso   1.00
O275   O     0.22672   0.49999   0.18387   0.00000  Uiso   1.00
O276   O     0.18305   0.50000   0.31612   0.00000  Uiso   1.00
O277   O     0.15028   0.50000   0.18388   0.00000  Uiso   1.00
O278   O     0.03447   0.43560   0.05049   0.00000  Uiso   1.00
Zn279  Zn    0.11562   0.50001   0.25000   0.00000  Uiso   1.00
Zn280  Zn    0.21771   0.49999   0.25000   0.00000  Uiso   1.00
C281   C     0.50036   0.57980   0.24900   0.00000  Uiso   1.00
C282   C     0.48704   0.64582   0.21608   0.00000  Uiso   1.00
C283   C     0.49947   0.37605   0.25147   0.00000  Uiso   1.00
C284   C     0.50044   0.62398   0.24873   0.00000  Uiso   1.00
C285   C     0.65504   0.47767   0.21756   0.00000  Uiso   1.00
C286   C     0.34495   0.52229   0.28246   0.00000  Uiso   1.00
C287   C     0.36936   0.47767   0.21758   0.00000  Uiso   1.00
C288   C     0.63064   0.52229   0.28245   0.00000  Uiso   1.00
C289   C     0.47005   0.49897   0.33769   0.00000  Uiso   1.00
C290   C     0.52990   0.49911   0.16218   0.00000  Uiso   1.00
C291   C     0.45228   0.49003   0.38722   0.00000  Uiso   1.00
C292   C     0.49960   0.42021   0.25111   0.00000  Uiso   1.00
C293   C     0.54735   0.49318   0.11184   0.00000  Uiso   1.00
C294   C     0.39640   0.45447   0.45428   0.00000  Uiso   1.00
C295   C     0.61086   0.48528   0.03670   0.00000  Uiso   1.00
C296   C     0.40922   0.46857   0.40850   0.00000  Uiso   1.00
C297   C     0.59631   0.49233   0.08447   0.00000  Uiso   1.00
C298   C     0.48317   0.49575   0.41094   0.00000  Uiso   1.00
C299   C     0.51336   0.48630   0.09139   0.00000  Uiso   1.00
C300   C     0.47253   0.47864   0.45501   0.00000  Uiso   1.00
C301   C     0.52721   0.47820   0.04408   0.00000  Uiso   1.00
C302   C     0.42680   0.46146   0.47882   0.00000  Uiso   1.00
C303   C     0.44535   0.45826   0.04869   0.00000  Uiso   1.00
C304   C     0.57667   0.47844   0.01609   0.00000  Uiso   1.00
C305   C     0.50722   0.47723   0.47525   0.00000  Uiso   1.00
C306   C     0.49280   0.47154   0.02347   0.00000  Uiso   1.00
C307   C     0.37049   0.39224   0.05814   0.00000  Uiso   1.00
C308   C     0.63389   0.41705   0.42739   0.00000  Uiso   1.00
C309   C     0.55620   0.47658   0.44769   0.00000  Uiso   1.00
C310   C     0.41350   0.45025   0.02580   0.00000  Uiso   1.00
C311   C     0.59029   0.47197   0.46808   0.00000  Uiso   1.00
C312   C     0.51344   0.64445   0.28236   0.00000  Uiso   1.00
C313   C     0.48647   0.35559   0.21786   0.00000  Uiso   1.00
C314   C     0.51283   0.35422   0.28416   0.00000  Uiso   1.00
H315   H     0.47571   0.48889   0.11243   0.00000  Uiso   1.00
H316   H     0.47686   0.37319   0.19253   0.00000  Uiso   1.00
H317   H     0.64711   0.45971   0.19144   0.00000  Uiso   1.00
H318   H     0.35288   0.54023   0.30858   0.00000  Uiso   1.00
H319   H     0.39690   0.45966   0.19148   0.00000  Uiso   1.00
H320   H     0.60308   0.54026   0.30856   0.00000  Uiso   1.00
H321   H     0.39044   0.38596   0.08160   0.00000  Uiso   1.00
H322   H     0.38704   0.37477   0.02477   0.00000  Uiso   1.00
H323   H     0.33351   0.38011   0.07541   0.00000  Uiso   1.00
H324   H     0.61758   0.41489   0.40037   0.00000  Uiso   1.00
H325   H     0.61418   0.39659   0.45752   0.00000  Uiso   1.00
H326   H     0.51624   0.51286   0.39428   0.00000  Uiso   1.00
H327   H     0.33737   0.40411   0.41171   0.00000  Uiso   1.00
H328   H     0.62315   0.49767   0.09977   0.00000  Uiso   1.00
H329   H     0.38695   0.46158   0.38871   0.00000  Uiso   1.00
H330   H     0.36403   0.43655   0.47012   0.00000  Uiso   1.00
H331   H     0.64852   0.48713   0.01588   0.00000  Uiso   1.00
H332   H     0.43339   0.45089   0.08527   0.00000  Uiso   1.00
H333   H     0.56836   0.47459   0.41018   0.00000  Uiso   1.00
H334   H     0.52307   0.62684   0.30767   0.00000  Uiso   1.00
I335   I     0.52917   0.38366   0.33861   0.00000  Uiso   1.00
I336   I     0.47057   0.61644   0.16173   0.00000  Uiso   1.00
N337   N     0.38093   0.50001   0.25001   0.00000  Uiso   1.00
N338   N     0.61907   0.49999   0.24999   0.00000  Uiso   1.00
O339   O     0.46179   0.56108   0.25000   0.00000  Uiso   1.00
O340   O     0.63602   0.45928   0.44127   0.00000  Uiso   1.00
O341   O     0.53821   0.43892   0.24999   0.00000  Uiso   1.00
O342   O     0.53823   0.56107   0.25000   0.00000  Uiso   1.00
O343   O     0.46177   0.43893   0.25000   0.00000  Uiso   1.00
O344   O     0.43994   0.50001   0.31612   0.00000  Uiso   1.00
O345   O     0.56006   0.49999   0.18387   0.00000  Uiso   1.00
O346   O     0.51639   0.50000   0.31612   0.00000  Uiso   1.00
O347   O     0.48361   0.50000   0.18388   0.00000  Uiso   1.00
O348   O     0.36781   0.43560   0.05049   0.00000  Uiso   1.00
Zn349  Zn    0.44896   0.50001   0.25000   0.00000  Uiso   1.00
Zn350  Zn    0.55104   0.49999   0.25000   0.00000  Uiso   1.00
C351   C     0.83369   0.57980   0.24900   0.00000  Uiso   1.00
C352   C     0.82037   0.64582   0.21608   0.00000  Uiso   1.00
C353   C     0.83281   0.37605   0.25147   0.00000  Uiso   1.00
C354   C     0.83378   0.62398   0.24873   0.00000  Uiso   1.00
C355   C     0.98837   0.47767   0.21756   0.00000  Uiso   1.00
C356   C     0.67828   0.52229   0.28246   0.00000  Uiso   1.00
C357   C     0.70269   0.47767   0.21758   0.00000  Uiso   1.00
C358   C     0.96397   0.52229   0.28245   0.00000  Uiso   1.00
C359   C     0.80338   0.49897   0.33769   0.00000  Uiso   1.00
C360   C     0.86324   0.49911   0.16218   0.00000  Uiso   1.00
C361   C     0.78561   0.49003   0.38722   0.00000  Uiso   1.00
C362   C     0.83293   0.42021   0.25111   0.00000  Uiso   1.00
C363   C     0.88068   0.49318   0.11184   0.00000  Uiso   1.00
C364   C     0.72974   0.45447   0.45428   0.00000  Uiso   1.00
C365   C     0.94419   0.48528   0.03670   0.00000  Uiso   1.00
C366   C     0.74255   0.46857   0.40850   0.00000  Uiso   1.00
C367   C     0.92964   0.49233   0.08447   0.00000  Uiso   1.00
C368   C     0.81650   0.49575   0.41094   0.00000  Uiso   1.00
C369   C     0.84670   0.48630   0.09139   0.00000  Uiso   1.00
C370   C     0.80587   0.47864   0.45501   0.00000  Uiso   1.00
C371   C     0.86054   0.47820   0.04408   0.00000  Uiso   1.00
C372   C     0.76013   0.46146   0.47882   0.00000  Uiso   1.00
C373   C     0.77868   0.45826   0.04869   0.00000  Uiso   1.00
C374   C     0.91000   0.47844   0.01609   0.00000  Uiso   1.00
C375   C     0.84055   0.47723   0.47525   0.00000  Uiso   1.00
C376   C     0.82614   0.47154   0.02347   0.00000  Uiso   1.00
C377   C     0.70382   0.39224   0.05814   0.00000  Uiso   1.00
C378   C     0.96722   0.41705   0.42739   0.00000  Uiso   1.00
C379   C     0.88953   0.47658   0.44769   0.00000  Uiso   1.00
C380   C     0.74683   0.45025   0.02580   0.00000  Uiso   1.00
C381   C     0.92362   0.47197   0.46808   0.00000  Uiso   1.00
C382   C     0.84677   0.64445   0.28236   0.00000  Uiso   1.00
C383   C     0.81980   0.35559   0.21786   0.00000  Uiso   1.00
C384   C     0.84617   0.35422   0.28416   0.00000  Uiso   1.00
H385   H     0.80904   0.48889   0.11243   0.00000  Uiso   1.00
H386   H     0.81019   0.37319   0.19253   0.00000  Uiso   1.00
H387   H     0.98045   0.45971   0.19144   0.00000  Uiso   1.00
H388   H     0.68621   0.54023   0.30858   0.00000  Uiso   1.00
H389   H     0.73024   0.45966   0.19148   0.00000  Uiso   1.00
H390   H     0.93641   0.54026   0.30856   0.00000  Uiso   1.00
H391   H     0.72378   0.38596   0.08160   0.00000  Uiso   1.00
H392   H     0.72038   0.37477   0.02477   0.00000  Uiso   1.00
H393   H     0.66684   0.38011   0.07541   0.00000  Uiso   1.00
H394   H     0.95091   0.41489   0.40037   0.00000  Uiso   1.00
H395   H     0.94751   0.39659   0.45752   0.00000  Uiso   1.00
H396   H     0.84958   0.51286   0.39428   0.00000  Uiso   1.00
H397   H     0.67071   0.40411   0.41171   0.00000  Uiso   1.00
H398   H     0.95649   0.49767   0.09977   0.00000  Uiso   1.00
H399   H     0.72028   0.46158   0.38871   0.00000  Uiso   1.00
H400   H     0.69736   0.43655   0.47012   0.00000  Uiso   1.00
H401   H     0.98185   0.48713   0.01588   0.00000  Uiso   1.00
H402   H     0.76673   0.45089   0.08527   0.00000  Uiso   1.00
H403   H     0.90170   0.47459   0.41018   0.00000  Uiso   1.00
H404   H     0.85640   0.62684   0.30767   0.00000  Uiso   1.00
I405   I     0.86251   0.38366   0.33861   0.00000  Uiso   1.00
I406   I     0.80390   0.61644   0.16173   0.00000  Uiso   1.00
N407   N     0.71426   0.50001   0.25001   0.00000  Uiso   1.00
N408   N     0.95241   0.49999   0.24999   0.00000  Uiso   1.00
O409   O     0.79512   0.56108   0.25000   0.00000  Uiso   1.00
O410   O     0.96935   0.45928   0.44127   0.00000  Uiso   1.00
O411   O     0.87154   0.43892   0.24999   0.00000  Uiso   1.00
O412   O     0.87157   0.56107   0.25000   0.00000  Uiso   1.00
O413   O     0.79510   0.43893   0.25000   0.00000  Uiso   1.00
O414   O     0.77328   0.50001   0.31612   0.00000  Uiso   1.00
O415   O     0.89339   0.49999   0.18387   0.00000  Uiso   1.00
O416   O     0.84972   0.50000   0.31612   0.00000  Uiso   1.00
O417   O     0.81695   0.50000   0.18388   0.00000  Uiso   1.00
O418   O     0.70114   0.43560   0.05049   0.00000  Uiso   1.00
Zn419  Zn    0.78229   0.50001   0.25000   0.00000  Uiso   1.00
Zn420  Zn    0.88438   0.49999   0.25000   0.00000  Uiso   1.00
C421   C     0.16703   0.91313   0.24900   0.00000  Uiso   1.00
C422   C     0.15370   0.97916   0.21608   0.00000  Uiso   1.00
C423   C     0.16614   0.70938   0.25147   0.00000  Uiso   1.00
C424   C     0.16711   0.95731   0.24873   0.00000  Uiso   1.00
C425   C     0.32171   0.81101   0.21756   0.00000  Uiso   1.00
C426   C     0.01162   0.85562   0.28246   0.00000  Uiso   1.00
C427   C     0.03602   0.81100   0.21758   0.00000  Uiso   1.00
C428   C     0.29730   0.85562   0.28245   0.00000  Uiso   1.00
C429   C     0.13672   0.83230   0.33769   0.00000  Uiso   1.00
C430   C     0.19657   0.83244   0.16218   0.00000  Uiso   1.00
C431   C     0.11894   0.82336   0.38722   0.00000  Uiso   1.00
C432   C     0.16627   0.75354   0.25111   0.00000  Uiso   1.00
C433   C     0.21402   0.82652   0.11184   0.00000  Uiso   1.00
C434   C     0.06307   0.78780   0.45428   0.00000  Uiso   1.00
C435   C     0.27752   0.81862   0.03670   0.00000  Uiso   1.00
C436   C     0.07588   0.80190   0.40850   0.00000  Uiso   1.00
C437   C     0.26298   0.82567   0.08447   0.00000  Uiso   1.00
C438   C     0.14984   0.82908   0.41094   0.00000  Uiso   1.00
C439   C     0.18003   0.81963   0.09139   0.00000  Uiso   1.00
C440   C     0.13920   0.81197   0.45501   0.00000  Uiso   1.00
C441   C     0.19387   0.81154   0.04408   0.00000  Uiso   1.00
C442   C     0.09346   0.79479   0.47882   0.00000  Uiso   1.00
C443   C     0.11202   0.79159   0.04869   0.00000  Uiso   1.00
C444   C     0.24334   0.81177   0.01609   0.00000  Uiso   1.00
C445   C     0.17389   0.81057   0.47525   0.00000  Uiso   1.00
C446   C     0.15947   0.80488   0.02347   0.00000  Uiso   1.00
C447   C     0.03716   0.72557   0.05814   0.00000  Uiso   1.00
C448   C     0.30056   0.75038   0.42739   0.00000  Uiso   1.00
C449   C     0.22287   0.80991   0.44769   0.00000  Uiso   1.00
C450   C     0.08017   0.78359   0.02580   0.00000  Uiso   1.00
C451   C     0.25695   0.80530   0.46808   0.00000  Uiso   1.00
C452   C     0.18011   0.97778   0.28236   0.00000  Uiso   1.00
C453   C     0.15314   0.68892   0.21786   0.00000  Uiso   1.00
C454   C     0.17950   0.68756   0.28416   0.00000  Uiso   1.00
H455   H     0.14238   0.82222   0.11243   0.00000  Uiso   1.00
H456   H     0.14352   0.70652   0.19253   0.00000  Uiso   1.00
H457   H     0.31378   0.79305   0.19144   0.00000  Uiso   1.00
H458   H     0.01954   0.87357   0.30858   0.00000  Uiso   1.00
H459   H     0.06357   0.79299   0.19148   0.00000  Uiso   1.00
H460   H     0.26974   0.87360   0.30856   0.00000  Uiso   1.00
H461   H     0.05711   0.71929   0.08160   0.00000  Uiso   1.00
H462   H     0.05371   0.70810   0.02477   0.00000  Uiso   1.00
H463   H     0.00017   0.71344   0.07541   0.00000  Uiso   1.00
H464   H     0.28425   0.74822   0.40037   0.00000  Uiso   1.00
H465   H     0.28085   0.72993   0.45752   0.00000  Uiso   1.00
H466   H     0.18291   0.84620   0.39428   0.00000  Uiso   1.00
H467   H     0.00404   0.73744   0.41171   0.00000  Uiso   1.00
H468   H     0.28982   0.83101   0.09977   0.00000  Uiso   1.00
H469   H     0.05361   0.79491   0.38871   0.00000  Uiso   1.00
H470   H     0.03070   0.76988   0.47012   0.00000  Uiso   1.00
H471   H     0.31519   0.82046   0.01588   0.00000  Uiso   1.00
H472   H     0.10006   0.78422   0.08527   0.00000  Uiso   1.00
H473   H     0.23503   0.80793   0.41018   0.00000  Uiso   1.00
H474   H     0.18974   0.96017   0.30767   0.00000  Uiso   1.00
I475   I     0.19584   0.71699   0.33861   0.00000  Uiso   1.00
I476   I     0.13723   0.94978   0.16173   0.00000  Uiso   1.00
N477   N     0.04759   0.83334   0.25001   0.00000  Uiso   1.00
N478   N     0.28574   0.83332   0.24999   0.00000  Uiso   1.00
O479   O     0.12846   0.89442   0.25000   0.00000  Uiso   1.00
O480   O     0.30268   0.79261   0.44127   0.00000  Uiso   1.00
O481   O     0.20488   0.77225   0.24999   0.00000  Uiso   1.00
O482   O     0.20490   0.89441   0.25000   0.00000  Uiso   1.00
O483   O     0.12843   0.77226   0.25000   0.00000  Uiso   1.00
O484   O     0.10661   0.83334   0.31612   0.00000  Uiso   1.00
O485   O     0.22672   0.83333   0.18387   0.00000  Uiso   1.00
O486   O     0.18305   0.83333   0.31612   0.00000  Uiso   1.00
O487   O     0.15028   0.83334   0.18388   0.00000  Uiso   1.00
O488   O     0.03447   0.76893   0.05049   0.00000  Uiso   1.00
Zn489  Zn    0.11562   0.83334   0.25000   0.00000  Uiso   1.00
Zn490  Zn    0.21771   0.83333   0.25000   0.00000  Uiso   1.00
C491   C     0.50036   0.91313   0.24900   0.00000  Uiso   1.00
C492   C     0.48704   0.97916   0.21608   0.00000  Uiso   1.00
C493   C     0.49947   0.70938   0.25147   0.00000  Uiso   1.00
C494   C     0.50044   0.95731   0.24873   0.00000  Uiso   1.00
C495   C     0.65504   0.81101   0.21756   0.00000  Uiso   1.00
C496   C     0.34495   0.85562   0.28246   0.00000  Uiso   1.00
C497   C     0.36936   0.81100   0.21758   0.00000  Uiso   1.00
C498   C     0.63064   0.85562   0.28245   0.00000  Uiso   1.00
C499   C     0.47005   0.83230   0.33769   0.00000  Uiso   1.00
C500   C     0.52990   0.83244   0.16218   0.00000  Uiso   1.00
C501   C     0.45228   0.82336   0.38722   0.00000  Uiso   1.00
C502   C     0.49960   0.75354   0.25111   0.00000  Uiso   1.00
C503   C     0.54735   0.82652   0.11184   0.00000  Uiso   1.00
C504   C     0.39640   0.78780   0.45428   0.00000  Uiso   1.00
C505   C     0.61086   0.81862   0.03670   0.00000  Uiso   1.00
C506   C     0.40922   0.80190   0.40850   0.00000  Uiso   1.00
C507   C     0.59631   0.82567   0.08447   0.00000  Uiso   1.00
C508   C     0.48317   0.82908   0.41094   0.00000  Uiso   1.00
C509   C     0.51336   0.81963   0.09139   0.00000  Uiso   1.00
C510   C     0.47253   0.81197   0.45501   0.00000  Uiso   1.00
C511   C     0.52721   0.81154   0.04408   0.00000  Uiso   1.00
C512   C     0.42680   0.79479   0.47882   0.00000  Uiso   1.00
C513   C     0.44535   0.79159   0.04869   0.00000  Uiso   1.00
C514   C     0.57667   0.81177   0.01609   0.00000  Uiso   1.00
C515   C     0.50722   0.81057   0.47525   0.00000  Uiso   1.00
C516   C     0.49280   0.80488   0.02347   0.00000  Uiso   1.00
C517   C     0.37049   0.72557   0.05814   0.00000  Uiso   1.00
C518   C     0.63389   0.75038   0.42739   0.00000  Uiso   1.00
C519   C     0.55620   0.80991   0.44769   0.00000  Uiso   1.00
C520   C     0.41350   0.78359   0.02580   0.00000  Uiso   1.00
C521   C     0.59029   0.80530   0.46808   0.00000  Uiso   1.00
C522   C     0.51344   0.97778   0.28236   0.00000  Uiso   1.00
C523   C     0.48647   0.68892   0.21786   0.00000  Uiso   1.00
C524   C     0.51283   0.68756   0.28416   0.00000  Uiso   1.00
H525   H     0.47571   0.82222   0.11243   0.00000  Uiso   1.00
H526   H     0.47686   0.70652   0.19253   0.00000  Uiso   1.00
H527   H     0.64711   0.79305   0.19144   0.00000  Uiso   1.00
H528   H     0.35288   0.87357   0.30858   0.00000  Uiso   1.00
H529   H     0.39690   0.79299   0.19148   0.00000  Uiso   1.00
H530   H     0.60308   0.87360   0.30856   0.00000  Uiso   1.00
H531   H     0.39044   0.71929   0.08160   0.00000  Uiso   1.00
H532   H     0.38704   0.70810   0.02477   0.00000  Uiso   1.00
H533   H     0.33351   0.71344   0.07541   0.00000  Uiso   1.00
H534   H     0.61758   0.74822   0.40037   0.00000  Uiso   1.00
H535   H     0.61418   0.72993   0.45752   0.00000  Uiso   1.00
H536   H     0.51624   0.84620   0.39428   0.00000  Uiso   1.00
H537   H     0.33737   0.73744   0.41171   0.00000  Uiso   1.00
H538   H     0.62315   0.83101   0.09977   0.00000  Uiso   1.00
H539   H     0.38695   0.79491   0.38871   0.00000  Uiso   1.00
H540   H     0.36403   0.76988   0.47012   0.00000  Uiso   1.00
H541   H     0.64852   0.82046   0.01588   0.00000  Uiso   1.00
H542   H     0.43339   0.78422   0.08527   0.00000  Uiso   1.00
H543   H     0.56836   0.80793   0.41018   0.00000  Uiso   1.00
H544   H     0.52307   0.96017   0.30767   0.00000  Uiso   1.00
I545   I     0.52917   0.71699   0.33861   0.00000  Uiso   1.00
I546   I     0.47057   0.94978   0.16173   0.00000  Uiso   1.00
N547   N     0.38093   0.83334   0.25001   0.00000  Uiso   1.00
N548   N     0.61907   0.83332   0.24999   0.00000  Uiso   1.00
O549   O     0.46179   0.89442   0.25000   0.00000  Uiso   1.00
O550   O     0.63602   0.79261   0.44127   0.00000  Uiso   1.00
O551   O     0.53821   0.77225   0.24999   0.00000  Uiso   1.00
O552   O     0.53823   0.89441   0.25000   0.00000  Uiso   1.00
O553   O     0.46177   0.77226   0.25000   0.00000  Uiso   1.00
O554   O     0.43994   0.83334   0.31612   0.00000  Uiso   1.00
O555   O     0.56006   0.83333   0.18387   0.00000  Uiso   1.00
O556   O     0.51639   0.83333   0.31612   0.00000  Uiso   1.00
O557   O     0.48361   0.83334   0.18388   0.00000  Uiso   1.00
O558   O     0.36781   0.76893   0.05049   0.00000  Uiso   1.00
Zn559  Zn    0.44896   0.83334   0.25000   0.00000  Uiso   1.00
Zn560  Zn    0.55104   0.83333   0.25000   0.00000  Uiso   1.00
C561   C     0.83369   0.91313   0.24900   0.00000  Uiso   1.00
C562   C     0.82037   0.97916   0.21608   0.00000  Uiso   1.00
C563   C     0.83281   0.70938   0.25147   0.00000  Uiso   1.00
C564   C     0.83378   0.95731   0.24873   0.00000  Uiso   1.00
C565   C     0.98837   0.81101   0.21756   0.00000  Uiso   1.00
C566   C     0.67828   0.85562   0.28246   0.00000  Uiso   1.00
C567   C     0.70269   0.81100   0.21758   0.00000  Uiso   1.00
C568   C     0.96397   0.85562   0.28245   0.00000  Uiso   1.00
C569   C     0.80338   0.83230   0.33769   0.00000  Uiso   1.00
C570   C     0.86324   0.83244   0.16218   0.00000  Uiso   1.00
C571   C     0.78561   0.82336   0.38722   0.00000  Uiso   1.00
C572   C     0.83293   0.75354   0.25111   0.00000  Uiso   1.00
C573   C     0.88068   0.82652   0.11184   0.00000  Uiso   1.00
C574   C     0.72974   0.78780   0.45428   0.00000  Uiso   1.00
C575   C     0.94419   0.81862   0.03670   0.00000  Uiso   1.00
C576   C     0.74255   0.80190   0.40850   0.00000  Uiso   1.00
C577   C     0.92964   0.82567   0.08447   0.00000  Uiso   1.00
C578   C     0.81650   0.82908   0.41094   0.00000  Uiso   1.00
C579   C     0.84670   0.81963   0.09139   0.00000  Uiso   1.00
C580   C     0.80587   0.81197   0.45501   0.00000  Uiso   1.00
C581   C     0.86054   0.81154   0.04408   0.00000  Uiso   1.00
C582   C     0.76013   0.79479   0.47882   0.00000  Uiso   1.00
C583   C     0.77868   0.79159   0.04869   0.00000  Uiso   1.00
C584   C     0.91000   0.81177   0.01609   0.00000  Uiso   1.00
C585   C     0.84055   0.81057   0.47525   0.00000  Uiso   1.00
C586   C     0.82614   0.80488   0.02347   0.00000  Uiso   1.00
C587   C     0.70382   0.72557   0.05814   0.00000  Uiso   1.00
C588   C     0.96722   0.75038   0.42739   0.00000  Uiso   1.00
C589   C     0.88953   0.80991   0.44769   0.00000  Uiso   1.00
C590   C     0.74683   0.78359   0.02580   0.00000  Uiso   1.00
C591   C     0.92362   0.80530   0.46808   0.00000  Uiso   1.00
C592   C     0.84677   0.97778   0.28236   0.00000  Uiso   1.00
C593   C     0.81980   0.68892   0.21786   0.00000  Uiso   1.00
C594   C     0.84617   0.68756   0.28416   0.00000  Uiso   1.00
H595   H     0.80904   0.82222   0.11243   0.00000  Uiso   1.00
H596   H     0.81019   0.70652   0.19253   0.00000  Uiso   1.00
H597   H     0.98045   0.79305   0.19144   0.00000  Uiso   1.00
H598   H     0.68621   0.87357   0.30858   0.00000  Uiso   1.00
H599   H     0.73024   0.79299   0.19148   0.00000  Uiso   1.00
H600   H     0.93641   0.87360   0.30856   0.00000  Uiso   1.00
H601   H     0.72378   0.71929   0.08160   0.00000  Uiso   1.00
H602   H     0.72038   0.70810   0.02477   0.00000  Uiso   1.00
H603   H     0.66684   0.71344   0.07541   0.00000  Uiso   1.00
H604   H     0.95091   0.74822   0.40037   0.00000  Uiso   1.00
H605   H     0.94751   0.72993   0.45752   0.00000  Uiso   1.00
H606   H     0.84958   0.84620   0.39428   0.00000  Uiso   1.00
H607   H     0.67071   0.73744   0.41171   0.00000  Uiso   1.00
H608   H     0.95649   0.83101   0.09977   0.00000  Uiso   1.00
H609   H     0.72028   0.79491   0.38871   0.00000  Uiso   1.00
H610   H     0.69736   0.76988   0.47012   0.00000  Uiso   1.00
H611   H     0.98185   0.82046   0.01588   0.00000  Uiso   1.00
H612   H     0.76673   0.78422   0.08527   0.00000  Uiso   1.00
H613   H     0.90170   0.80793   0.41018   0.00000  Uiso   1.00
H614   H     0.85640   0.96017   0.30767   0.00000  Uiso   1.00
I615   I     0.86251   0.71699   0.33861   0.00000  Uiso   1.00
I616   I     0.80390   0.94978   0.16173   0.00000  Uiso   1.00
N617   N     0.71426   0.83334   0.25001   0.00000  Uiso   1.00
N618   N     0.95241   0.83332   0.24999   0.00000  Uiso   1.00
O619   O     0.79512   0.89442   0.25000   0.00000  Uiso   1.00
O620   O     0.96935   0.79261   0.44127   0.00000  Uiso   1.00
O621   O     0.87154   0.77225   0.24999   0.00000  Uiso   1.00
O622   O     0.87157   0.89441   0.25000   0.00000  Uiso   1.00
O623   O     0.79510   0.77226   0.25000   0.00000  Uiso   1.00
O624   O     0.77328   0.83334   0.31612   0.00000  Uiso   1.00
O625   O     0.89339   0.83333   0.18387   0.00000  Uiso   1.00
O626   O     0.84972   0.83333   0.31612   0.00000  Uiso   1.00
O627   O     0.81695   0.83334   0.18388   0.00000  Uiso   1.00
O628   O     0.70114   0.76893   0.05049   0.00000  Uiso   1.00
Zn629  Zn    0.78229   0.83334   0.25000   0.00000  Uiso   1.00
Zn630  Zn    0.88438   0.83333   0.25000   0.00000  Uiso   1.00
C631   C     0.16703   0.24647   0.74900   0.00000  Uiso   1.00
C632   C     0.15370   0.31249   0.71608   0.00000  Uiso   1.00
C633   C     0.16614   0.04272   0.75147   0.00000  Uiso   1.00
C634   C     0.16711   0.29065   0.74873   0.00000  Uiso   1.00
C635   C     0.32171   0.14434   0.71756   0.00000  Uiso   1.00
C636   C     0.01162   0.18896   0.78246   0.00000  Uiso   1.00
C637   C     0.03602   0.14433   0.71758   0.00000  Uiso   1.00
C638   C     0.29730   0.18896   0.78245   0.00000  Uiso   1.00
C639   C     0.13672   0.16563   0.83769   0.00000  Uiso   1.00
C640   C     0.19657   0.16578   0.66218   0.00000  Uiso   1.00
C641   C     0.11894   0.15669   0.88722   0.00000  Uiso   1.00
C642   C     0.16627   0.08688   0.75111   0.00000  Uiso   1.00
C643   C     0.21402   0.15985   0.61184   0.00000  Uiso   1.00
C644   C     0.06307   0.12114   0.95428   0.00000  Uiso   1.00
C645   C     0.27752   0.15195   0.53670   0.00000  Uiso   1.00
C646   C     0.07588   0.13524   0.90850   0.00000  Uiso   1.00
C647   C     0.26298   0.15900   0.58447   0.00000  Uiso   1.00
C648   C     0.14984   0.16241   0.91094   0.00000  Uiso   1.00
C649   C     0.18003   0.15296   0.59139   0.00000  Uiso   1.00
C650   C     0.13920   0.14531   0.95501   0.00000  Uiso   1.00
C651   C     0.19387   0.14487   0.54408   0.00000  Uiso   1.00
C652   C     0.09346   0.12813   0.97882   0.00000  Uiso   1.00
C653   C     0.11202   0.12492   0.54869   0.00000  Uiso   1.00
C654   C     0.24334   0.14510   0.51609   0.00000  Uiso   1.00
C655   C     0.17389   0.14390   0.97525   0.00000  Uiso   1.00
C656   C     0.15947   0.13821   0.52347   0.00000  Uiso   1.00
C657   C     0.03716   0.05891   0.55814   0.00000  Uiso   1.00
C658   C     0.30056   0.08371   0.92739   0.00000  Uiso   1.00
C659   C     0.22287   0.14325   0.94769   0.00000  Uiso   1.00
C660   C     0.08017   0.11692   0.52580   0.00000  Uiso   1.00
C661   C     0.25695   0.13864   0.96808   0.00000  Uiso   1.00
C662   C     0.18011   0.31112   0.78236   0.00000  Uiso   1.00
C663   C     0.15314   0.02225   0.71786   0.00000  Uiso   1.00
C664   C     0.17950   0.02089   0.78416   0.00000  Uiso   1.00
H665   H     0.14238   0.15555   0.61243   0.00000  Uiso   1.00
H666   H     0.14352   0.03986   0.69253   0.00000  Uiso   1.00
H667   H     0.31378   0.12638   0.69144   0.00000  Uiso   1.00
H668   H     0.01954   0.20690   0.80858   0.00000  Uiso   1.00
H669   H     0.06357   0.12633   0.69148   0.00000  Uiso   1.00
H670   H     0.26974   0.20693   0.80856   0.00000  Uiso   1.00
H671   H     0.05711   0.05262   0.58160   0.00000  Uiso   1.00
H672   H     0.05371   0.04144   0.52477   0.00000  Uiso   1.00
H673   H     0.00017   0.04677   0.57541   0.00000  Uiso   1.00
H674   H     0.28425   0.08156   0.90037   0.00000  Uiso   1.00
H675   H     0.28085   0.06326   0.95752   0.00000  Uiso   1.00
H676   H     0.18291   0.17953   0.89428   0.00000  Uiso   1.00
H677   H     0.00404   0.07078   0.91171   0.00000  Uiso   1.00
H678   H     0.28982   0.16434   0.59977   0.00000  Uiso   1.00
H679   H     0.05361   0.12825   0.88871   0.00000  Uiso   1.00
H680   H     0.03070   0.10321   0.97012   0.00000  Uiso   1.00
H681   H     0.31519   0.15379   0.51588   0.00000  Uiso   1.00
H682   H     0.10006   0.11756   0.58527   0.00000  Uiso   1.00
H683   H     0.23503   0.14126   0.91018   0.00000  Uiso   1.00
H684   H     0.18974   0.29351   0.80767   0.00000  Uiso   1.00
I685   I     0.19584   0.05032   0.83861   0.00000  Uiso   1.00
I686   I     0.13723   0.28311   0.66173   0.00000  Uiso   1.00
N687   N     0.04759   0.16668   0.75001   0.00000  Uiso   1.00
N688   N     0.28574   0.16666   0.74999   0.00000  Uiso   1.00
O689   O     0.12846   0.22775   0.75000   0.00000  Uiso   1.00
O690   O     0.30268   0.12594   0.94127   0.00000  Uiso   1.00
O691   O     0.20488   0.10558   0.74999   0.00000  Uiso   1.00
O692   O     0.20490   0.22774   0.75000   0.00000  Uiso   1.00
O693   O     0.12843   0.10559   0.75000   0.00000  Uiso   1.00
O694   O     0.10661   0.16667   0.81612   0.00000  Uiso   1.00
O695   O     0.22672   0.16666   0.68387   0.00000  Uiso   1.00
O696   O     0.18305   0.16666   0.81612   0.00000  Uiso   1.00
O697   O     0.15028   0.16667   0.68388   0.00000  Uiso   1.00
O698   O     0.03447   0.10226   0.55049   0.00000  Uiso   1.00
Zn699  Zn    0.11562   0.16667   0.75000   0.00000  Uiso   1.00
Zn700  Zn    0.21771   0.16666   0.75000   0.00000  Uiso   1.00
C701   C     0.50036   0.24647   0.74900   0.00000  Uiso   1.00
C702   C     0.48704   0.31249   0.71608   0.00000  Uiso   1.00
C703   C     0.49947   0.04272   0.75147   0.00000  Uiso   1.00
C704   C     0.50044   0.29065   0.74873   0.00000  Uiso   1.00
C705   C     0.65504   0.14434   0.71756   0.00000  Uiso   1.00
C706   C     0.34495   0.18896   0.78246   0.00000  Uiso   1.00
C707   C     0.36936   0.14433   0.71758   0.00000  Uiso   1.00
C708   C     0.63064   0.18896   0.78245   0.00000  Uiso   1.00
C709   C     0.47005   0.16563   0.83769   0.00000  Uiso   1.00
C710   C     0.52990   0.16578   0.66218   0.00000  Uiso   1.00
C711   C     0.45228   0.15669   0.88722   0.00000  Uiso   1.00
C712   C     0.49960   0.08688   0.75111   0.00000  Uiso   1.00
C713   C     0.54735   0.15985   0.61184   0.00000  Uiso   1.00
C714   C     0.39640   0.12114   0.95428   0.00000  Uiso   1.00
C715   C     0.61086   0.15195   0.53670   0.00000  Uiso   1.00
C716   C     0.40922   0.13524   0.90850   0.00000  Uiso   1.00
C717   C     0.59631   0.15900   0.58447   0.00000  Uiso   1.00
C718   C     0.48317   0.16241   0.91094   0.00000  Uiso   1.00
C719   C     0.51336   0.15296   0.59139   0.00000  Uiso   1.00
C720   C     0.47253   0.14531   0.95501   0.00000  Uiso   1.00
C721   C     0.52721   0.14487   0.54408   0.00000  Uiso   1.00
C722   C     0.42680   0.12813   0.97882   0.00000  Uiso   1.00
C723   C     0.44535   0.12492   0.54869   0.00000  Uiso   1.00
C724   C     0.57667   0.14510   0.51609   0.00000  Uiso   1.00
C725   C     0.50722   0.14390   0.97525   0.00000  Uiso   1.00
C726   C     0.49280   0.13821   0.52347   0.00000  Uiso   1.00
C727   C     0.37049   0.05891   0.55814   0.00000  Uiso   1.00
C728   C     0.63389   0.08371   0.92739   0.00000  Uiso   1.00
C729   C     0.55620   0.14325   0.94769   0.00000  Uiso   1.00
C730   C     0.41350   0.11692   0.52580   0.00000  Uiso   1.00
C731   C     0.59029   0.13864   0.96808   0.00000  Uiso   1.00
C732   C     0.51344   0.31112   0.78236   0.00000  Uiso   1.00
C733   C     0.48647   0.02225   0.71786   0.00000  Uiso   1.00
C734   C     0.51283   0.02089   0.78416   0.00000  Uiso   1.00
H735   H     0.47571   0.15555   0.61243   0.00000  Uiso   1.00
H736   H     0.47686   0.03986   0.69253   0.00000  Uiso   1.00
H737   H     0.64711   0.12638   0.69144   0.00000  Uiso   1.00
H738   H     0.35288   0.20690   0.80858   0.00000  Uiso   1.00
H739   H     0.39690   0.12633   0.69148   0.00000  Uiso   1.00
H740   H     0.60308   0.20693   0.80856   0.00000  Uiso   1.00
H741   H     0.39044   0.05262   0.58160   0.00000  Uiso   1.00
H742   H     0.38704   0.04144   0.52477   0.00000  Uiso   1.00
H743   H     0.33351   0.04677   0.57541   0.00000  Uiso   1.00
H744   H     0.61758   0.08156   0.90037   0.00000  Uiso   1.00
H745   H     0.61418   0.06326   0.95752   0.00000  Uiso   1.00
H746   H     0.51624   0.17953   0.89428   0.00000  Uiso   1.00
H747   H     0.33737   0.07078   0.91171   0.00000  Uiso   1.00
H748   H     0.62315   0.16434   0.59977   0.00000  Uiso   1.00
H749   H     0.38695   0.12825   0.88871   0.00000  Uiso   1.00
H750   H     0.36403   0.10321   0.97012   0.00000  Uiso   1.00
H751   H     0.64852   0.15379   0.51588   0.00000  Uiso   1.00
H752   H     0.43339   0.11756   0.58527   0.00000  Uiso   1.00
H753   H     0.56836   0.14126   0.91018   0.00000  Uiso   1.00
H754   H     0.52307   0.29351   0.80767   0.00000  Uiso   1.00
I755   I     0.52917   0.05032   0.83861   0.00000  Uiso   1.00
I756   I     0.47057   0.28311   0.66173   0.00000  Uiso   1.00
N757   N     0.38093   0.16668   0.75001   0.00000  Uiso   1.00
N758   N     0.61907   0.16666   0.74999   0.00000  Uiso   1.00
O759   O     0.46179   0.22775   0.75000   0.00000  Uiso   1.00
O760   O     0.63602   0.12594   0.94127   0.00000  Uiso   1.00
O761   O     0.53821   0.10558   0.74999   0.00000  Uiso   1.00
O762   O     0.53823   0.22774   0.75000   0.00000  Uiso   1.00
O763   O     0.46177   0.10559   0.75000   0.00000  Uiso   1.00
O764   O     0.43994   0.16667   0.81612   0.00000  Uiso   1.00
O765   O     0.56006   0.16666   0.68387   0.00000  Uiso   1.00
O766   O     0.51639   0.16666   0.81612   0.00000  Uiso   1.00
O767   O     0.48361   0.16667   0.68388   0.00000  Uiso   1.00
O768   O     0.36781   0.10226   0.55049   0.00000  Uiso   1.00
Zn769  Zn    0.44896   0.16667   0.75000   0.00000  Uiso   1.00
Zn770  Zn    0.55104   0.16666   0.75000   0.00000  Uiso   1.00
C771   C     0.83369   0.24647   0.74900   0.00000  Uiso   1.00
C772   C     0.82037   0.31249   0.71608   0.00000  Uiso   1.00
C773   C     0.83281   0.04272   0.75147   0.00000  Uiso   1.00
C774   C     0.83378   0.29065   0.74873   0.00000  Uiso   1.00
C775   C     0.98837   0.14434   0.71756   0.00000  Uiso   1.00
C776   C     0.67828   0.18896   0.78246   0.00000  Uiso   1.00
C777   C     0.70269   0.14433   0.71758   0.00000  Uiso   1.00
C778   C     0.96397   0.18896   0.78245   0.00000  Uiso   1.00
C779   C     0.80338   0.16563   0.83769   0.00000  Uiso   1.00
C780   C     0.86324   0.16578   0.66218   0.00000  Uiso   1.00
C781   C     0.78561   0.15669   0.88722   0.00000  Uiso   1.00
C782   C     0.83293   0.08688   0.75111   0.00000  Uiso   1.00
C783   C     0.88068   0.15985   0.61184   0.00000  Uiso   1.00
C784   C     0.72974   0.12114   0.95428   0.00000  Uiso   1.00
C785   C     0.94419   0.15195   0.53670   0.00000  Uiso   1.00
C786   C     0.74255   0.13524   0.90850   0.00000  Uiso   1.00
C787   C     0.92964   0.15900   0.58447   0.00000  Uiso   1.00
C788   C     0.81650   0.16241   0.91094   0.00000  Uiso   1.00
C789   C     0.84670   0.15296   0.59139   0.00000  Uiso   1.00
C790   C     0.80587   0.14531   0.95501   0.00000  Uiso   1.00
C791   C     0.86054   0.14487   0.54408   0.00000  Uiso   1.00
C792   C     0.76013   0.12813   0.97882   0.00000  Uiso   1.00
C793   C     0.77868   0.12492   0.54869   0.00000  Uiso   1.00
C794   C     0.91000   0.14510   0.51609   0.00000  Uiso   1.00
C795   C     0.84055   0.14390   0.97525   0.00000  Uiso   1.00
C796   C     0.82614   0.13821   0.52347   0.00000  Uiso   1.00
C797   C     0.70382   0.05891   0.55814   0.00000  Uiso   1.00
C798   C     0.96722   0.08371   0.92739   0.00000  Uiso   1.00
C799   C     0.88953   0.14325   0.94769   0.00000  Uiso   1.00
C800   C     0.74683   0.11692   0.52580   0.00000  Uiso   1.00
C801   C     0.92362   0.13864   0.96808   0.00000  Uiso   1.00
C802   C     0.84677   0.31112   0.78236   0.00000  Uiso   1.00
C803   C     0.81980   0.02225   0.71786   0.00000  Uiso   1.00
C804   C     0.84617   0.02089   0.78416   0.00000  Uiso   1.00
H805   H     0.80904   0.15555   0.61243   0.00000  Uiso   1.00
H806   H     0.81019   0.03986   0.69253   0.00000  Uiso   1.00
H807   H     0.98045   0.12638   0.69144   0.00000  Uiso   1.00
H808   H     0.68621   0.20690   0.80858   0.00000  Uiso   1.00
H809   H     0.73024   0.12633   0.69148   0.00000  Uiso   1.00
H810   H     0.93641   0.20693   0.80856   0.00000  Uiso   1.00
H811   H     0.72378   0.05262   0.58160   0.00000  Uiso   1.00
H812   H     0.72038   0.04144   0.52477   0.00000  Uiso   1.00
H813   H     0.66684   0.04677   0.57541   0.00000  Uiso   1.00
H814   H     0.95091   0.08156   0.90037   0.00000  Uiso   1.00
H815   H     0.94751   0.06326   0.95752   0.00000  Uiso   1.00
H816   H     0.84958   0.17953   0.89428   0.00000  Uiso   1.00
H817   H     0.67071   0.07078   0.91171   0.00000  Uiso   1.00
H818   H     0.95649   0.16434   0.59977   0.00000  Uiso   1.00
H819   H     0.72028   0.12825   0.88871   0.00000  Uiso   1.00
H820   H     0.69736   0.10321   0.97012   0.00000  Uiso   1.00
H821   H     0.98185   0.15379   0.51588   0.00000  Uiso   1.00
H822   H     0.76673   0.11756   0.58527   0.00000  Uiso   1.00
H823   H     0.90170   0.14126   0.91018   0.00000  Uiso   1.00
H824   H     0.85640   0.29351   0.80767   0.00000  Uiso   1.00
I825   I     0.86251   0.05032   0.83861   0.00000  Uiso   1.00
I826   I     0.80390   0.28311   0.66173   0.00000  Uiso   1.00
N827   N     0.71426   0.16668   0.75001   0.00000  Uiso   1.00
N828   N     0.95241   0.16666   0.74999   0.00000  Uiso   1.00
O829   O     0.79512   0.22775   0.75000   0.00000  Uiso   1.00
O830   O     0.96935   0.12594   0.94127   0.00000  Uiso   1.00
O831   O     0.87154   0.10558   0.74999   0.00000  Uiso   1.00
O832   O     0.87157   0.22774   0.75000   0.00000  Uiso   1.00
O833   O     0.79510   0.10559   0.75000   0.00000  Uiso   1.00
O834   O     0.77328   0.16667   0.81612   0.00000  Uiso   1.00
O835   O     0.89339   0.16666   0.68387   0.00000  Uiso   1.00
O836   O     0.84972   0.16666   0.81612   0.00000  Uiso   1.00
O837   O     0.81695   0.16667   0.68388   0.00000  Uiso   1.00
O838   O     0.70114   0.10226   0.55049   0.00000  Uiso   1.00
Zn839  Zn    0.78229   0.16667   0.75000   0.00000  Uiso   1.00
Zn840  Zn    0.88438   0.16666   0.75000   0.00000  Uiso   1.00
C841   C     0.16703   0.57980   0.74900   0.00000  Uiso   1.00
C842   C     0.15370   0.64582   0.71608   0.00000  Uiso   1.00
C843   C     0.16614   0.37605   0.75147   0.00000  Uiso   1.00
C844   C     0.16711   0.62398   0.74873   0.00000  Uiso   1.00
C845   C     0.32171   0.47767   0.71756   0.00000  Uiso   1.00
C846   C     0.01162   0.52229   0.78246   0.00000  Uiso   1.00
C847   C     0.03602   0.47767   0.71758   0.00000  Uiso   1.00
C848   C     0.29730   0.52229   0.78245   0.00000  Uiso   1.00
C849   C     0.13672   0.49897   0.83769   0.00000  Uiso   1.00
C850   C     0.19657   0.49911   0.66218   0.00000  Uiso   1.00
C851   C     0.11894   0.49003   0.88722   0.00000  Uiso   1.00
C852   C     0.16627   0.42021   0.75111   0.00000  Uiso   1.00
C853   C     0.21402   0.49318   0.61184   0.00000  Uiso   1.00
C854   C     0.06307   0.45447   0.95428   0.00000  Uiso   1.00
C855   C     0.27752   0.48528   0.53670   0.00000  Uiso   1.00
C856   C     0.07588   0.46857   0.90850   0.00000  Uiso   1.00
C857   C     0.26298   0.49233   0.58447   0.00000  Uiso   1.00
C858   C     0.14984   0.49575   0.91094   0.00000  Uiso   1.00
C859   C     0.18003   0.48630   0.59139   0.00000  Uiso   1.00
C860   C     0.13920   0.47864   0.95501   0.00000  Uiso   1.00
C861   C     0.19387   0.47820   0.54408   0.00000  Uiso   1.00
C862   C     0.09346   0.46146   0.97882   0.00000  Uiso   1.00
C863   C     0.11202   0.45826   0.54869   0.00000  Uiso   1.00
C864   C     0.24334   0.47844   0.51609   0.00000  Uiso   1.00
C865   C     0.17389   0.47723   0.97525   0.00000  Uiso   1.00
C866   C     0.15947   0.47154   0.52347   0.00000  Uiso   1.00
C867   C     0.03716   0.39224   0.55814   0.00000  Uiso   1.00
C868   C     0.30056   0.41705   0.92739   0.00000  Uiso   1.00
C869   C     0.22287   0.47658   0.94769   0.00000  Uiso   1.00
C870   C     0.08017   0.45025   0.52580   0.00000  Uiso   1.00
C871   C     0.25695   0.47197   0.96808   0.00000  Uiso   1.00
C872   C     0.18011   0.64445   0.78236   0.00000  Uiso   1.00
C873   C     0.15314   0.35559   0.71786   0.00000  Uiso   1.00
C874   C     0.17950   0.35422   0.78416   0.00000  Uiso   1.00
H875   H     0.14238   0.48889   0.61243   0.00000  Uiso   1.00
H876   H     0.14352   0.37319   0.69253   0.00000  Uiso   1.00
H877   H     0.31378   0.45971   0.69144   0.00000  Uiso   1.00
H878   H     0.01954   0.54023   0.80858   0.00000  Uiso   1.00
H879   H     0.06357   0.45966   0.69148   0.00000  Uiso   1.00
H880   H     0.26974   0.54026   0.80856   0.00000  Uiso   1.00
H881   H     0.05711   0.38596   0.58160   0.00000  Uiso   1.00
H882   H     0.05371   0.37477   0.52477   0.00000  Uiso   1.00
H883   H     0.00017   0.38011   0.57541   0.00000  Uiso   1.00
H884   H     0.28425   0.41489   0.90037   0.00000  Uiso   1.00
H885   H     0.28085   0.39659   0.95752   0.00000  Uiso   1.00
H886   H     0.18291   0.51286   0.89428   0.00000  Uiso   1.00
H887   H     0.00404   0.40411   0.91171   0.00000  Uiso   1.00
H888   H     0.28982   0.49767   0.59977   0.00000  Uiso   1.00
H889   H     0.05361   0.46158   0.88871   0.00000  Uiso   1.00
H890   H     0.03070   0.43655   0.97012   0.00000  Uiso   1.00
H891   H     0.31519   0.48713   0.51588   0.00000  Uiso   1.00
H892   H     0.10006   0.45089   0.58527   0.00000  Uiso   1.00
H893   H     0.23503   0.47459   0.91018   0.00000  Uiso   1.00
H894   H     0.18974   0.62684   0.80767   0.00000  Uiso   1.00
I895   I     0.19584   0.38366   0.83861   0.00000  Uiso   1.00
I896   I     0.13723   0.61644   0.66173   0.00000  Uiso   1.00
N897   N     0.04759   0.50001   0.75001   0.00000  Uiso   1.00
N898   N     0.28574   0.49999   0.74999   0.00000  Uiso   1.00
O899   O     0.12846   0.56108   0.75000   0.00000  Uiso   1.00
O900   O     0.30268   0.45928   0.94127   0.00000  Uiso   1.00
O901   O     0.20488   0.43892   0.74999   0.00000  Uiso   1.00
O902   O     0.20490   0.56107   0.75000   0.00000  Uiso   1.00
O903   O     0.12843   0.43893   0.75000   0.00000  Uiso   1.00
O904   O     0.10661   0.50001   0.81612   0.00000  Uiso   1.00
O905   O     0.22672   0.49999   0.68387   0.00000  Uiso   1.00
O906   O     0.18305   0.50000   0.81612   0.00000  Uiso   1.00
O907   O     0.15028   0.50000   0.68388   0.00000  Uiso   1.00
O908   O     0.03447   0.43560   0.55049   0.00000  Uiso   1.00
Zn909  Zn    0.11562   0.50001   0.75000   0.00000  Uiso   1.00
Zn910  Zn    0.21771   0.49999   0.75000   0.00000  Uiso   1.00
C911   C     0.50036   0.57980   0.74900   0.00000  Uiso   1.00
C912   C     0.48704   0.64582   0.71608   0.00000  Uiso   1.00
C913   C     0.49947   0.37605   0.75147   0.00000  Uiso   1.00
C914   C     0.50044   0.62398   0.74873   0.00000  Uiso   1.00
C915   C     0.65504   0.47767   0.71756   0.00000  Uiso   1.00
C916   C     0.34495   0.52229   0.78246   0.00000  Uiso   1.00
C917   C     0.36936   0.47767   0.71758   0.00000  Uiso   1.00
C918   C     0.63064   0.52229   0.78245   0.00000  Uiso   1.00
C919   C     0.47005   0.49897   0.83769   0.00000  Uiso   1.00
C920   C     0.52990   0.49911   0.66218   0.00000  Uiso   1.00
C921   C     0.45228   0.49003   0.88722   0.00000  Uiso   1.00
C922   C     0.49960   0.42021   0.75111   0.00000  Uiso   1.00
C923   C     0.54735   0.49318   0.61184   0.00000  Uiso   1.00
C924   C     0.39640   0.45447   0.95428   0.00000  Uiso   1.00
C925   C     0.61086   0.48528   0.53670   0.00000  Uiso   1.00
C926   C     0.40922   0.46857   0.90850   0.00000  Uiso   1.00
C927   C     0.59631   0.49233   0.58447   0.00000  Uiso   1.00
C928   C     0.48317   0.49575   0.91094   0.00000  Uiso   1.00
C929   C     0.51336   0.48630   0.59139   0.00000  Uiso   1.00
C930   C     0.47253   0.47864   0.95501   0.00000  Uiso   1.00
C931   C     0.52721   0.47820   0.54408   0.00000  Uiso   1.00
C932   C     0.42680   0.46146   0.97882   0.00000  Uiso   1.00
C933   C     0.44535   0.45826   0.54869   0.00000  Uiso   1.00
C934   C     0.57667   0.47844   0.51609   0.00000  Uiso   1.00
C935   C     0.50722   0.47723   0.97525   0.00000  Uiso   1.00
C936   C     0.49280   0.47154   0.52347   0.00000  Uiso   1.00
C937   C     0.37049   0.39224   0.55814   0.00000  Uiso   1.00
C938   C     0.63389   0.41705   0.92739   0.00000  Uiso   1.00
C939   C     0.55620   0.47658   0.94769   0.00000  Uiso   1.00
C940   C     0.41350   0.45025   0.52580   0.00000  Uiso   1.00
C941   C     0.59029   0.47197   0.96808   0.00000  Uiso   1.00
C942   C     0.51344   0.64445   0.78236   0.00000  Uiso   1.00
C943   C     0.48647   0.35559   0.71786   0.00000  Uiso   1.00
C944   C     0.51283   0.35422   0.78416   0.00000  Uiso   1.00
H945   H     0.47571   0.48889   0.61243   0.00000  Uiso   1.00
H946   H     0.47686   0.37319   0.69253   0.00000  Uiso   1.00
H947   H     0.64711   0.45971   0.69144   0.00000  Uiso   1.00
H948   H     0.35288   0.54023   0.80858   0.00000  Uiso   1.00
H949   H     0.39690   0.45966   0.69148   0.00000  Uiso   1.00
H950   H     0.60308   0.54026   0.80856   0.00000  Uiso   1.00
H951   H     0.39044   0.38596   0.58160   0.00000  Uiso   1.00
H952   H     0.38704   0.37477   0.52477   0.00000  Uiso   1.00
H953   H     0.33351   0.38011   0.57541   0.00000  Uiso   1.00
H954   H     0.61758   0.41489   0.90037   0.00000  Uiso   1.00
H955   H     0.61418   0.39659   0.95752   0.00000  Uiso   1.00
H956   H     0.51624   0.51286   0.89428   0.00000  Uiso   1.00
H957   H     0.33737   0.40411   0.91171   0.00000  Uiso   1.00
H958   H     0.62315   0.49767   0.59977   0.00000  Uiso   1.00
H959   H     0.38695   0.46158   0.88871   0.00000  Uiso   1.00
H960   H     0.36403   0.43655   0.97012   0.00000  Uiso   1.00
H961   H     0.64852   0.48713   0.51588   0.00000  Uiso   1.00
H962   H     0.43339   0.45089   0.58527   0.00000  Uiso   1.00
H963   H     0.56836   0.47459   0.91018   0.00000  Uiso   1.00
H964   H     0.52307   0.62684   0.80767   0.00000  Uiso   1.00
I965   I     0.52917   0.38366   0.83861   0.00000  Uiso   1.00
I966   I     0.47057   0.61644   0.66173   0.00000  Uiso   1.00
N967   N     0.38093   0.50001   0.75001   0.00000  Uiso   1.00
N968   N     0.61907   0.49999   0.74999   0.00000  Uiso   1.00
O969   O     0.46179   0.56108   0.75000   0.00000  Uiso   1.00
O970   O     0.63602   0.45928   0.94127   0.00000  Uiso   1.00
O971   O     0.53821   0.43892   0.74999   0.00000  Uiso   1.00
O972   O     0.53823   0.56107   0.75000   0.00000  Uiso   1.00
O973   O     0.46177   0.43893   0.75000   0.00000  Uiso   1.00
O974   O     0.43994   0.50001   0.81612   0.00000  Uiso   1.00
O975   O     0.56006   0.49999   0.68387   0.00000  Uiso   1.00
O976   O     0.51639   0.50000   0.81612   0.00000  Uiso   1.00
O977   O     0.48361   0.50000   0.68388   0.00000  Uiso   1.00
O978   O     0.36781   0.43560   0.55049   0.00000  Uiso   1.00
Zn979  Zn    0.44896   0.50001   0.75000   0.00000  Uiso   1.00
Zn980  Zn    0.55104   0.49999   0.75000   0.00000  Uiso   1.00
C981   C     0.83369   0.57980   0.74900   0.00000  Uiso   1.00
C982   C     0.82037   0.64582   0.71608   0.00000  Uiso   1.00
C983   C     0.83281   0.37605   0.75147   0.00000  Uiso   1.00
C984   C     0.83378   0.62398   0.74873   0.00000  Uiso   1.00
C985   C     0.98837   0.47767   0.71756   0.00000  Uiso   1.00
C986   C     0.67828   0.52229   0.78246   0.00000  Uiso   1.00
C987   C     0.70269   0.47767   0.71758   0.00000  Uiso   1.00
C988   C     0.96397   0.52229   0.78245   0.00000  Uiso   1.00
C989   C     0.80338   0.49897   0.83769   0.00000  Uiso   1.00
C990   C     0.86324   0.49911   0.66218   0.00000  Uiso   1.00
C991   C     0.78561   0.49003   0.88722   0.00000  Uiso   1.00
C992   C     0.83293   0.42021   0.75111   0.00000  Uiso   1.00
C993   C     0.88068   0.49318   0.61184   0.00000  Uiso   1.00
C994   C     0.72974   0.45447   0.95428   0.00000  Uiso   1.00
C995   C     0.94419   0.48528   0.53670   0.00000  Uiso   1.00
C996   C     0.74255   0.46857   0.90850   0.00000  Uiso   1.00
C997   C     0.92964   0.49233   0.58447   0.00000  Uiso   1.00
C998   C     0.81650   0.49575   0.91094   0.00000  Uiso   1.00
C999   C     0.84670   0.48630   0.59139   0.00000  Uiso   1.00
C1000  C     0.80587   0.47864   0.95501   0.00000  Uiso   1.00
C1001  C     0.86054   0.47820   0.54408   0.00000  Uiso   1.00
C1002  C     0.76013   0.46146   0.97882   0.00000  Uiso   1.00
C1003  C     0.77868   0.45826   0.54869   0.00000  Uiso   1.00
C1004  C     0.91000   0.47844   0.51609   0.00000  Uiso   1.00
C1005  C     0.84055   0.47723   0.97525   0.00000  Uiso   1.00
C1006  C     0.82614   0.47154   0.52347   0.00000  Uiso   1.00
C1007  C     0.70382   0.39224   0.55814   0.00000  Uiso   1.00
C1008  C     0.96722   0.41705   0.92739   0.00000  Uiso   1.00
C1009  C     0.88953   0.47658   0.94769   0.00000  Uiso   1.00
C1010  C     0.74683   0.45025   0.52580   0.00000  Uiso   1.00
C1011  C     0.92362   0.47197   0.96808   0.00000  Uiso   1.00
C1012  C     0.84677   0.64445   0.78236   0.00000  Uiso   1.00
C1013  C     0.81980   0.35559   0.71786   0.00000  Uiso   1.00
C1014  C     0.84617   0.35422   0.78416   0.00000  Uiso   1.00
H1015  H     0.80904   0.48889   0.61243   0.00000  Uiso   1.00
H1016  H     0.81019   0.37319   0.69253   0.00000  Uiso   1.00
H1017  H     0.98045   0.45971   0.69144   0.00000  Uiso   1.00
H1018  H     0.68621   0.54023   0.80858   0.00000  Uiso   1.00
H1019  H     0.73024   0.45966   0.69148   0.00000  Uiso   1.00
H1020  H     0.93641   0.54026   0.80856   0.00000  Uiso   1.00
H1021  H     0.72378   0.38596   0.58160   0.00000  Uiso   1.00
H1022  H     0.72038   0.37477   0.52477   0.00000  Uiso   1.00
H1023  H     0.66684   0.38011   0.57541   0.00000  Uiso   1.00
H1024  H     0.95091   0.41489   0.90037   0.00000  Uiso   1.00
H1025  H     0.94751   0.39659   0.95752   0.00000  Uiso   1.00
H1026  H     0.84958   0.51286   0.89428   0.00000  Uiso   1.00
H1027  H     0.67071   0.40411   0.91171   0.00000  Uiso   1.00
H1028  H     0.95649   0.49767   0.59977   0.00000  Uiso   1.00
H1029  H     0.72028   0.46158   0.88871   0.00000  Uiso   1.00
H1030  H     0.69736   0.43655   0.97012   0.00000  Uiso   1.00
H1031  H     0.98185   0.48713   0.51588   0.00000  Uiso   1.00
H1032  H     0.76673   0.45089   0.58527   0.00000  Uiso   1.00
H1033  H     0.90170   0.47459   0.91018   0.00000  Uiso   1.00
H1034  H     0.85640   0.62684   0.80767   0.00000  Uiso   1.00
I1035  I     0.86251   0.38366   0.83861   0.00000  Uiso   1.00
I1036  I     0.80390   0.61644   0.66173   0.00000  Uiso   1.00
N1037  N     0.71426   0.50001   0.75001   0.00000  Uiso   1.00
N1038  N     0.95241   0.49999   0.74999   0.00000  Uiso   1.00
O1039  O     0.79512   0.56108   0.75000   0.00000  Uiso   1.00
O1040  O     0.96935   0.45928   0.94127   0.00000  Uiso   1.00
O1041  O     0.87154   0.43892   0.74999   0.00000  Uiso   1.00
O1042  O     0.87157   0.56107   0.75000   0.00000  Uiso   1.00
O1043  O     0.79510   0.43893   0.75000   0.00000  Uiso   1.00
O1044  O     0.77328   0.50001   0.81612   0.00000  Uiso   1.00
O1045  O     0.89339   0.49999   0.68387   0.00000  Uiso   1.00
O1046  O     0.84972   0.50000   0.81612   0.00000  Uiso   1.00
O1047  O     0.81695   0.50000   0.68388   0.00000  Uiso   1.00
O1048  O     0.70114   0.43560   0.55049   0.00000  Uiso   1.00
Zn1049 Zn    0.78229   0.50001   0.75000   0.00000  Uiso   1.00
Zn1050 Zn    0.88438   0.49999   0.75000   0.00000  Uiso   1.00
C1051  C     0.16703   0.91313   0.74900   0.00000  Uiso   1.00
C1052  C     0.15370   0.97916   0.71608   0.00000  Uiso   1.00
C1053  C     0.16614   0.70938   0.75147   0.00000  Uiso   1.00
C1054  C     0.16711   0.95731   0.74873   0.00000  Uiso   1.00
C1055  C     0.32171   0.81101   0.71756   0.00000  Uiso   1.00
C1056  C     0.01162   0.85562   0.78246   0.00000  Uiso   1.00
C1057  C     0.03602   0.81100   0.71758   0.00000  Uiso   1.00
C1058  C     0.29730   0.85562   0.78245   0.00000  Uiso   1.00
C1059  C     0.13672   0.83230   0.83769   0.00000  Uiso   1.00
C1060  C     0.19657   0.83244   0.66218   0.00000  Uiso   1.00
C1061  C     0.11894   0.82336   0.88722   0.00000  Uiso   1.00
C1062  C     0.16627   0.75354   0.75111   0.00000  Uiso   1.00
C1063  C     0.21402   0.82652   0.61184   0.00000  Uiso   1.00
C1064  C     0.06307   0.78780   0.95428   0.00000  Uiso   1.00
C1065  C     0.27752   0.81862   0.53670   0.00000  Uiso   1.00
C1066  C     0.07588   0.80190   0.90850   0.00000  Uiso   1.00
C1067  C     0.26298   0.82567   0.58447   0.00000  Uiso   1.00
C1068  C     0.14984   0.82908   0.91094   0.00000  Uiso   1.00
C1069  C     0.18003   0.81963   0.59139   0.00000  Uiso   1.00
C1070  C     0.13920   0.81197   0.95501   0.00000  Uiso   1.00
C1071  C     0.19387   0.81154   0.54408   0.00000  Uiso   1.00
C1072  C     0.09346   0.79479   0.97882   0.00000  Uiso   1.00
C1073  C     0.11202   0.79159   0.54869   0.00000  Uiso   1.00
C1074  C     0.24334   0.81177   0.51609   0.00000  Uiso   1.00
C1075  C     0.17389   0.81057   0.97525   0.00000  Uiso   1.00
C1076  C     0.15947   0.80488   0.52347   0.00000  Uiso   1.00
C1077  C     0.03716   0.72557   0.55814   0.00000  Uiso   1.00
C1078  C     0.30056   0.75038   0.92739   0.00000  Uiso   1.00
C1079  C     0.22287   0.80991   0.94769   0.00000  Uiso   1.00
C1080  C     0.08017   0.78359   0.52580   0.00000  Uiso   1.00
C1081  C     0.25695   0.80530   0.96808   0.00000  Uiso   1.00
C1082  C     0.18011   0.97778   0.78236   0.00000  Uiso   1.00
C1083  C     0.15314   0.68892   0.71786   0.00000  Uiso   1.00
C1084  C     0.17950   0.68756   0.78416   0.00000  Uiso   1.00
H1085  H     0.14238   0.82222   0.61243   0.00000  Uiso   1.00
H1086  H     0.14352   0.70652   0.69253   0.00000  Uiso   1.00
H1087  H     0.31378   0.79305   0.69144   0.00000  Uiso   1.00
H1088  H     0.01954   0.87357   0.80858   0.00000  Uiso   1.00
H1089  H     0.06357   0.79299   0.69148   0.00000  Uiso   1.00
H1090  H     0.26974   0.87360   0.80856   0.00000  Uiso   1.00
H1091  H     0.05711   0.71929   0.58160   0.00000  Uiso   1.00
H1092  H     0.05371   0.70810   0.52477   0.00000  Uiso   1.00
H1093  H     0.00017   0.71344   0.57541   0.00000  Uiso   1.00
H1094  H     0.28425   0.74822   0.90037   0.00000  Uiso   1.00
H1095  H     0.28085   0.72993   0.95752   0.00000  Uiso   1.00
H1096  H     0.18291   0.84620   0.89428   0.00000  Uiso   1.00
H1097  H     0.00404   0.73744   0.91171   0.00000  Uiso   1.00
H1098  H     0.28982   0.83101   0.59977   0.00000  Uiso   1.00
H1099  H     0.05361   0.79491   0.88871   0.00000  Uiso   1.00
H1100  H     0.03070   0.76988   0.97012   0.00000  Uiso   1.00
H1101  H     0.31519   0.82046   0.51588   0.00000  Uiso   1.00
H1102  H     0.10006   0.78422   0.58527   0.00000  Uiso   1.00
H1103  H     0.23503   0.80793   0.91018   0.00000  Uiso   1.00
H1104  H     0.18974   0.96017   0.80767   0.00000  Uiso   1.00
I1105  I     0.19584   0.71699   0.83861   0.00000  Uiso   1.00
I1106  I     0.13723   0.94978   0.66173   0.00000  Uiso   1.00
N1107  N     0.04759   0.83334   0.75001   0.00000  Uiso   1.00
N1108  N     0.28574   0.83332   0.74999   0.00000  Uiso   1.00
O1109  O     0.12846   0.89442   0.75000   0.00000  Uiso   1.00
O1110  O     0.30268   0.79261   0.94127   0.00000  Uiso   1.00
O1111  O     0.20488   0.77225   0.74999   0.00000  Uiso   1.00
O1112  O     0.20490   0.89441   0.75000   0.00000  Uiso   1.00
O1113  O     0.12843   0.77226   0.75000   0.00000  Uiso   1.00
O1114  O     0.10661   0.83334   0.81612   0.00000  Uiso   1.00
O1115  O     0.22672   0.83333   0.68387   0.00000  Uiso   1.00
O1116  O     0.18305   0.83333   0.81612   0.00000  Uiso   1.00
O1117  O     0.15028   0.83334   0.68388   0.00000  Uiso   1.00
O1118  O     0.03447   0.76893   0.55049   0.00000  Uiso   1.00
Zn1119 Zn    0.11562   0.83334   0.75000   0.00000  Uiso   1.00
Zn1120 Zn    0.21771   0.83333   0.75000   0.00000  Uiso   1.00
C1121  C     0.50036   0.91313   0.74900   0.00000  Uiso   1.00
C1122  C     0.48704   0.97916   0.71608   0.00000  Uiso   1.00
C1123  C     0.49947   0.70938   0.75147   0.00000  Uiso   1.00
C1124  C     0.50044   0.95731   0.74873   0.00000  Uiso   1.00
C1125  C     0.65504   0.81101   0.71756   0.00000  Uiso   1.00
C1126  C     0.34495   0.85562   0.78246   0.00000  Uiso   1.00
C1127  C     0.36936   0.81100   0.71758   0.00000  Uiso   1.00
C1128  C     0.63064   0.85562   0.78245   0.00000  Uiso   1.00
C1129  C     0.47005   0.83230   0.83769   0.00000  Uiso   1.00
C1130  C     0.52990   0.83244   0.66218   0.00000  Uiso   1.00
C1131  C     0.45228   0.82336   0.88722   0.00000  Uiso   1.00
C1132  C     0.49960   0.75354   0.75111   0.00000  Uiso   1.00
C1133  C     0.54735   0.82652   0.61184   0.00000  Uiso   1.00
C1134  C     0.39640   0.78780   0.95428   0.00000  Uiso   1.00
C1135  C     0.61086   0.81862   0.53670   0.00000  Uiso   1.00
C1136  C     0.40922   0.80190   0.90850   0.00000  Uiso   1.00
C1137  C     0.59631   0.82567   0.58447   0.00000  Uiso   1.00
C1138  C     0.48317   0.82908   0.91094   0.00000  Uiso   1.00
C1139  C     0.51336   0.81963   0.59139   0.00000  Uiso   1.00
C1140  C     0.47253   0.81197   0.95501   0.00000  Uiso   1.00
C1141  C     0.52721   0.81154   0.54408   0.00000  Uiso   1.00
C1142  C     0.42680   0.79479   0.97882   0.00000  Uiso   1.00
C1143  C     0.44535   0.79159   0.54869   0.00000  Uiso   1.00
C1144  C     0.57667   0.81177   0.51609   0.00000  Uiso   1.00
C1145  C     0.50722   0.81057   0.97525   0.00000  Uiso   1.00
C1146  C     0.49280   0.80488   0.52347   0.00000  Uiso   1.00
C1147  C     0.37049   0.72557   0.55814   0.00000  Uiso   1.00
C1148  C     0.63389   0.75038   0.92739   0.00000  Uiso   1.00
C1149  C     0.55620   0.80991   0.94769   0.00000  Uiso   1.00
C1150  C     0.41350   0.78359   0.52580   0.00000  Uiso   1.00
C1151  C     0.59029   0.80530   0.96808   0.00000  Uiso   1.00
C1152  C     0.51344   0.97778   0.78236   0.00000  Uiso   1.00
C1153  C     0.48647   0.68892   0.71786   0.00000  Uiso   1.00
C1154  C     0.51283   0.68756   0.78416   0.00000  Uiso   1.00
H1155  H     0.47571   0.82222   0.61243   0.00000  Uiso   1.00
H1156  H     0.47686   0.70652   0.69253   0.00000  Uiso   1.00
H1157  H     0.64711   0.79305   0.69144   0.00000  Uiso   1.00
H1158  H     0.35288   0.87357   0.80858   0.00000  Uiso   1.00
H1159  H     0.39690   0.79299   0.69148   0.00000  Uiso   1.00
H1160  H     0.60308   0.87360   0.80856   0.00000  Uiso   1.00
H1161  H     0.39044   0.71929   0.58160   0.00000  Uiso   1.00
H1162  H     0.38704   0.70810   0.52477   0.00000  Uiso   1.00
H1163  H     0.33351   0.71344   0.57541   0.00000  Uiso   1.00
H1164  H     0.61758   0.74822   0.90037   0.00000  Uiso   1.00
H1165  H     0.61418   0.72993   0.95752   0.00000  Uiso   1.00
H1166  H     0.51624   0.84620   0.89428   0.00000  Uiso   1.00
H1167  H     0.33737   0.73744   0.91171   0.00000  Uiso   1.00
H1168  H     0.62315   0.83101   0.59977   0.00000  Uiso   1.00
H1169  H     0.38695   0.79491   0.88871   0.00000  Uiso   1.00
H1170  H     0.36403   0.76988   0.97012   0.00000  Uiso   1.00
H1171  H     0.64852   0.82046   0.51588   0.00000  Uiso   1.00
H1172  H     0.43339   0.78422   0.58527   0.00000  Uiso   1.00
H1173  H     0.56836   0.80793   0.91018   0.00000  Uiso   1.00
H1174  H     0.52307   0.96017   0.80767   0.00000  Uiso   1.00
I1175  I     0.52917   0.71699   0.83861   0.00000  Uiso   1.00
I1176  I     0.47057   0.94978   0.66173   0.00000  Uiso   1.00
N1177  N     0.38093   0.83334   0.75001   0.00000  Uiso   1.00
N1178  N     0.61907   0.83332   0.74999   0.00000  Uiso   1.00
O1179  O     0.46179   0.89442   0.75000   0.00000  Uiso   1.00
O1180  O     0.63602   0.79261   0.94127   0.00000  Uiso   1.00
O1181  O     0.53821   0.77225   0.74999   0.00000  Uiso   1.00
O1182  O     0.53823   0.89441   0.75000   0.00000  Uiso   1.00
O1183  O     0.46177   0.77226   0.75000   0.00000  Uiso   1.00
O1184  O     0.43994   0.83334   0.81612   0.00000  Uiso   1.00
O1185  O     0.56006   0.83333   0.68387   0.00000  Uiso   1.00
O1186  O     0.51639   0.83333   0.81612   0.00000  Uiso   1.00
O1187  O     0.48361   0.83334   0.68388   0.00000  Uiso   1.00
O1188  O     0.36781   0.76893   0.55049   0.00000  Uiso   1.00
Zn1189 Zn    0.44896   0.83334   0.75000   0.00000  Uiso   1.00
Zn1190 Zn    0.55104   0.83333   0.75000   0.00000  Uiso   1.00
C1191  C     0.83369   0.91313   0.74900   0.00000  Uiso   1.00
C1192  C     0.82037   0.97916   0.71608   0.00000  Uiso   1.00
C1193  C     0.83281   0.70938   0.75147   0.00000  Uiso   1.00
C1194  C     0.83378   0.95731   0.74873   0.00000  Uiso   1.00
C1195  C     0.98837   0.81101   0.71756   0.00000  Uiso   1.00
C1196  C     0.67828   0.85562   0.78246   0.00000  Uiso   1.00
C1197  C     0.70269   0.81100   0.71758   0.00000  Uiso   1.00
C1198  C     0.96397   0.85562   0.78245   0.00000  Uiso   1.00
C1199  C     0.80338   0.83230   0.83769   0.00000  Uiso   1.00
C1200  C     0.86324   0.83244   0.66218   0.00000  Uiso   1.00
C1201  C     0.78561   0.82336   0.88722   0.00000  Uiso   1.00
C1202  C     0.83293   0.75354   0.75111   0.00000  Uiso   1.00
C1203  C     0.88068   0.82652   0.61184   0.00000  Uiso   1.00
C1204  C     0.72974   0.78780   0.95428   0.00000  Uiso   1.00
C1205  C     0.94419   0.81862   0.53670   0.00000  Uiso   1.00
C1206  C     0.74255   0.80190   0.90850   0.00000  Uiso   1.00
C1207  C     0.92964   0.82567   0.58447   0.00000  Uiso   1.00
C1208  C     0.81650   0.82908   0.91094   0.00000  Uiso   1.00
C1209  C     0.84670   0.81963   0.59139   0.00000  Uiso   1.00
C1210  C     0.80587   0.81197   0.95501   0.00000  Uiso   1.00
C1211  C     0.86054   0.81154   0.54408   0.00000  Uiso   1.00
C1212  C     0.76013   0.79479   0.97882   0.00000  Uiso   1.00
C1213  C     0.77868   0.79159   0.54869   0.00000  Uiso   1.00
C1214  C     0.91000   0.81177   0.51609   0.00000  Uiso   1.00
C1215  C     0.84055   0.81057   0.97525   0.00000  Uiso   1.00
C1216  C     0.82614   0.80488   0.52347   0.00000  Uiso   1.00
C1217  C     0.70382   0.72557   0.55814   0.00000  Uiso   1.00
C1218  C     0.96722   0.75038   0.92739   0.00000  Uiso   1.00
C1219  C     0.88953   0.80991   0.94769   0.00000  Uiso   1.00
C1220  C     0.74683   0.78359   0.52580   0.00000  Uiso   1.00
C1221  C     0.92362   0.80530   0.96808   0.00000  Uiso   1.00
C1222  C     0.84677   0.97778   0.78236   0.00000  Uiso   1.00
C1223  C     0.81980   0.68892   0.71786   0.00000  Uiso   1.00
C1224  C     0.84617   0.68756   0.78416   0.00000  Uiso   1.00
H1225  H     0.80904   0.82222   0.61243   0.00000  Uiso   1.00
H1226  H     0.81019   0.70652   0.69253   0.00000  Uiso   1.00
H1227  H     0.98045   0.79305   0.69144   0.00000  Uiso   1.00
H1228  H     0.68621   0.87357   0.80858   0.00000  Uiso   1.00
H1229  H     0.73024   0.79299   0.69148   0.00000  Uiso   1.00
H1230  H     0.93641   0.87360   0.80856   0.00000  Uiso   1.00
H1231  H     0.72378   0.71929   0.58160   0.00000  Uiso   1.00
H1232  H     0.72038   0.70810   0.52477   0.00000  Uiso   1.00
H1233  H     0.66684   0.71344   0.57541   0.00000  Uiso   1.00
H1234  H     0.95091   0.74822   0.90037   0.00000  Uiso   1.00
H1235  H     0.94751   0.72993   0.95752   0.00000  Uiso   1.00
H1236  H     0.84958   0.84620   0.89428   0.00000  Uiso   1.00
H1237  H     0.67071   0.73744   0.91171   0.00000  Uiso   1.00
H1238  H     0.95649   0.83101   0.59977   0.00000  Uiso   1.00
H1239  H     0.72028   0.79491   0.88871   0.00000  Uiso   1.00
H1240  H     0.69736   0.76988   0.97012   0.00000  Uiso   1.00
H1241  H     0.98185   0.82046   0.51588   0.00000  Uiso   1.00
H1242  H     0.76673   0.78422   0.58527   0.00000  Uiso   1.00
H1243  H     0.90170   0.80793   0.91018   0.00000  Uiso   1.00
H1244  H     0.85640   0.96017   0.80767   0.00000  Uiso   1.00
I1245  I     0.86251   0.71699   0.83861   0.00000  Uiso   1.00
I1246  I     0.80390   0.94978   0.66173   0.00000  Uiso   1.00
N1247  N     0.71426   0.83334   0.75001   0.00000  Uiso   1.00
N1248  N     0.95241   0.83332   0.74999   0.00000  Uiso   1.00
O1249  O     0.79512   0.89442   0.75000   0.00000  Uiso   1.00
O1250  O     0.96935   0.79261   0.94127   0.00000  Uiso   1.00
O1251  O     0.87154   0.77225   0.74999   0.00000  Uiso   1.00
O1252  O     0.87157   0.89441   0.75000   0.00000  Uiso   1.00
O1253  O     0.79510   0.77226   0.75000   0.00000  Uiso   1.00
O1254  O     0.77328   0.83334   0.81612   0.00000  Uiso   1.00
O1255  O     0.89339   0.83333   0.68387   0.00000  Uiso   1.00
O1256  O     0.84972   0.83333   0.81612   0.00000  Uiso   1.00
O1257  O     0.81695   0.83334   0.68388   0.00000  Uiso   1.00
O1258  O     0.70114   0.76893   0.55049   0.00000  Uiso   1.00
Zn1259 Zn    0.78229   0.83334   0.75000   0.00000  Uiso   1.00
Zn1260 Zn    0.88438   0.83333   0.75000   0.00000  Uiso   1.00
loop_
_geom_bond_atom_site_label_1
_geom_bond_atom_site_label_2
_geom_bond_distance
_geom_bond_site_symmetry_2
_ccdc_geom_bond_type
C1     C4      1.408   .     S
C1     O62     1.291   .     A
C1     O59     1.290   .     A
C2     C4      1.400   .     A
C2     I56     2.128   .     S
C2     C243    1.374   .     S
C3     C33     1.394   .     A
C3     C12     1.407   .     S
C3     C34     1.401   .     A
C4     C32     1.395   .     A
C5     N58     1.370   .     A
C5     H37     1.082   .     S
C5     C77     1.426   .     S
C6     H38     1.082   .     S
C6     N57     1.370   .     A
C6     C148    1.426   1_455 S
C7     H39     1.082   .     S
C7     N57     1.370   .     A
C7     C145    1.426   1_455 S
C8     H40     1.082   .     S
C8     N58     1.370   .     A
C8     C76     1.426   .     S
C9     O64     1.301   .     A
C9     C11     1.454   .     S
C9     O66     1.302   .     A
C10    O67     1.301   .     A
C10    O65     1.305   .     A
C10    C13     1.460   .     S
C11    C18     1.385   .     A
C11    C16     1.395   .     A
C12    O61     1.289   .     A
C12    O63     1.291   .     A
C13    C17     1.400   .     A
C13    C19     1.396   .     A
C14    C22     1.397   .     A
C14    C16     1.399   .     A
C14    H50     1.078   .     S
C15    H51     1.077   .     S
C15    C24     1.404   .     A
C15    C17     1.395   .     A
C16    H49     1.078   .     S
C17    H48     1.083   .     S
C18    H46     1.083   .     S
C18    C20     1.393   .     A
C19    C21     1.389   .     A
C19    H35     1.079   .     S
C20    C22     1.408   .     A
C20    C25     1.393   .     A
C21    C26     1.409   .     A
C21    C24     1.416   .     A
C22    C660    1.406   .     S
C23    H52     1.080   .     S
C23    C30     1.401   .     A
C23    C26     1.414   .     A
C24    C661    1.402   1_554 S
C25    C29     1.401   .     A
C25    C656    1.404   .     S
C26    C655    1.404   1_554 S
C27    O68     1.409   .     S
C27    H41     1.112   .     S
C27    H42     1.114   .     S
C27    H43     1.109   .     S
C28    O60     1.419   .     S
C28    H45     1.115   .     S
C28    H44     1.112   .     S
C28    H117    1.108   .     S
C29    C31     1.388   .     A
C29    H53     1.082   .     S
C30    O68     1.383   .     S
C30    C652    1.406   1_554 S
C31    O60     1.376   .     S
C31    C654    1.402   .     S
C32    H54     1.084   .     S
C32    C244    1.374   .     S
C33    H36     1.085   .     S
C33    C422    1.374   1_545 S
C34    I55     2.129   .     S
C34    C452    1.374   1_545 S
H47    C168    1.108   1_455 S
N57    Zn69    2.035   .     S
N58    Zn70    2.035   .     S
O59    Zn69    1.984   .     S
O61    Zn70    1.984   .     S
O62    Zn70    1.983   .     S
O63    Zn69    1.983   .     S
O64    Zn69    1.960   .     S
O65    Zn70    1.960   .     S
O66    Zn70    1.925   .     S
O67    Zn69    1.925   .     S
C71    C74     1.408   .     S
C71    O132    1.291   .     A
C71    O129    1.290   .     A
C72    C74     1.400   .     A
C72    I126    2.128   .     S
C72    C313    1.374   .     S
C73    C103    1.394   .     A
C73    C82     1.407   .     S
C73    C104    1.401   .     A
C74    C102    1.395   .     A
C75    N128    1.370   .     A
C75    H107    1.082   .     S
C75    C147    1.426   .     S
C76    H108    1.082   .     S
C76    N127    1.370   .     A
C77    H109    1.082   .     S
C77    N127    1.370   .     A
C78    H110    1.082   .     S
C78    N128    1.370   .     A
C78    C146    1.426   .     S
C79    O134    1.301   .     A
C79    C81     1.454   .     S
C79    O136    1.302   .     A
C80    O137    1.301   .     A
C80    O135    1.305   .     A
C80    C83     1.460   .     S
C81    C88     1.385   .     A
C81    C86     1.395   .     A
C82    O131    1.289   .     A
C82    O133    1.291   .     A
C83    C87     1.400   .     A
C83    C89     1.396   .     A
C84    C92     1.397   .     A
C84    C86     1.399   .     A
C84    H120    1.078   .     S
C85    H121    1.077   .     S
C85    C94     1.404   .     A
C85    C87     1.395   .     A
C86    H119    1.078   .     S
C87    H118    1.083   .     S
C88    H116    1.083   .     S
C88    C90     1.393   .     A
C89    C91     1.389   .     A
C89    H105    1.079   .     S
C90    C92     1.408   .     A
C90    C95     1.393   .     A
C91    C96     1.409   .     A
C91    C94     1.416   .     A
C92    C730    1.406   .     S
C93    H122    1.080   .     S
C93    C100    1.401   .     A
C93    C96     1.414   .     A
C94    C731    1.402   1_554 S
C95    C99     1.401   .     A
C95    C726    1.404   .     S
C96    C725    1.404   1_554 S
C97    O138    1.409   .     S
C97    H111    1.112   .     S
C97    H112    1.114   .     S
C97    H113    1.109   .     S
C98    O130    1.419   .     S
C98    H115    1.115   .     S
C98    H114    1.112   .     S
C98    H187    1.108   .     S
C99    C101    1.388   .     A
C99    H123    1.082   .     S
C100   O138    1.383   .     S
C100   C722    1.406   1_554 S
C101   O130    1.376   .     S
C101   C724    1.402   .     S
C102   H124    1.084   .     S
C102   C314    1.374   .     S
C103   H106    1.085   .     S
C103   C492    1.374   1_545 S
C104   I125    2.129   .     S
C104   C522    1.374   1_545 S
N127   Zn139   2.035   .     S
N128   Zn140   2.035   .     S
O129   Zn139   1.984   .     S
O131   Zn140   1.984   .     S
O132   Zn140   1.983   .     S
O133   Zn139   1.983   .     S
O134   Zn139   1.960   .     S
O135   Zn140   1.960   .     S
O136   Zn140   1.925   .     S
O137   Zn139   1.925   .     S
C141   C144    1.408   .     S
C141   O202    1.291   .     A
C141   O199    1.290   .     A
C142   C144    1.400   .     A
C142   I196    2.128   .     S
C142   C383    1.374   .     S
C143   C173    1.394   .     A
C143   C152    1.407   .     S
C143   C174    1.401   .     A
C144   C172    1.395   .     A
C145   N198    1.370   .     A
C145   H177    1.082   .     S
C145   C7      1.426   1_655 S
C146   H178    1.082   .     S
C146   N197    1.370   .     A
C147   H179    1.082   .     S
C147   N197    1.370   .     A
C148   H180    1.082   .     S
C148   N198    1.370   .     A
C148   C6      1.426   1_655 S
C149   O204    1.301   .     A
C149   C151    1.454   .     S
C149   O206    1.302   .     A
C150   O207    1.301   .     A
C150   O205    1.305   .     A
C150   C153    1.460   .     S
C151   C158    1.385   .     A
C151   C156    1.395   .     A
C152   O201    1.289   .     A
C152   O203    1.291   .     A
C153   C157    1.400   .     A
C153   C159    1.396   .     A
C154   C162    1.397   .     A
C154   C156    1.399   .     A
C154   H190    1.078   .     S
C155   H191    1.077   .     S
C155   C164    1.404   .     A
C155   C157    1.395   .     A
C156   H189    1.078   .     S
C157   H188    1.083   .     S
C158   H186    1.083   .     S
C158   C160    1.393   .     A
C159   C161    1.389   .     A
C159   H175    1.079   .     S
C160   C162    1.408   .     A
C160   C165    1.393   .     A
C161   C166    1.409   .     A
C161   C164    1.416   .     A
C162   C800    1.406   .     S
C163   H192    1.080   .     S
C163   C170    1.401   .     A
C163   C166    1.414   .     A
C164   C801    1.402   1_554 S
C165   C169    1.401   .     A
C165   C796    1.404   .     S
C166   C795    1.404   1_554 S
C167   O208    1.409   .     S
C167   H181    1.112   .     S
C167   H182    1.114   .     S
C167   H183    1.109   .     S
C168   O200    1.419   .     S
C168   H185    1.115   .     S
C168   H184    1.112   .     S
C168   H47     1.108   1_655 S
C169   C171    1.388   .     A
C169   H193    1.082   .     S
C170   O208    1.383   .     S
C170   C792    1.406   1_554 S
C171   O200    1.376   .     S
C171   C794    1.402   .     S
C172   H194    1.084   .     S
C172   C384    1.374   .     S
C173   H176    1.085   .     S
C173   C562    1.374   1_545 S
C174   I195    2.129   .     S
C174   C592    1.374   1_545 S
N197   Zn209   2.035   .     S
N198   Zn210   2.035   .     S
O199   Zn209   1.984   .     S
O201   Zn210   1.984   .     S
O202   Zn210   1.983   .     S
O203   Zn209   1.983   .     S
O204   Zn209   1.960   .     S
O205   Zn210   1.960   .     S
O206   Zn210   1.925   .     S
O207   Zn209   1.925   .     S
C211   C214    1.408   .     S
C211   O272    1.291   .     A
C211   O269    1.290   .     A
C212   C214    1.400   .     A
C212   I266    2.128   .     S
C212   C453    1.374   .     S
C213   C243    1.394   .     A
C213   C222    1.407   .     S
C213   C244    1.401   .     A
C214   C242    1.395   .     A
C215   N268    1.370   .     A
C215   H247    1.082   .     S
C215   C287    1.426   .     S
C216   H248    1.082   .     S
C216   N267    1.370   .     A
C216   C358    1.426   1_455 S
C217   H249    1.082   .     S
C217   N267    1.370   .     A
C217   C355    1.426   1_455 S
C218   H250    1.082   .     S
C218   N268    1.370   .     A
C218   C286    1.426   .     S
C219   O274    1.301   .     A
C219   C221    1.454   .     S
C219   O276    1.302   .     A
C220   O277    1.301   .     A
C220   O275    1.305   .     A
C220   C223    1.460   .     S
C221   C228    1.385   .     A
C221   C226    1.395   .     A
C222   O271    1.289   .     A
C222   O273    1.291   .     A
C223   C227    1.400   .     A
C223   C229    1.396   .     A
C224   C232    1.397   .     A
C224   C226    1.399   .     A
C224   H260    1.078   .     S
C225   H261    1.077   .     S
C225   C234    1.404   .     A
C225   C227    1.395   .     A
C226   H259    1.078   .     S
C227   H258    1.083   .     S
C228   H256    1.083   .     S
C228   C230    1.393   .     A
C229   C231    1.389   .     A
C229   H245    1.079   .     S
C230   C232    1.408   .     A
C230   C235    1.393   .     A
C231   C236    1.409   .     A
C231   C234    1.416   .     A
C232   C870    1.406   .     S
C233   H262    1.080   .     S
C233   C240    1.401   .     A
C233   C236    1.414   .     A
C234   C871    1.402   1_554 S
C235   C239    1.401   .     A
C235   C866    1.404   .     S
C236   C865    1.404   1_554 S
C237   O278    1.409   .     S
C237   H251    1.112   .     S
C237   H252    1.114   .     S
C237   H253    1.109   .     S
C238   O270    1.419   .     S
C238   H255    1.115   .     S
C238   H254    1.112   .     S
C238   H327    1.108   .     S
C239   C241    1.388   .     A
C239   H263    1.082   .     S
C240   O278    1.383   .     S
C240   C862    1.406   1_554 S
C241   O270    1.376   .     S
C241   C864    1.402   .     S
C242   H264    1.084   .     S
C242   C454    1.374   .     S
C243   H246    1.085   .     S
C244   I265    2.129   .     S
H257   C378    1.108   1_455 S
N267   Zn279   2.035   .     S
N268   Zn280   2.035   .     S
O269   Zn279   1.984   .     S
O271   Zn280   1.984   .     S
O272   Zn280   1.983   .     S
O273   Zn279   1.983   .     S
O274   Zn279   1.960   .     S
O275   Zn280   1.960   .     S
O276   Zn280   1.925   .     S
O277   Zn279   1.925   .     S
C281   C284    1.408   .     S
C281   O342    1.291   .     A
C281   O339    1.290   .     A
C282   C284    1.400   .     A
C282   I336    2.128   .     S
C282   C523    1.374   .     S
C283   C313    1.394   .     A
C283   C292    1.407   .     S
C283   C314    1.401   .     A
C284   C312    1.395   .     A
C285   N338    1.370   .     A
C285   H317    1.082   .     S
C285   C357    1.426   .     S
C286   H318    1.082   .     S
C286   N337    1.370   .     A
C287   H319    1.082   .     S
C287   N337    1.370   .     A
C288   H320    1.082   .     S
C288   N338    1.370   .     A
C288   C356    1.426   .     S
C289   O344    1.301   .     A
C289   C291    1.454   .     S
C289   O346    1.302   .     A
C290   O347    1.301   .     A
C290   O345    1.305   .     A
C290   C293    1.460   .     S
C291   C298    1.385   .     A
C291   C296    1.395   .     A
C292   O341    1.289   .     A
C292   O343    1.291   .     A
C293   C297    1.400   .     A
C293   C299    1.396   .     A
C294   C302    1.397   .     A
C294   C296    1.399   .     A
C294   H330    1.078   .     S
C295   H331    1.077   .     S
C295   C304    1.404   .     A
C295   C297    1.395   .     A
C296   H329    1.078   .     S
C297   H328    1.083   .     S
C298   H326    1.083   .     S
C298   C300    1.393   .     A
C299   C301    1.389   .     A
C299   H315    1.079   .     S
C300   C302    1.408   .     A
C300   C305    1.393   .     A
C301   C306    1.409   .     A
C301   C304    1.416   .     A
C302   C940    1.406   .     S
C303   H332    1.080   .     S
C303   C310    1.401   .     A
C303   C306    1.414   .     A
C304   C941    1.402   1_554 S
C305   C309    1.401   .     A
C305   C936    1.404   .     S
C306   C935    1.404   1_554 S
C307   O348    1.409   .     S
C307   H321    1.112   .     S
C307   H322    1.114   .     S
C307   H323    1.109   .     S
C308   O340    1.419   .     S
C308   H325    1.115   .     S
C308   H324    1.112   .     S
C308   H397    1.108   .     S
C309   C311    1.388   .     A
C309   H333    1.082   .     S
C310   O348    1.383   .     S
C310   C932    1.406   1_554 S
C311   O340    1.376   .     S
C311   C934    1.402   .     S
C312   H334    1.084   .     S
C312   C524    1.374   .     S
C313   H316    1.085   .     S
C314   I335    2.129   .     S
N337   Zn349   2.035   .     S
N338   Zn350   2.035   .     S
O339   Zn349   1.984   .     S
O341   Zn350   1.984   .     S
O342   Zn350   1.983   .     S
O343   Zn349   1.983   .     S
O344   Zn349   1.960   .     S
O345   Zn350   1.960   .     S
O346   Zn350   1.925   .     S
O347   Zn349   1.925   .     S
C351   C354    1.408   .     S
C351   O412    1.291   .     A
C351   O409    1.290   .     A
C352   C354    1.400   .     A
C352   I406    2.128   .     S
C352   C593    1.374   .     S
C353   C383    1.394   .     A
C353   C362    1.407   .     S
C353   C384    1.401   .     A
C354   C382    1.395   .     A
C355   N408    1.370   .     A
C355   H387    1.082   .     S
C355   C217    1.426   1_655 S
C356   H388    1.082   .     S
C356   N407    1.370   .     A
C357   H389    1.082   .     S
C357   N407    1.370   .     A
C358   H390    1.082   .     S
C358   N408    1.370   .     A
C358   C216    1.426   1_655 S
C359   O414    1.301   .     A
C359   C361    1.454   .     S
C359   O416    1.302   .     A
C360   O417    1.301   .     A
C360   O415    1.305   .     A
C360   C363    1.460   .     S
C361   C368    1.385   .     A
C361   C366    1.395   .     A
C362   O411    1.289   .     A
C362   O413    1.291   .     A
C363   C367    1.400   .     A
C363   C369    1.396   .     A
C364   C372    1.397   .     A
C364   C366    1.399   .     A
C364   H400    1.078   .     S
C365   H401    1.077   .     S
C365   C374    1.404   .     A
C365   C367    1.395   .     A
C366   H399    1.078   .     S
C367   H398    1.083   .     S
C368   H396    1.083   .     S
C368   C370    1.393   .     A
C369   C371    1.389   .     A
C369   H385    1.079   .     S
C370   C372    1.408   .     A
C370   C375    1.393   .     A
C371   C376    1.409   .     A
C371   C374    1.416   .     A
C372   C1010   1.406   .     S
C373   H402    1.080   .     S
C373   C380    1.401   .     A
C373   C376    1.414   .     A
C374   C1011   1.402   1_554 S
C375   C379    1.401   .     A
C375   C1006   1.404   .     S
C376   C1005   1.404   1_554 S
C377   O418    1.409   .     S
C377   H391    1.112   .     S
C377   H392    1.114   .     S
C377   H393    1.109   .     S
C378   O410    1.419   .     S
C378   H395    1.115   .     S
C378   H394    1.112   .     S
C378   H257    1.108   1_655 S
C379   C381    1.388   .     A
C379   H403    1.082   .     S
C380   O418    1.383   .     S
C380   C1002   1.406   1_554 S
C381   O410    1.376   .     S
C381   C1004   1.402   .     S
C382   H404    1.084   .     S
C382   C594    1.374   .     S
C383   H386    1.085   .     S
C384   I405    2.129   .     S
N407   Zn419   2.035   .     S
N408   Zn420   2.035   .     S
O409   Zn419   1.984   .     S
O411   Zn420   1.984   .     S
O412   Zn420   1.983   .     S
O413   Zn419   1.983   .     S
O414   Zn419   1.960   .     S
O415   Zn420   1.960   .     S
O416   Zn420   1.925   .     S
O417   Zn419   1.925   .     S
C421   C424    1.408   .     S
C421   O482    1.291   .     A
C421   O479    1.290   .     A
C422   C424    1.400   .     A
C422   I476    2.128   .     S
C422   C33     1.374   1_565 S
C423   C453    1.394   .     A
C423   C432    1.407   .     S
C423   C454    1.401   .     A
C424   C452    1.395   .     A
C425   N478    1.370   .     A
C425   H457    1.082   .     S
C425   C497    1.426   .     S
C426   H458    1.082   .     S
C426   N477    1.370   .     A
C426   C568    1.426   1_455 S
C427   H459    1.082   .     S
C427   N477    1.370   .     A
C427   C565    1.426   1_455 S
C428   H460    1.082   .     S
C428   N478    1.370   .     A
C428   C496    1.426   .     S
C429   O484    1.301   .     A
C429   C431    1.454   .     S
C429   O486    1.302   .     A
C430   O487    1.301   .     A
C430   O485    1.305   .     A
C430   C433    1.460   .     S
C431   C438    1.385   .     A
C431   C436    1.395   .     A
C432   O481    1.289   .     A
C432   O483    1.291   .     A
C433   C437    1.400   .     A
C433   C439    1.396   .     A
C434   C442    1.397   .     A
C434   C436    1.399   .     A
C434   H470    1.078   .     S
C435   H471    1.077   .     S
C435   C444    1.404   .     A
C435   C437    1.395   .     A
C436   H469    1.078   .     S
C437   H468    1.083   .     S
C438   H466    1.083   .     S
C438   C440    1.393   .     A
C439   C441    1.389   .     A
C439   H455    1.079   .     S
C440   C442    1.408   .     A
C440   C445    1.393   .     A
C441   C446    1.409   .     A
C441   C444    1.416   .     A
C442   C1080   1.406   .     S
C443   H472    1.080   .     S
C443   C450    1.401   .     A
C443   C446    1.414   .     A
C444   C1081   1.402   1_554 S
C445   C449    1.401   .     A
C445   C1076   1.404   .     S
C446   C1075   1.404   1_554 S
C447   O488    1.409   .     S
C447   H461    1.112   .     S
C447   H462    1.114   .     S
C447   H463    1.109   .     S
C448   O480    1.419   .     S
C448   H465    1.115   .     S
C448   H464    1.112   .     S
C448   H537    1.108   .     S
C449   C451    1.388   .     A
C449   H473    1.082   .     S
C450   O488    1.383   .     S
C450   C1072   1.406   1_554 S
C451   O480    1.376   .     S
C451   C1074   1.402   .     S
C452   H474    1.084   .     S
C452   C34     1.374   1_565 S
C453   H456    1.085   .     S
C454   I475    2.129   .     S
H467   C588    1.108   1_455 S
N477   Zn489   2.035   .     S
N478   Zn490   2.035   .     S
O479   Zn489   1.984   .     S
O481   Zn490   1.984   .     S
O482   Zn490   1.983   .     S
O483   Zn489   1.983   .     S
O484   Zn489   1.960   .     S
O485   Zn490   1.960   .     S
O486   Zn490   1.925   .     S
O487   Zn489   1.925   .     S
C491   C494    1.408   .     S
C491   O552    1.291   .     A
C491   O549    1.290   .     A
C492   C494    1.400   .     A
C492   I546    2.128   .     S
C492   C103    1.374   1_565 S
C493   C523    1.394   .     A
C493   C502    1.407   .     S
C493   C524    1.401   .     A
C494   C522    1.395   .     A
C495   N548    1.370   .     A
C495   H527    1.082   .     S
C495   C567    1.426   .     S
C496   H528    1.082   .     S
C496   N547    1.370   .     A
C497   H529    1.082   .     S
C497   N547    1.370   .     A
C498   H530    1.082   .     S
C498   N548    1.370   .     A
C498   C566    1.426   .     S
C499   O554    1.301   .     A
C499   C501    1.454   .     S
C499   O556    1.302   .     A
C500   O557    1.301   .     A
C500   O555    1.305   .     A
C500   C503    1.460   .     S
C501   C508    1.385   .     A
C501   C506    1.395   .     A
C502   O551    1.289   .     A
C502   O553    1.291   .     A
C503   C507    1.400   .     A
C503   C509    1.396   .     A
C504   C512    1.397   .     A
C504   C506    1.399   .     A
C504   H540    1.078   .     S
C505   H541    1.077   .     S
C505   C514    1.404   .     A
C505   C507    1.395   .     A
C506   H539    1.078   .     S
C507   H538    1.083   .     S
C508   H536    1.083   .     S
C508   C510    1.393   .     A
C509   C511    1.389   .     A
C509   H525    1.079   .     S
C510   C512    1.408   .     A
C510   C515    1.393   .     A
C511   C516    1.409   .     A
C511   C514    1.416   .     A
C512   C1150   1.406   .     S
C513   H542    1.080   .     S
C513   C520    1.401   .     A
C513   C516    1.414   .     A
C514   C1151   1.402   1_554 S
C515   C519    1.401   .     A
C515   C1146   1.404   .     S
C516   C1145   1.404   1_554 S
C517   O558    1.409   .     S
C517   H531    1.112   .     S
C517   H532    1.114   .     S
C517   H533    1.109   .     S
C518   O550    1.419   .     S
C518   H535    1.115   .     S
C518   H534    1.112   .     S
C518   H607    1.108   .     S
C519   C521    1.388   .     A
C519   H543    1.082   .     S
C520   O558    1.383   .     S
C520   C1142   1.406   1_554 S
C521   O550    1.376   .     S
C521   C1144   1.402   .     S
C522   H544    1.084   .     S
C522   C104    1.374   1_565 S
C523   H526    1.085   .     S
C524   I545    2.129   .     S
N547   Zn559   2.035   .     S
N548   Zn560   2.035   .     S
O549   Zn559   1.984   .     S
O551   Zn560   1.984   .     S
O552   Zn560   1.983   .     S
O553   Zn559   1.983   .     S
O554   Zn559   1.960   .     S
O555   Zn560   1.960   .     S
O556   Zn560   1.925   .     S
O557   Zn559   1.925   .     S
C561   C564    1.408   .     S
C561   O622    1.291   .     A
C561   O619    1.290   .     A
C562   C564    1.400   .     A
C562   I616    2.128   .     S
C562   C173    1.374   1_565 S
C563   C593    1.394   .     A
C563   C572    1.407   .     S
C563   C594    1.401   .     A
C564   C592    1.395   .     A
C565   N618    1.370   .     A
C565   H597    1.082   .     S
C565   C427    1.426   1_655 S
C566   H598    1.082   .     S
C566   N617    1.370   .     A
C567   H599    1.082   .     S
C567   N617    1.370   .     A
C568   H600    1.082   .     S
C568   N618    1.370   .     A
C568   C426    1.426   1_655 S
C569   O624    1.301   .     A
C569   C571    1.454   .     S
C569   O626    1.302   .     A
C570   O627    1.301   .     A
C570   O625    1.305   .     A
C570   C573    1.460   .     S
C571   C578    1.385   .     A
C571   C576    1.395   .     A
C572   O621    1.289   .     A
C572   O623    1.291   .     A
C573   C577    1.400   .     A
C573   C579    1.396   .     A
C574   C582    1.397   .     A
C574   C576    1.399   .     A
C574   H610    1.078   .     S
C575   H611    1.077   .     S
C575   C584    1.404   .     A
C575   C577    1.395   .     A
C576   H609    1.078   .     S
C577   H608    1.083   .     S
C578   H606    1.083   .     S
C578   C580    1.393   .     A
C579   C581    1.389   .     A
C579   H595    1.079   .     S
C580   C582    1.408   .     A
C580   C585    1.393   .     A
C581   C586    1.409   .     A
C581   C584    1.416   .     A
C582   C1220   1.406   .     S
C583   H612    1.080   .     S
C583   C590    1.401   .     A
C583   C586    1.414   .     A
C584   C1221   1.402   1_554 S
C585   C589    1.401   .     A
C585   C1216   1.404   .     S
C586   C1215   1.404   1_554 S
C587   O628    1.409   .     S
C587   H601    1.112   .     S
C587   H602    1.114   .     S
C587   H603    1.109   .     S
C588   O620    1.419   .     S
C588   H605    1.115   .     S
C588   H604    1.112   .     S
C588   H467    1.108   1_655 S
C589   C591    1.388   .     A
C589   H613    1.082   .     S
C590   O628    1.383   .     S
C590   C1212   1.406   1_554 S
C591   O620    1.376   .     S
C591   C1214   1.402   .     S
C592   H614    1.084   .     S
C592   C174    1.374   1_565 S
C593   H596    1.085   .     S
C594   I615    2.129   .     S
N617   Zn629   2.035   .     S
N618   Zn630   2.035   .     S
O619   Zn629   1.984   .     S
O621   Zn630   1.984   .     S
O622   Zn630   1.983   .     S
O623   Zn629   1.983   .     S
O624   Zn629   1.960   .     S
O625   Zn630   1.960   .     S
O626   Zn630   1.925   .     S
O627   Zn629   1.925   .     S
C631   C634    1.408   .     S
C631   O692    1.291   .     A
C631   O689    1.290   .     A
C632   C634    1.400   .     A
C632   I686    2.128   .     S
C632   C873    1.374   .     S
C633   C663    1.394   .     A
C633   C642    1.407   .     S
C633   C664    1.401   .     A
C634   C662    1.395   .     A
C635   N688    1.370   .     A
C635   H667    1.082   .     S
C635   C707    1.426   .     S
C636   H668    1.082   .     S
C636   N687    1.370   .     A
C636   C778    1.426   1_455 S
C637   H669    1.082   .     S
C637   N687    1.370   .     A
C637   C775    1.426   1_455 S
C638   H670    1.082   .     S
C638   N688    1.370   .     A
C638   C706    1.426   .     S
C639   O694    1.301   .     A
C639   C641    1.454   .     S
C639   O696    1.302   .     A
C640   O697    1.301   .     A
C640   O695    1.305   .     A
C640   C643    1.460   .     S
C641   C648    1.385   .     A
C641   C646    1.395   .     A
C642   O691    1.289   .     A
C642   O693    1.291   .     A
C643   C647    1.400   .     A
C643   C649    1.396   .     A
C644   C652    1.397   .     A
C644   C646    1.399   .     A
C644   H680    1.078   .     S
C645   H681    1.077   .     S
C645   C654    1.404   .     A
C645   C647    1.395   .     A
C646   H679    1.078   .     S
C647   H678    1.083   .     S
C648   H676    1.083   .     S
C648   C650    1.393   .     A
C649   C651    1.389   .     A
C649   H665    1.079   .     S
C650   C652    1.408   .     A
C650   C655    1.393   .     A
C651   C656    1.409   .     A
C651   C654    1.416   .     A
C652   C30     1.406   1_556 S
C653   H682    1.080   .     S
C653   C660    1.401   .     A
C653   C656    1.414   .     A
C655   C659    1.401   .     A
C655   C26     1.404   1_556 S
C657   O698    1.409   .     S
C657   H671    1.112   .     S
C657   H672    1.114   .     S
C657   H673    1.109   .     S
C658   O690    1.419   .     S
C658   H675    1.115   .     S
C658   H674    1.112   .     S
C658   H747    1.108   .     S
C659   C661    1.388   .     A
C659   H683    1.082   .     S
C660   O698    1.383   .     S
C661   O690    1.376   .     S
C661   C24     1.402   1_556 S
C662   H684    1.084   .     S
C662   C874    1.374   .     S
C663   H666    1.085   .     S
C663   C1052   1.374   1_545 S
C664   I685    2.129   .     S
C664   C1082   1.374   1_545 S
H677   C798    1.108   1_455 S
N687   Zn699   2.035   .     S
N688   Zn700   2.035   .     S
O689   Zn699   1.984   .     S
O691   Zn700   1.984   .     S
O692   Zn700   1.983   .     S
O693   Zn699   1.983   .     S
O694   Zn699   1.960   .     S
O695   Zn700   1.960   .     S
O696   Zn700   1.925   .     S
O697   Zn699   1.925   .     S
C701   C704    1.408   .     S
C701   O762    1.291   .     A
C701   O759    1.290   .     A
C702   C704    1.400   .     A
C702   I756    2.128   .     S
C702   C943    1.374   .     S
C703   C733    1.394   .     A
C703   C712    1.407   .     S
C703   C734    1.401   .     A
C704   C732    1.395   .     A
C705   N758    1.370   .     A
C705   H737    1.082   .     S
C705   C777    1.426   .     S
C706   H738    1.082   .     S
C706   N757    1.370   .     A
C707   H739    1.082   .     S
C707   N757    1.370   .     A
C708   H740    1.082   .     S
C708   N758    1.370   .     A
C708   C776    1.426   .     S
C709   O764    1.301   .     A
C709   C711    1.454   .     S
C709   O766    1.302   .     A
C710   O767    1.301   .     A
C710   O765    1.305   .     A
C710   C713    1.460   .     S
C711   C718    1.385   .     A
C711   C716    1.395   .     A
C712   O761    1.289   .     A
C712   O763    1.291   .     A
C713   C717    1.400   .     A
C713   C719    1.396   .     A
C714   C722    1.397   .     A
C714   C716    1.399   .     A
C714   H750    1.078   .     S
C715   H751    1.077   .     S
C715   C724    1.404   .     A
C715   C717    1.395   .     A
C716   H749    1.078   .     S
C717   H748    1.083   .     S
C718   H746    1.083   .     S
C718   C720    1.393   .     A
C719   C721    1.389   .     A
C719   H735    1.079   .     S
C720   C722    1.408   .     A
C720   C725    1.393   .     A
C721   C726    1.409   .     A
C721   C724    1.416   .     A
C722   C100    1.406   1_556 S
C723   H752    1.080   .     S
C723   C730    1.401   .     A
C723   C726    1.414   .     A
C725   C729    1.401   .     A
C725   C96     1.404   1_556 S
C727   O768    1.409   .     S
C727   H741    1.112   .     S
C727   H742    1.114   .     S
C727   H743    1.109   .     S
C728   O760    1.419   .     S
C728   H745    1.115   .     S
C728   H744    1.112   .     S
C728   H817    1.108   .     S
C729   C731    1.388   .     A
C729   H753    1.082   .     S
C730   O768    1.383   .     S
C731   O760    1.376   .     S
C731   C94     1.402   1_556 S
C732   H754    1.084   .     S
C732   C944    1.374   .     S
C733   H736    1.085   .     S
C733   C1122   1.374   1_545 S
C734   I755    2.129   .     S
C734   C1152   1.374   1_545 S
N757   Zn769   2.035   .     S
N758   Zn770   2.035   .     S
O759   Zn769   1.984   .     S
O761   Zn770   1.984   .     S
O762   Zn770   1.983   .     S
O763   Zn769   1.983   .     S
O764   Zn769   1.960   .     S
O765   Zn770   1.960   .     S
O766   Zn770   1.925   .     S
O767   Zn769   1.925   .     S
C771   C774    1.408   .     S
C771   O832    1.291   .     A
C771   O829    1.290   .     A
C772   C774    1.400   .     A
C772   I826    2.128   .     S
C772   C1013   1.374   .     S
C773   C803    1.394   .     A
C773   C782    1.407   .     S
C773   C804    1.401   .     A
C774   C802    1.395   .     A
C775   N828    1.370   .     A
C775   H807    1.082   .     S
C775   C637    1.426   1_655 S
C776   H808    1.082   .     S
C776   N827    1.370   .     A
C777   H809    1.082   .     S
C777   N827    1.370   .     A
C778   H810    1.082   .     S
C778   N828    1.370   .     A
C778   C636    1.426   1_655 S
C779   O834    1.301   .     A
C779   C781    1.454   .     S
C779   O836    1.302   .     A
C780   O837    1.301   .     A
C780   O835    1.305   .     A
C780   C783    1.460   .     S
C781   C788    1.385   .     A
C781   C786    1.395   .     A
C782   O831    1.289   .     A
C782   O833    1.291   .     A
C783   C787    1.400   .     A
C783   C789    1.396   .     A
C784   C792    1.397   .     A
C784   C786    1.399   .     A
C784   H820    1.078   .     S
C785   H821    1.077   .     S
C785   C794    1.404   .     A
C785   C787    1.395   .     A
C786   H819    1.078   .     S
C787   H818    1.083   .     S
C788   H816    1.083   .     S
C788   C790    1.393   .     A
C789   C791    1.389   .     A
C789   H805    1.079   .     S
C790   C792    1.408   .     A
C790   C795    1.393   .     A
C791   C796    1.409   .     A
C791   C794    1.416   .     A
C792   C170    1.406   1_556 S
C793   H822    1.080   .     S
C793   C800    1.401   .     A
C793   C796    1.414   .     A
C795   C799    1.401   .     A
C795   C166    1.404   1_556 S
C797   O838    1.409   .     S
C797   H811    1.112   .     S
C797   H812    1.114   .     S
C797   H813    1.109   .     S
C798   O830    1.419   .     S
C798   H815    1.115   .     S
C798   H814    1.112   .     S
C798   H677    1.108   1_655 S
C799   C801    1.388   .     A
C799   H823    1.082   .     S
C800   O838    1.383   .     S
C801   O830    1.376   .     S
C801   C164    1.402   1_556 S
C802   H824    1.084   .     S
C802   C1014   1.374   .     S
C803   H806    1.085   .     S
C803   C1192   1.374   1_545 S
C804   I825    2.129   .     S
C804   C1222   1.374   1_545 S
N827   Zn839   2.035   .     S
N828   Zn840   2.035   .     S
O829   Zn839   1.984   .     S
O831   Zn840   1.984   .     S
O832   Zn840   1.983   .     S
O833   Zn839   1.983   .     S
O834   Zn839   1.960   .     S
O835   Zn840   1.960   .     S
O836   Zn840   1.925   .     S
O837   Zn839   1.925   .     S
C841   C844    1.408   .     S
C841   O902    1.291   .     A
C841   O899    1.290   .     A
C842   C844    1.400   .     A
C842   I896    2.128   .     S
C842   C1083   1.374   .     S
C843   C873    1.394   .     A
C843   C852    1.407   .     S
C843   C874    1.401   .     A
C844   C872    1.395   .     A
C845   N898    1.370   .     A
C845   H877    1.082   .     S
C845   C917    1.426   .     S
C846   H878    1.082   .     S
C846   N897    1.370   .     A
C846   C988    1.426   1_455 S
C847   H879    1.082   .     S
C847   N897    1.370   .     A
C847   C985    1.426   1_455 S
C848   H880    1.082   .     S
C848   N898    1.370   .     A
C848   C916    1.426   .     S
C849   O904    1.301   .     A
C849   C851    1.454   .     S
C849   O906    1.302   .     A
C850   O907    1.301   .     A
C850   O905    1.305   .     A
C850   C853    1.460   .     S
C851   C858    1.385   .     A
C851   C856    1.395   .     A
C852   O901    1.289   .     A
C852   O903    1.291   .     A
C853   C857    1.400   .     A
C853   C859    1.396   .     A
C854   C862    1.397   .     A
C854   C856    1.399   .     A
C854   H890    1.078   .     S
C855   H891    1.077   .     S
C855   C864    1.404   .     A
C855   C857    1.395   .     A
C856   H889    1.078   .     S
C857   H888    1.083   .     S
C858   H886    1.083   .     S
C858   C860    1.393   .     A
C859   C861    1.389   .     A
C859   H875    1.079   .     S
C860   C862    1.408   .     A
C860   C865    1.393   .     A
C861   C866    1.409   .     A
C861   C864    1.416   .     A
C862   C240    1.406   1_556 S
C863   H892    1.080   .     S
C863   C870    1.401   .     A
C863   C866    1.414   .     A
C865   C869    1.401   .     A
C865   C236    1.404   1_556 S
C867   O908    1.409   .     S
C867   H881    1.112   .     S
C867   H882    1.114   .     S
C867   H883    1.109   .     S
C868   O900    1.419   .     S
C868   H885    1.115   .     S
C868   H884    1.112   .     S
C868   H957    1.108   .     S
C869   C871    1.388   .     A
C869   H893    1.082   .     S
C870   O908    1.383   .     S
C871   O900    1.376   .     S
C871   C234    1.402   1_556 S
C872   H894    1.084   .     S
C872   C1084   1.374   .     S
C873   H876    1.085   .     S
C874   I895    2.129   .     S
H887   C1008   1.108   1_455 S
N897   Zn909   2.035   .     S
N898   Zn910   2.035   .     S
O899   Zn909   1.984   .     S
O901   Zn910   1.984   .     S
O902   Zn910   1.983   .     S
O903   Zn909   1.983   .     S
O904   Zn909   1.960   .     S
O905   Zn910   1.960   .     S
O906   Zn910   1.925   .     S
O907   Zn909   1.925   .     S
C911   C914    1.408   .     S
C911   O972    1.291   .     A
C911   O969    1.290   .     A
C912   C914    1.400   .     A
C912   I966    2.128   .     S
C912   C1153   1.374   .     S
C913   C943    1.394   .     A
C913   C922    1.407   .     S
C913   C944    1.401   .     A
C914   C942    1.395   .     A
C915   N968    1.370   .     A
C915   H947    1.082   .     S
C915   C987    1.426   .     S
C916   H948    1.082   .     S
C916   N967    1.370   .     A
C917   H949    1.082   .     S
C917   N967    1.370   .     A
C918   H950    1.082   .     S
C918   N968    1.370   .     A
C918   C986    1.426   .     S
C919   O974    1.301   .     A
C919   C921    1.454   .     S
C919   O976    1.302   .     A
C920   O977    1.301   .     A
C920   O975    1.305   .     A
C920   C923    1.460   .     S
C921   C928    1.385   .     A
C921   C926    1.395   .     A
C922   O971    1.289   .     A
C922   O973    1.291   .     A
C923   C927    1.400   .     A
C923   C929    1.396   .     A
C924   C932    1.397   .     A
C924   C926    1.399   .     A
C924   H960    1.078   .     S
C925   H961    1.077   .     S
C925   C934    1.404   .     A
C925   C927    1.395   .     A
C926   H959    1.078   .     S
C927   H958    1.083   .     S
C928   H956    1.083   .     S
C928   C930    1.393   .     A
C929   C931    1.389   .     A
C929   H945    1.079   .     S
C930   C932    1.408   .     A
C930   C935    1.393   .     A
C931   C936    1.409   .     A
C931   C934    1.416   .     A
C932   C310    1.406   1_556 S
C933   H962    1.080   .     S
C933   C940    1.401   .     A
C933   C936    1.414   .     A
C935   C939    1.401   .     A
C935   C306    1.404   1_556 S
C937   O978    1.409   .     S
C937   H951    1.112   .     S
C937   H952    1.114   .     S
C937   H953    1.109   .     S
C938   O970    1.419   .     S
C938   H955    1.115   .     S
C938   H954    1.112   .     S
C938   H1027   1.108   .     S
C939   C941    1.388   .     A
C939   H963    1.082   .     S
C940   O978    1.383   .     S
C941   O970    1.376   .     S
C941   C304    1.402   1_556 S
C942   H964    1.084   .     S
C942   C1154   1.374   .     S
C943   H946    1.085   .     S
C944   I965    2.129   .     S
N967   Zn979   2.035   .     S
N968   Zn980   2.035   .     S
O969   Zn979   1.984   .     S
O971   Zn980   1.984   .     S
O972   Zn980   1.983   .     S
O973   Zn979   1.983   .     S
O974   Zn979   1.960   .     S
O975   Zn980   1.960   .     S
O976   Zn980   1.925   .     S
O977   Zn979   1.925   .     S
C981   C984    1.408   .     S
C981   O1042   1.291   .     A
C981   O1039   1.290   .     A
C982   C984    1.400   .     A
C982   I1036   2.128   .     S
C982   C1223   1.374   .     S
C983   C1013   1.394   .     A
C983   C992    1.407   .     S
C983   C1014   1.401   .     A
C984   C1012   1.395   .     A
C985   N1038   1.370   .     A
C985   H1017   1.082   .     S
C985   C847    1.426   1_655 S
C986   H1018   1.082   .     S
C986   N1037   1.370   .     A
C987   H1019   1.082   .     S
C987   N1037   1.370   .     A
C988   H1020   1.082   .     S
C988   N1038   1.370   .     A
C988   C846    1.426   1_655 S
C989   O1044   1.301   .     A
C989   C991    1.454   .     S
C989   O1046   1.302   .     A
C990   O1047   1.301   .     A
C990   O1045   1.305   .     A
C990   C993    1.460   .     S
C991   C998    1.385   .     A
C991   C996    1.395   .     A
C992   O1041   1.289   .     A
C992   O1043   1.291   .     A
C993   C997    1.400   .     A
C993   C999    1.396   .     A
C994   C1002   1.397   .     A
C994   C996    1.399   .     A
C994   H1030   1.078   .     S
C995   H1031   1.077   .     S
C995   C1004   1.404   .     A
C995   C997    1.395   .     A
C996   H1029   1.078   .     S
C997   H1028   1.083   .     S
C998   H1026   1.083   .     S
C998   C1000   1.393   .     A
C999   C1001   1.389   .     A
C999   H1015   1.079   .     S
C1000  C1002   1.408   .     A
C1000  C1005   1.393   .     A
C1001  C1006   1.409   .     A
C1001  C1004   1.416   .     A
C1002  C380    1.406   1_556 S
C1003  H1032   1.080   .     S
C1003  C1010   1.401   .     A
C1003  C1006   1.414   .     A
C1005  C1009   1.401   .     A
C1005  C376    1.404   1_556 S
C1007  O1048   1.409   .     S
C1007  H1021   1.112   .     S
C1007  H1022   1.114   .     S
C1007  H1023   1.109   .     S
C1008  O1040   1.419   .     S
C1008  H1025   1.115   .     S
C1008  H1024   1.112   .     S
C1008  H887    1.108   1_655 S
C1009  C1011   1.388   .     A
C1009  H1033   1.082   .     S
C1010  O1048   1.383   .     S
C1011  O1040   1.376   .     S
C1011  C374    1.402   1_556 S
C1012  H1034   1.084   .     S
C1012  C1224   1.374   .     S
C1013  H1016   1.085   .     S
C1014  I1035   2.129   .     S
N1037  Zn1049  2.035   .     S
N1038  Zn1050  2.035   .     S
O1039  Zn1049  1.984   .     S
O1041  Zn1050  1.984   .     S
O1042  Zn1050  1.983   .     S
O1043  Zn1049  1.983   .     S
O1044  Zn1049  1.960   .     S
O1045  Zn1050  1.960   .     S
O1046  Zn1050  1.925   .     S
O1047  Zn1049  1.925   .     S
C1051  C1054   1.408   .     S
C1051  O1112   1.291   .     A
C1051  O1109   1.290   .     A
C1052  C1054   1.400   .     A
C1052  I1106   2.128   .     S
C1052  C663    1.374   1_565 S
C1053  C1083   1.394   .     A
C1053  C1062   1.407   .     S
C1053  C1084   1.401   .     A
C1054  C1082   1.395   .     A
C1055  N1108   1.370   .     A
C1055  H1087   1.082   .     S
C1055  C1127   1.426   .     S
C1056  H1088   1.082   .     S
C1056  N1107   1.370   .     A
C1056  C1198   1.426   1_455 S
C1057  H1089   1.082   .     S
C1057  N1107   1.370   .     A
C1057  C1195   1.426   1_455 S
C1058  H1090   1.082   .     S
C1058  N1108   1.370   .     A
C1058  C1126   1.426   .     S
C1059  O1114   1.301   .     A
C1059  C1061   1.454   .     S
C1059  O1116   1.302   .     A
C1060  O1117   1.301   .     A
C1060  O1115   1.305   .     A
C1060  C1063   1.460   .     S
C1061  C1068   1.385   .     A
C1061  C1066   1.395   .     A
C1062  O1111   1.289   .     A
C1062  O1113   1.291   .     A
C1063  C1067   1.400   .     A
C1063  C1069   1.396   .     A
C1064  C1072   1.397   .     A
C1064  C1066   1.399   .     A
C1064  H1100   1.078   .     S
C1065  H1101   1.077   .     S
C1065  C1074   1.404   .     A
C1065  C1067   1.395   .     A
C1066  H1099   1.078   .     S
C1067  H1098   1.083   .     S
C1068  H1096   1.083   .     S
C1068  C1070   1.393   .     A
C1069  C1071   1.389   .     A
C1069  H1085   1.079   .     S
C1070  C1072   1.408   .     A
C1070  C1075   1.393   .     A
C1071  C1076   1.409   .     A
C1071  C1074   1.416   .     A
C1072  C450    1.406   1_556 S
C1073  H1102   1.080   .     S
C1073  C1080   1.401   .     A
C1073  C1076   1.414   .     A
C1075  C1079   1.401   .     A
C1075  C446    1.404   1_556 S
C1077  O1118   1.409   .     S
C1077  H1091   1.112   .     S
C1077  H1092   1.114   .     S
C1077  H1093   1.109   .     S
C1078  O1110   1.419   .     S
C1078  H1095   1.115   .     S
C1078  H1094   1.112   .     S
C1078  H1167   1.108   .     S
C1079  C1081   1.388   .     A
C1079  H1103   1.082   .     S
C1080  O1118   1.383   .     S
C1081  O1110   1.376   .     S
C1081  C444    1.402   1_556 S
C1082  H1104   1.084   .     S
C1082  C664    1.374   1_565 S
C1083  H1086   1.085   .     S
C1084  I1105   2.129   .     S
H1097  C1218   1.108   1_455 S
N1107  Zn1119  2.035   .     S
N1108  Zn1120  2.035   .     S
O1109  Zn1119  1.984   .     S
O1111  Zn1120  1.984   .     S
O1112  Zn1120  1.983   .     S
O1113  Zn1119  1.983   .     S
O1114  Zn1119  1.960   .     S
O1115  Zn1120  1.960   .     S
O1116  Zn1120  1.925   .     S
O1117  Zn1119  1.925   .     S
C1121  C1124   1.408   .     S
C1121  O1182   1.291   .     A
C1121  O1179   1.290   .     A
C1122  C1124   1.400   .     A
C1122  I1176   2.128   .     S
C1122  C733    1.374   1_565 S
C1123  C1153   1.394   .     A
C1123  C1132   1.407   .     S
C1123  C1154   1.401   .     A
C1124  C1152   1.395   .     A
C1125  N1178   1.370   .     A
C1125  H1157   1.082   .     S
C1125  C1197   1.426   .     S
C1126  H1158   1.082   .     S
C1126  N1177   1.370   .     A
C1127  H1159   1.082   .     S
C1127  N1177   1.370   .     A
C1128  H1160   1.082   .     S
C1128  N1178   1.370   .     A
C1128  C1196   1.426   .     S
C1129  O1184   1.301   .     A
C1129  C1131   1.454   .     S
C1129  O1186   1.302   .     A
C1130  O1187   1.301   .     A
C1130  O1185   1.305   .     A
C1130  C1133   1.460   .     S
C1131  C1138   1.385   .     A
C1131  C1136   1.395   .     A
C1132  O1181   1.289   .     A
C1132  O1183   1.291   .     A
C1133  C1137   1.400   .     A
C1133  C1139   1.396   .     A
C1134  C1142   1.397   .     A
C1134  C1136   1.399   .     A
C1134  H1170   1.078   .     S
C1135  H1171   1.077   .     S
C1135  C1144   1.404   .     A
C1135  C1137   1.395   .     A
C1136  H1169   1.078   .     S
C1137  H1168   1.083   .     S
C1138  H1166   1.083   .     S
C1138  C1140   1.393   .     A
C1139  C1141   1.389   .     A
C1139  H1155   1.079   .     S
C1140  C1142   1.408   .     A
C1140  C1145   1.393   .     A
C1141  C1146   1.409   .     A
C1141  C1144   1.416   .     A
C1142  C520    1.406   1_556 S
C1143  H1172   1.080   .     S
C1143  C1150   1.401   .     A
C1143  C1146   1.414   .     A
C1145  C1149   1.401   .     A
C1145  C516    1.404   1_556 S
C1147  O1188   1.409   .     S
C1147  H1161   1.112   .     S
C1147  H1162   1.114   .     S
C1147  H1163   1.109   .     S
C1148  O1180   1.419   .     S
C1148  H1165   1.115   .     S
C1148  H1164   1.112   .     S
C1148  H1237   1.108   .     S
C1149  C1151   1.388   .     A
C1149  H1173   1.082   .     S
C1150  O1188   1.383   .     S
C1151  O1180   1.376   .     S
C1151  C514    1.402   1_556 S
C1152  H1174   1.084   .     S
C1152  C734    1.374   1_565 S
C1153  H1156   1.085   .     S
C1154  I1175   2.129   .     S
N1177  Zn1189  2.035   .     S
N1178  Zn1190  2.035   .     S
O1179  Zn1189  1.984   .     S
O1181  Zn1190  1.984   .     S
O1182  Zn1190  1.983   .     S
O1183  Zn1189  1.983   .     S
O1184  Zn1189  1.960   .     S
O1185  Zn1190  1.960   .     S
O1186  Zn1190  1.925   .     S
O1187  Zn1189  1.925   .     S
C1191  C1194   1.408   .     S
C1191  O1252   1.291   .     A
C1191  O1249   1.290   .     A
C1192  C1194   1.400   .     A
C1192  I1246   2.128   .     S
C1192  C803    1.374   1_565 S
C1193  C1223   1.394   .     A
C1193  C1202   1.407   .     S
C1193  C1224   1.401   .     A
C1194  C1222   1.395   .     A
C1195  N1248   1.370   .     A
C1195  H1227   1.082   .     S
C1195  C1057   1.426   1_655 S
C1196  H1228   1.082   .     S
C1196  N1247   1.370   .     A
C1197  H1229   1.082   .     S
C1197  N1247   1.370   .     A
C1198  H1230   1.082   .     S
C1198  N1248   1.370   .     A
C1198  C1056   1.426   1_655 S
C1199  O1254   1.301   .     A
C1199  C1201   1.454   .     S
C1199  O1256   1.302   .     A
C1200  O1257   1.301   .     A
C1200  O1255   1.305   .     A
C1200  C1203   1.460   .     S
C1201  C1208   1.385   .     A
C1201  C1206   1.395   .     A
C1202  O1251   1.289   .     A
C1202  O1253   1.291   .     A
C1203  C1207   1.400   .     A
C1203  C1209   1.396   .     A
C1204  C1212   1.397   .     A
C1204  C1206   1.399   .     A
C1204  H1240   1.078   .     S
C1205  H1241   1.077   .     S
C1205  C1214   1.404   .     A
C1205  C1207   1.395   .     A
C1206  H1239   1.078   .     S
C1207  H1238   1.083   .     S
C1208  H1236   1.083   .     S
C1208  C1210   1.393   .     A
C1209  C1211   1.389   .     A
C1209  H1225   1.079   .     S
C1210  C1212   1.408   .     A
C1210  C1215   1.393   .     A
C1211  C1216   1.409   .     A
C1211  C1214   1.416   .     A
C1212  C590    1.406   1_556 S
C1213  H1242   1.080   .     S
C1213  C1220   1.401   .     A
C1213  C1216   1.414   .     A
C1215  C1219   1.401   .     A
C1215  C586    1.404   1_556 S
C1217  O1258   1.409   .     S
C1217  H1231   1.112   .     S
C1217  H1232   1.114   .     S
C1217  H1233   1.109   .     S
C1218  O1250   1.419   .     S
C1218  H1235   1.115   .     S
C1218  H1234   1.112   .     S
C1218  H1097   1.108   1_655 S
C1219  C1221   1.388   .     A
C1219  H1243   1.082   .     S
C1220  O1258   1.383   .     S
C1221  O1250   1.376   .     S
C1221  C584    1.402   1_556 S
C1222  H1244   1.084   .     S
C1222  C804    1.374   1_565 S
C1223  H1226   1.085   .     S
C1224  I1245   2.129   .     S
N1247  Zn1259  2.035   .     S
N1248  Zn1260  2.035   .     S
O1249  Zn1259  1.984   .     S
O1251  Zn1260  1.984   .     S
O1252  Zn1260  1.983   .     S
O1253  Zn1259  1.983   .     S
O1254  Zn1259  1.960   .     S
O1255  Zn1260  1.960   .     S
O1256  Zn1260  1.925   .     S
O1257  Zn1259  1.925   .     S
