data_str_m3_o10_o17_pcu_sym.40
_audit_creation_date              2020-01-03
_audit_creation_method            'Materials Studio'
_symmetry_space_group_name_H-M    'P1'
_symmetry_Int_Tables_number       1
_symmetry_cell_setting            triclinic
loop_
_symmetry_equiv_pos_as_xyz
  x,y,z
_cell_length_a                    23.7825
_cell_length_b                    26.3708
_cell_length_c                    29.7221
_cell_angle_alpha                 91.8349
_cell_angle_beta                  88.8227
_cell_angle_gamma                 91.3420
loop_
_atom_site_label
_atom_site_type_symbol
_atom_site_fract_x
_atom_site_fract_y
_atom_site_fract_z
_atom_site_U_iso_or_equiv
_atom_site_adp_type
_atom_site_occupancy
C1     C     0.18116   0.26436   0.25122   0.00000  Uiso   1.00
C2     C     0.17497   0.21823   0.40614   0.00000  Uiso   1.00
C3     C     0.15792   0.17769   0.11618   0.00000  Uiso   1.00
C4     C     0.17207   0.16985   0.38503   0.00000  Uiso   1.00
C5     C     0.17682   0.22246   0.09551   0.00000  Uiso   1.00
C6     C     0.16269   0.12624   0.41082   0.00000  Uiso   1.00
C7     C     0.17235   0.22587   0.04815   0.00000  Uiso   1.00
C8     C     0.14233   0.13380   0.45472   0.00000  Uiso   1.00
C9     C     0.14758   0.18430   0.02397   0.00000  Uiso   1.00
C10    C     0.15217   0.18109   0.47707   0.00000  Uiso   1.00
C11    C     0.12104   0.14403   0.04666   0.00000  Uiso   1.00
C12    C     0.15228   0.06906   0.25195   0.00000  Uiso   1.00
C13    C     0.17161   0.22309   0.45311   0.00000  Uiso   1.00
C14    C     0.19255   0.26837   0.02412   0.00000  Uiso   1.00
C15    C     0.11444   0.09439   0.47764   0.00000  Uiso   1.00
C16    C     0.15309   0.28852   0.14219   0.00000  Uiso   1.00
C17    C     0.17991   0.06063   0.35756   0.00000  Uiso   1.00
C18    C     0.19071   0.01843   0.04838   0.00000  Uiso   1.00
C19    C     0.20893   0.05140   0.08882   0.00000  Uiso   1.00
C20    C     0.06492   0.04045   0.43086   0.00000  Uiso   1.00
C21    C     0.06203   0.31910   0.41374   0.00000  Uiso   1.00
C22    C     0.26191   0.31694   0.44995   0.00000  Uiso   1.00
C23    C     0.18890   0.26787   0.47647   0.00000  Uiso   1.00
C24    C     0.00838   0.08253   0.04286   0.00000  Uiso   1.00
C25    C     0.28185   0.33058   0.23780   0.00000  Uiso   1.00
C26    C     0.06748   0.33045   0.29827   0.00000  Uiso   1.00
C27    C     0.31387   0.09894   0.17649   0.00000  Uiso   1.00
C28    C     0.01259   0.05332   0.15669   0.00000  Uiso   1.00
C29    C     0.01421   0.20482   0.33448   0.00000  Uiso   1.00
C30    C     0.30817   0.21923   0.37294   0.00000  Uiso   1.00
C31    C     0.09752   0.10266   0.02228   0.00000  Uiso   1.00
C32    C     0.18875   0.31842   0.25690   0.00000  Uiso   1.00
C33    C     0.14398   0.01537   0.25492   0.00000  Uiso   1.00
C34    C     0.16863   0.16746   0.33654   0.00000  Uiso   1.00
C35    C     0.16479   0.16990   0.16376   0.00000  Uiso   1.00
C36    C     0.12424   0.14283   0.09295   0.00000  Uiso   1.00
H37    H     0.10612   0.11161   0.11076   0.00000  Uiso   1.00
H38    H     0.19911   0.04023   0.01761   0.00000  Uiso   1.00
H39    H     0.24344   0.03376   0.10629   0.00000  Uiso   1.00
H40    H     0.22337   0.08959   0.07817   0.00000  Uiso   1.00
H41    H     0.17400   0.05541   0.11364   0.00000  Uiso   1.00
H42    H     0.06962   0.06557   0.40168   0.00000  Uiso   1.00
H43    H     0.02500   0.04929   0.44891   0.00000  Uiso   1.00
H44    H     0.02896   0.31448   0.38819   0.00000  Uiso   1.00
H45    H     0.05266   0.29374   0.44218   0.00000  Uiso   1.00
H46    H     0.10298   0.30828   0.39835   0.00000  Uiso   1.00
H47    H     0.27280   0.00275   0.41819   0.00000  Uiso   1.00
H48    H     0.18360   0.25115   0.38596   0.00000  Uiso   1.00
H49    H     0.28476   0.28066   0.45013   0.00000  Uiso   1.00
H50    H     0.27670   0.00855   0.47815   0.00000  Uiso   1.00
H51    H     0.32858   0.09566   0.00951   0.00000  Uiso   1.00
H52    H     0.31423   0.04971   0.05129   0.00000  Uiso   1.00
H53    H     0.00168   0.11342   0.06859   0.00000  Uiso   1.00
H54    H     0.26482   0.33121   0.20327   0.00000  Uiso   1.00
H55    H     0.30386   0.29454   0.24173   0.00000  Uiso   1.00
H56    H     0.31357   0.02812   0.24233   0.00000  Uiso   1.00
H57    H     0.05678   0.03619   0.30999   0.00000  Uiso   1.00
H58    H     0.09689   0.31320   0.32166   0.00000  Uiso   1.00
H59    H     0.12390   0.30266   0.11698   0.00000  Uiso   1.00
H60    H     0.02829   0.30731   0.29972   0.00000  Uiso   1.00
H61    H     0.30645   0.12586   0.14936   0.00000  Uiso   1.00
H62    H     0.27322   0.08521   0.19022   0.00000  Uiso   1.00
H63    H     0.04122   0.03787   0.18160   0.00000  Uiso   1.00
H64    H     0.31740   0.02226   0.14505   0.00000  Uiso   1.00
H65    H     0.03826   0.06399   0.12749   0.00000  Uiso   1.00
H66    H     0.05092   0.23143   0.33619   0.00000  Uiso   1.00
H67    H     0.02501   0.16467   0.34027   0.00000  Uiso   1.00
H68    H     0.27848   0.18735   0.37887   0.00000  Uiso   1.00
H69    H     0.33281   0.22471   0.40404   0.00000  Uiso   1.00
H70    H     0.17010   0.32149   0.16192   0.00000  Uiso   1.00
H71    H     0.28558   0.25432   0.36567   0.00000  Uiso   1.00
H72    H     0.12860   0.26477   0.16596   0.00000  Uiso   1.00
H73    H     0.13858   0.07060   0.34417   0.00000  Uiso   1.00
H74    H     0.18123   0.01867   0.35803   0.00000  Uiso   1.00
H75    H     0.21546   0.07312   0.33570   0.00000  Uiso   1.00
H76    H     0.14469   0.01044   0.05141   0.00000  Uiso   1.00
N77    N     0.31678   0.15265   0.23783   0.00000  Uiso   1.00
N78    N     0.01656   0.18068   0.26217   0.00000  Uiso   1.00
O79    O     0.12975   0.24619   0.25299   0.00000  Uiso   1.00
O80    O     0.18787   0.07976   0.40149   0.00000  Uiso   1.00
O81    O     0.22207   0.30697   0.04652   0.00000  Uiso   1.00
O82    O     0.11092   0.04559   0.45965   0.00000  Uiso   1.00
O83    O     0.20304   0.31046   0.45237   0.00000  Uiso   1.00
O84    O     0.06443   0.06635   0.04295   0.00000  Uiso   1.00
O85    O     0.24025   0.00442   0.27154   0.00000  Uiso   1.00
O86    O     0.08904   0.32993   0.25364   0.00000  Uiso   1.00
O87    O     0.01406   0.12255   0.20957   0.00000  Uiso   1.00
O88    O     0.32133   0.20915   0.29302   0.00000  Uiso   1.00
O89    O     0.20358   0.08714   0.24702   0.00000  Uiso   1.00
O90    O     0.22613   0.23721   0.24519   0.00000  Uiso   1.00
O91    O     0.10720   0.09613   0.25482   0.00000  Uiso   1.00
O92    O     0.11847   0.17117   0.31998   0.00000  Uiso   1.00
O93    O     0.21486   0.16216   0.18003   0.00000  Uiso   1.00
O94    O     0.21485   0.16219   0.31218   0.00000  Uiso   1.00
O95    O     0.11848   0.17115   0.18783   0.00000  Uiso   1.00
O96    O     0.19854   0.26232   0.12162   0.00000  Uiso   1.00
Zn97   Zn    0.10231   0.17266   0.25521   0.00000  Uiso   1.00
Zn98   Zn    0.23102   0.16067   0.24479   0.00000  Uiso   1.00
C99    C     0.51449   0.26436   0.25122   0.00000  Uiso   1.00
C100   C     0.50830   0.21823   0.40614   0.00000  Uiso   1.00
C101   C     0.49125   0.17769   0.11618   0.00000  Uiso   1.00
C102   C     0.50541   0.16985   0.38503   0.00000  Uiso   1.00
C103   C     0.51016   0.22246   0.09551   0.00000  Uiso   1.00
C104   C     0.49602   0.12624   0.41082   0.00000  Uiso   1.00
C105   C     0.50569   0.22587   0.04815   0.00000  Uiso   1.00
C106   C     0.47566   0.13380   0.45472   0.00000  Uiso   1.00
C107   C     0.48091   0.18430   0.02397   0.00000  Uiso   1.00
C108   C     0.48550   0.18109   0.47707   0.00000  Uiso   1.00
C109   C     0.45438   0.14403   0.04666   0.00000  Uiso   1.00
C110   C     0.48561   0.06906   0.25195   0.00000  Uiso   1.00
C111   C     0.50494   0.22309   0.45311   0.00000  Uiso   1.00
C112   C     0.52588   0.26837   0.02412   0.00000  Uiso   1.00
C113   C     0.44777   0.09439   0.47764   0.00000  Uiso   1.00
C114   C     0.48642   0.28852   0.14219   0.00000  Uiso   1.00
C115   C     0.51324   0.06063   0.35756   0.00000  Uiso   1.00
C116   C     0.52404   0.01843   0.04838   0.00000  Uiso   1.00
C117   C     0.54227   0.05140   0.08882   0.00000  Uiso   1.00
C118   C     0.39825   0.04045   0.43086   0.00000  Uiso   1.00
C119   C     0.39536   0.31910   0.41374   0.00000  Uiso   1.00
C120   C     0.59524   0.31694   0.44995   0.00000  Uiso   1.00
C121   C     0.52224   0.26787   0.47647   0.00000  Uiso   1.00
C122   C     0.34171   0.08253   0.04286   0.00000  Uiso   1.00
C123   C     0.61518   0.33058   0.23780   0.00000  Uiso   1.00
C124   C     0.40081   0.33045   0.29827   0.00000  Uiso   1.00
C125   C     0.64720   0.09894   0.17649   0.00000  Uiso   1.00
C126   C     0.34592   0.05332   0.15669   0.00000  Uiso   1.00
C127   C     0.34755   0.20482   0.33448   0.00000  Uiso   1.00
C128   C     0.64151   0.21923   0.37294   0.00000  Uiso   1.00
C129   C     0.43085   0.10266   0.02228   0.00000  Uiso   1.00
C130   C     0.52208   0.31842   0.25690   0.00000  Uiso   1.00
C131   C     0.47731   0.01537   0.25492   0.00000  Uiso   1.00
C132   C     0.50196   0.16746   0.33654   0.00000  Uiso   1.00
C133   C     0.49812   0.16990   0.16376   0.00000  Uiso   1.00
C134   C     0.45758   0.14283   0.09295   0.00000  Uiso   1.00
H135   H     0.43945   0.11161   0.11076   0.00000  Uiso   1.00
H136   H     0.53244   0.04023   0.01761   0.00000  Uiso   1.00
H137   H     0.57678   0.03376   0.10629   0.00000  Uiso   1.00
H138   H     0.55670   0.08959   0.07817   0.00000  Uiso   1.00
H139   H     0.50733   0.05541   0.11364   0.00000  Uiso   1.00
H140   H     0.40295   0.06557   0.40168   0.00000  Uiso   1.00
H141   H     0.35834   0.04929   0.44891   0.00000  Uiso   1.00
H142   H     0.36230   0.31448   0.38819   0.00000  Uiso   1.00
H143   H     0.38600   0.29374   0.44218   0.00000  Uiso   1.00
H144   H     0.43632   0.30828   0.39835   0.00000  Uiso   1.00
H145   H     0.60613   0.00275   0.41819   0.00000  Uiso   1.00
H146   H     0.51693   0.25115   0.38596   0.00000  Uiso   1.00
H147   H     0.61809   0.28066   0.45013   0.00000  Uiso   1.00
H148   H     0.61003   0.00855   0.47815   0.00000  Uiso   1.00
H149   H     0.66191   0.09566   0.00951   0.00000  Uiso   1.00
H150   H     0.64757   0.04971   0.05129   0.00000  Uiso   1.00
H151   H     0.33501   0.11342   0.06859   0.00000  Uiso   1.00
H152   H     0.59815   0.33121   0.20327   0.00000  Uiso   1.00
H153   H     0.63719   0.29454   0.24173   0.00000  Uiso   1.00
H154   H     0.64690   0.02812   0.24233   0.00000  Uiso   1.00
H155   H     0.39011   0.03619   0.30999   0.00000  Uiso   1.00
H156   H     0.43022   0.31320   0.32166   0.00000  Uiso   1.00
H157   H     0.45723   0.30266   0.11698   0.00000  Uiso   1.00
H158   H     0.36162   0.30731   0.29972   0.00000  Uiso   1.00
H159   H     0.63979   0.12586   0.14936   0.00000  Uiso   1.00
H160   H     0.60655   0.08521   0.19022   0.00000  Uiso   1.00
H161   H     0.37455   0.03787   0.18160   0.00000  Uiso   1.00
H162   H     0.65073   0.02226   0.14505   0.00000  Uiso   1.00
H163   H     0.37160   0.06399   0.12749   0.00000  Uiso   1.00
H164   H     0.38425   0.23143   0.33619   0.00000  Uiso   1.00
H165   H     0.35835   0.16467   0.34027   0.00000  Uiso   1.00
H166   H     0.61181   0.18735   0.37887   0.00000  Uiso   1.00
H167   H     0.66614   0.22471   0.40404   0.00000  Uiso   1.00
H168   H     0.50344   0.32149   0.16192   0.00000  Uiso   1.00
H169   H     0.61891   0.25432   0.36567   0.00000  Uiso   1.00
H170   H     0.46193   0.26477   0.16596   0.00000  Uiso   1.00
H171   H     0.47191   0.07060   0.34417   0.00000  Uiso   1.00
H172   H     0.51456   0.01867   0.35803   0.00000  Uiso   1.00
H173   H     0.54880   0.07312   0.33570   0.00000  Uiso   1.00
H174   H     0.47802   0.01044   0.05141   0.00000  Uiso   1.00
N175   N     0.65011   0.15265   0.23783   0.00000  Uiso   1.00
N176   N     0.34989   0.18068   0.26217   0.00000  Uiso   1.00
O177   O     0.46308   0.24619   0.25299   0.00000  Uiso   1.00
O178   O     0.52120   0.07976   0.40149   0.00000  Uiso   1.00
O179   O     0.55541   0.30697   0.04652   0.00000  Uiso   1.00
O180   O     0.44425   0.04559   0.45965   0.00000  Uiso   1.00
O181   O     0.53637   0.31046   0.45237   0.00000  Uiso   1.00
O182   O     0.39776   0.06635   0.04295   0.00000  Uiso   1.00
O183   O     0.57358   0.00442   0.27154   0.00000  Uiso   1.00
O184   O     0.42238   0.32993   0.25364   0.00000  Uiso   1.00
O185   O     0.34739   0.12255   0.20957   0.00000  Uiso   1.00
O186   O     0.65466   0.20915   0.29302   0.00000  Uiso   1.00
O187   O     0.53692   0.08714   0.24702   0.00000  Uiso   1.00
O188   O     0.55946   0.23721   0.24519   0.00000  Uiso   1.00
O189   O     0.44054   0.09613   0.25482   0.00000  Uiso   1.00
O190   O     0.45181   0.17117   0.31998   0.00000  Uiso   1.00
O191   O     0.54819   0.16216   0.18003   0.00000  Uiso   1.00
O192   O     0.54819   0.16219   0.31218   0.00000  Uiso   1.00
O193   O     0.45181   0.17115   0.18783   0.00000  Uiso   1.00
O194   O     0.53187   0.26232   0.12162   0.00000  Uiso   1.00
Zn195  Zn    0.43565   0.17266   0.25521   0.00000  Uiso   1.00
Zn196  Zn    0.56435   0.16067   0.24479   0.00000  Uiso   1.00
C197   C     0.84782   0.26436   0.25122   0.00000  Uiso   1.00
C198   C     0.84163   0.21823   0.40614   0.00000  Uiso   1.00
C199   C     0.82458   0.17769   0.11618   0.00000  Uiso   1.00
C200   C     0.83874   0.16985   0.38503   0.00000  Uiso   1.00
C201   C     0.84349   0.22246   0.09551   0.00000  Uiso   1.00
C202   C     0.82936   0.12624   0.41082   0.00000  Uiso   1.00
C203   C     0.83902   0.22587   0.04815   0.00000  Uiso   1.00
C204   C     0.80900   0.13380   0.45472   0.00000  Uiso   1.00
C205   C     0.81424   0.18430   0.02397   0.00000  Uiso   1.00
C206   C     0.81883   0.18109   0.47707   0.00000  Uiso   1.00
C207   C     0.78771   0.14403   0.04666   0.00000  Uiso   1.00
C208   C     0.81895   0.06906   0.25195   0.00000  Uiso   1.00
C209   C     0.83827   0.22309   0.45311   0.00000  Uiso   1.00
C210   C     0.85922   0.26837   0.02412   0.00000  Uiso   1.00
C211   C     0.78110   0.09439   0.47764   0.00000  Uiso   1.00
C212   C     0.81976   0.28852   0.14219   0.00000  Uiso   1.00
C213   C     0.84657   0.06063   0.35756   0.00000  Uiso   1.00
C214   C     0.85737   0.01843   0.04838   0.00000  Uiso   1.00
C215   C     0.87560   0.05140   0.08882   0.00000  Uiso   1.00
C216   C     0.73158   0.04045   0.43086   0.00000  Uiso   1.00
C217   C     0.72869   0.31910   0.41374   0.00000  Uiso   1.00
C218   C     0.92857   0.31694   0.44995   0.00000  Uiso   1.00
C219   C     0.85557   0.26787   0.47647   0.00000  Uiso   1.00
C220   C     0.67504   0.08253   0.04286   0.00000  Uiso   1.00
C221   C     0.94851   0.33058   0.23780   0.00000  Uiso   1.00
C222   C     0.73415   0.33045   0.29827   0.00000  Uiso   1.00
C223   C     0.98054   0.09894   0.17649   0.00000  Uiso   1.00
C224   C     0.67925   0.05332   0.15669   0.00000  Uiso   1.00
C225   C     0.68088   0.20482   0.33448   0.00000  Uiso   1.00
C226   C     0.97484   0.21923   0.37294   0.00000  Uiso   1.00
C227   C     0.76419   0.10266   0.02228   0.00000  Uiso   1.00
C228   C     0.85542   0.31842   0.25690   0.00000  Uiso   1.00
C229   C     0.81065   0.01537   0.25492   0.00000  Uiso   1.00
C230   C     0.83530   0.16746   0.33654   0.00000  Uiso   1.00
C231   C     0.83146   0.16990   0.16376   0.00000  Uiso   1.00
C232   C     0.79091   0.14283   0.09295   0.00000  Uiso   1.00
H233   H     0.77279   0.11161   0.11076   0.00000  Uiso   1.00
H234   H     0.86577   0.04023   0.01761   0.00000  Uiso   1.00
H235   H     0.91011   0.03376   0.10629   0.00000  Uiso   1.00
H236   H     0.89004   0.08959   0.07817   0.00000  Uiso   1.00
H237   H     0.84067   0.05541   0.11364   0.00000  Uiso   1.00
H238   H     0.73628   0.06557   0.40168   0.00000  Uiso   1.00
H239   H     0.69167   0.04929   0.44891   0.00000  Uiso   1.00
H240   H     0.69563   0.31448   0.38819   0.00000  Uiso   1.00
H241   H     0.71933   0.29374   0.44218   0.00000  Uiso   1.00
H242   H     0.76965   0.30828   0.39835   0.00000  Uiso   1.00
H243   H     0.93946   0.00275   0.41819   0.00000  Uiso   1.00
H244   H     0.85027   0.25115   0.38596   0.00000  Uiso   1.00
H245   H     0.95143   0.28066   0.45013   0.00000  Uiso   1.00
H246   H     0.94336   0.00855   0.47815   0.00000  Uiso   1.00
H247   H     0.99525   0.09566   0.00951   0.00000  Uiso   1.00
H248   H     0.98090   0.04971   0.05129   0.00000  Uiso   1.00
H249   H     0.66834   0.11342   0.06859   0.00000  Uiso   1.00
H250   H     0.93149   0.33121   0.20327   0.00000  Uiso   1.00
H251   H     0.97052   0.29454   0.24173   0.00000  Uiso   1.00
H252   H     0.98024   0.02812   0.24233   0.00000  Uiso   1.00
H253   H     0.72345   0.03619   0.30999   0.00000  Uiso   1.00
H254   H     0.76356   0.31320   0.32166   0.00000  Uiso   1.00
H255   H     0.79056   0.30266   0.11698   0.00000  Uiso   1.00
H256   H     0.69496   0.30731   0.29972   0.00000  Uiso   1.00
H257   H     0.97312   0.12586   0.14936   0.00000  Uiso   1.00
H258   H     0.93989   0.08521   0.19022   0.00000  Uiso   1.00
H259   H     0.70788   0.03787   0.18160   0.00000  Uiso   1.00
H260   H     0.98406   0.02226   0.14505   0.00000  Uiso   1.00
H261   H     0.70493   0.06399   0.12749   0.00000  Uiso   1.00
H262   H     0.71758   0.23143   0.33619   0.00000  Uiso   1.00
H263   H     0.69168   0.16467   0.34027   0.00000  Uiso   1.00
H264   H     0.94514   0.18735   0.37887   0.00000  Uiso   1.00
H265   H     0.99948   0.22471   0.40404   0.00000  Uiso   1.00
H266   H     0.83677   0.32149   0.16192   0.00000  Uiso   1.00
H267   H     0.95224   0.25432   0.36567   0.00000  Uiso   1.00
H268   H     0.79527   0.26477   0.16596   0.00000  Uiso   1.00
H269   H     0.80525   0.07060   0.34417   0.00000  Uiso   1.00
H270   H     0.84789   0.01867   0.35803   0.00000  Uiso   1.00
H271   H     0.88213   0.07312   0.33570   0.00000  Uiso   1.00
H272   H     0.81136   0.01044   0.05141   0.00000  Uiso   1.00
N273   N     0.98344   0.15265   0.23783   0.00000  Uiso   1.00
N274   N     0.68322   0.18068   0.26217   0.00000  Uiso   1.00
O275   O     0.79642   0.24619   0.25299   0.00000  Uiso   1.00
O276   O     0.85454   0.07976   0.40149   0.00000  Uiso   1.00
O277   O     0.88874   0.30697   0.04652   0.00000  Uiso   1.00
O278   O     0.77759   0.04559   0.45965   0.00000  Uiso   1.00
O279   O     0.86971   0.31046   0.45237   0.00000  Uiso   1.00
O280   O     0.73110   0.06635   0.04295   0.00000  Uiso   1.00
O281   O     0.90692   0.00442   0.27154   0.00000  Uiso   1.00
O282   O     0.75571   0.32993   0.25364   0.00000  Uiso   1.00
O283   O     0.68073   0.12255   0.20957   0.00000  Uiso   1.00
O284   O     0.98800   0.20915   0.29302   0.00000  Uiso   1.00
O285   O     0.87025   0.08714   0.24702   0.00000  Uiso   1.00
O286   O     0.89280   0.23721   0.24519   0.00000  Uiso   1.00
O287   O     0.77387   0.09613   0.25482   0.00000  Uiso   1.00
O288   O     0.78514   0.17117   0.31998   0.00000  Uiso   1.00
O289   O     0.88153   0.16216   0.18003   0.00000  Uiso   1.00
O290   O     0.88152   0.16219   0.31218   0.00000  Uiso   1.00
O291   O     0.78515   0.17115   0.18783   0.00000  Uiso   1.00
O292   O     0.86520   0.26232   0.12162   0.00000  Uiso   1.00
Zn293  Zn    0.76898   0.17266   0.25521   0.00000  Uiso   1.00
Zn294  Zn    0.89769   0.16067   0.24479   0.00000  Uiso   1.00
C295   C     0.18116   0.59770   0.25122   0.00000  Uiso   1.00
C296   C     0.17497   0.55156   0.40614   0.00000  Uiso   1.00
C297   C     0.15792   0.51103   0.11618   0.00000  Uiso   1.00
C298   C     0.17207   0.50319   0.38503   0.00000  Uiso   1.00
C299   C     0.17682   0.55579   0.09551   0.00000  Uiso   1.00
C300   C     0.16269   0.45958   0.41082   0.00000  Uiso   1.00
C301   C     0.17235   0.55920   0.04815   0.00000  Uiso   1.00
C302   C     0.14233   0.46713   0.45472   0.00000  Uiso   1.00
C303   C     0.14758   0.51763   0.02397   0.00000  Uiso   1.00
C304   C     0.15217   0.51442   0.47707   0.00000  Uiso   1.00
C305   C     0.12104   0.47736   0.04666   0.00000  Uiso   1.00
C306   C     0.15228   0.40239   0.25195   0.00000  Uiso   1.00
C307   C     0.17161   0.55642   0.45311   0.00000  Uiso   1.00
C308   C     0.19255   0.60170   0.02412   0.00000  Uiso   1.00
C309   C     0.11444   0.42772   0.47764   0.00000  Uiso   1.00
C310   C     0.15309   0.62185   0.14219   0.00000  Uiso   1.00
C311   C     0.17991   0.39397   0.35756   0.00000  Uiso   1.00
C312   C     0.19071   0.35177   0.04838   0.00000  Uiso   1.00
C313   C     0.20893   0.38473   0.08882   0.00000  Uiso   1.00
C314   C     0.06492   0.37379   0.43086   0.00000  Uiso   1.00
C315   C     0.06203   0.65243   0.41374   0.00000  Uiso   1.00
C316   C     0.26191   0.65027   0.44995   0.00000  Uiso   1.00
C317   C     0.18890   0.60121   0.47647   0.00000  Uiso   1.00
C318   C     0.00838   0.41587   0.04286   0.00000  Uiso   1.00
C319   C     0.28185   0.66391   0.23780   0.00000  Uiso   1.00
C320   C     0.06748   0.66378   0.29827   0.00000  Uiso   1.00
C321   C     0.31387   0.43228   0.17649   0.00000  Uiso   1.00
C322   C     0.01259   0.38665   0.15669   0.00000  Uiso   1.00
C323   C     0.01421   0.53816   0.33448   0.00000  Uiso   1.00
C324   C     0.30817   0.55257   0.37294   0.00000  Uiso   1.00
C325   C     0.09752   0.43599   0.02228   0.00000  Uiso   1.00
C326   C     0.18875   0.65175   0.25690   0.00000  Uiso   1.00
C327   C     0.14398   0.34870   0.25492   0.00000  Uiso   1.00
C328   C     0.16863   0.50079   0.33654   0.00000  Uiso   1.00
C329   C     0.16479   0.50323   0.16376   0.00000  Uiso   1.00
C330   C     0.12424   0.47617   0.09295   0.00000  Uiso   1.00
H331   H     0.10612   0.44494   0.11076   0.00000  Uiso   1.00
H332   H     0.19911   0.37356   0.01761   0.00000  Uiso   1.00
H333   H     0.24344   0.36709   0.10629   0.00000  Uiso   1.00
H334   H     0.22337   0.42292   0.07817   0.00000  Uiso   1.00
H335   H     0.17400   0.38874   0.11364   0.00000  Uiso   1.00
H336   H     0.06962   0.39890   0.40168   0.00000  Uiso   1.00
H337   H     0.02500   0.38263   0.44891   0.00000  Uiso   1.00
H338   H     0.02896   0.64782   0.38819   0.00000  Uiso   1.00
H339   H     0.05266   0.62707   0.44218   0.00000  Uiso   1.00
H340   H     0.10298   0.64161   0.39835   0.00000  Uiso   1.00
H341   H     0.27280   0.33609   0.41819   0.00000  Uiso   1.00
H342   H     0.18360   0.58448   0.38596   0.00000  Uiso   1.00
H343   H     0.28476   0.61400   0.45013   0.00000  Uiso   1.00
H344   H     0.27670   0.34188   0.47815   0.00000  Uiso   1.00
H345   H     0.32858   0.42899   0.00951   0.00000  Uiso   1.00
H346   H     0.31423   0.38305   0.05129   0.00000  Uiso   1.00
H347   H     0.00168   0.44675   0.06859   0.00000  Uiso   1.00
H348   H     0.26482   0.66455   0.20327   0.00000  Uiso   1.00
H349   H     0.30386   0.62788   0.24173   0.00000  Uiso   1.00
H350   H     0.31357   0.36145   0.24233   0.00000  Uiso   1.00
H351   H     0.05678   0.36952   0.30999   0.00000  Uiso   1.00
H352   H     0.09689   0.64653   0.32166   0.00000  Uiso   1.00
H353   H     0.12390   0.63599   0.11698   0.00000  Uiso   1.00
H354   H     0.02829   0.64065   0.29972   0.00000  Uiso   1.00
H355   H     0.30645   0.45919   0.14936   0.00000  Uiso   1.00
H356   H     0.27322   0.41854   0.19022   0.00000  Uiso   1.00
H357   H     0.04122   0.37120   0.18160   0.00000  Uiso   1.00
H358   H     0.31740   0.35559   0.14505   0.00000  Uiso   1.00
H359   H     0.03826   0.39732   0.12749   0.00000  Uiso   1.00
H360   H     0.05092   0.56476   0.33619   0.00000  Uiso   1.00
H361   H     0.02501   0.49800   0.34027   0.00000  Uiso   1.00
H362   H     0.27848   0.52068   0.37887   0.00000  Uiso   1.00
H363   H     0.33281   0.55805   0.40404   0.00000  Uiso   1.00
H364   H     0.17010   0.65482   0.16192   0.00000  Uiso   1.00
H365   H     0.28558   0.58765   0.36567   0.00000  Uiso   1.00
H366   H     0.12860   0.59811   0.16596   0.00000  Uiso   1.00
H367   H     0.13858   0.40393   0.34417   0.00000  Uiso   1.00
H368   H     0.18123   0.35200   0.35803   0.00000  Uiso   1.00
H369   H     0.21546   0.40646   0.33570   0.00000  Uiso   1.00
H370   H     0.14469   0.34377   0.05141   0.00000  Uiso   1.00
N371   N     0.31678   0.48598   0.23783   0.00000  Uiso   1.00
N372   N     0.01656   0.51402   0.26217   0.00000  Uiso   1.00
O373   O     0.12975   0.57952   0.25299   0.00000  Uiso   1.00
O374   O     0.18787   0.41309   0.40149   0.00000  Uiso   1.00
O375   O     0.22207   0.64030   0.04652   0.00000  Uiso   1.00
O376   O     0.11092   0.37892   0.45965   0.00000  Uiso   1.00
O377   O     0.20304   0.64380   0.45237   0.00000  Uiso   1.00
O378   O     0.06443   0.39968   0.04295   0.00000  Uiso   1.00
O379   O     0.24025   0.33775   0.27154   0.00000  Uiso   1.00
O380   O     0.08904   0.66326   0.25364   0.00000  Uiso   1.00
O381   O     0.01406   0.45588   0.20957   0.00000  Uiso   1.00
O382   O     0.32133   0.54248   0.29302   0.00000  Uiso   1.00
O383   O     0.20358   0.42048   0.24702   0.00000  Uiso   1.00
O384   O     0.22613   0.57054   0.24519   0.00000  Uiso   1.00
O385   O     0.10720   0.42946   0.25482   0.00000  Uiso   1.00
O386   O     0.11847   0.50450   0.31998   0.00000  Uiso   1.00
O387   O     0.21486   0.49550   0.18003   0.00000  Uiso   1.00
O388   O     0.21485   0.49552   0.31218   0.00000  Uiso   1.00
O389   O     0.11848   0.50448   0.18783   0.00000  Uiso   1.00
O390   O     0.19854   0.59565   0.12162   0.00000  Uiso   1.00
Zn391  Zn    0.10231   0.50600   0.25521   0.00000  Uiso   1.00
Zn392  Zn    0.23102   0.49400   0.24479   0.00000  Uiso   1.00
C393   C     0.51449   0.59770   0.25122   0.00000  Uiso   1.00
C394   C     0.50830   0.55156   0.40614   0.00000  Uiso   1.00
C395   C     0.49125   0.51103   0.11618   0.00000  Uiso   1.00
C396   C     0.50541   0.50319   0.38503   0.00000  Uiso   1.00
C397   C     0.51016   0.55579   0.09551   0.00000  Uiso   1.00
C398   C     0.49602   0.45958   0.41082   0.00000  Uiso   1.00
C399   C     0.50569   0.55920   0.04815   0.00000  Uiso   1.00
C400   C     0.47566   0.46713   0.45472   0.00000  Uiso   1.00
C401   C     0.48091   0.51763   0.02397   0.00000  Uiso   1.00
C402   C     0.48550   0.51442   0.47707   0.00000  Uiso   1.00
C403   C     0.45438   0.47736   0.04666   0.00000  Uiso   1.00
C404   C     0.48561   0.40239   0.25195   0.00000  Uiso   1.00
C405   C     0.50494   0.55642   0.45311   0.00000  Uiso   1.00
C406   C     0.52588   0.60170   0.02412   0.00000  Uiso   1.00
C407   C     0.44777   0.42772   0.47764   0.00000  Uiso   1.00
C408   C     0.48642   0.62185   0.14219   0.00000  Uiso   1.00
C409   C     0.51324   0.39397   0.35756   0.00000  Uiso   1.00
C410   C     0.52404   0.35177   0.04838   0.00000  Uiso   1.00
C411   C     0.54227   0.38473   0.08882   0.00000  Uiso   1.00
C412   C     0.39825   0.37379   0.43086   0.00000  Uiso   1.00
C413   C     0.39536   0.65243   0.41374   0.00000  Uiso   1.00
C414   C     0.59524   0.65027   0.44995   0.00000  Uiso   1.00
C415   C     0.52224   0.60121   0.47647   0.00000  Uiso   1.00
C416   C     0.34171   0.41587   0.04286   0.00000  Uiso   1.00
C417   C     0.61518   0.66391   0.23780   0.00000  Uiso   1.00
C418   C     0.40081   0.66378   0.29827   0.00000  Uiso   1.00
C419   C     0.64720   0.43228   0.17649   0.00000  Uiso   1.00
C420   C     0.34592   0.38665   0.15669   0.00000  Uiso   1.00
C421   C     0.34755   0.53816   0.33448   0.00000  Uiso   1.00
C422   C     0.64151   0.55257   0.37294   0.00000  Uiso   1.00
C423   C     0.43085   0.43599   0.02228   0.00000  Uiso   1.00
C424   C     0.52208   0.65175   0.25690   0.00000  Uiso   1.00
C425   C     0.47731   0.34870   0.25492   0.00000  Uiso   1.00
C426   C     0.50196   0.50079   0.33654   0.00000  Uiso   1.00
C427   C     0.49812   0.50323   0.16376   0.00000  Uiso   1.00
C428   C     0.45758   0.47617   0.09295   0.00000  Uiso   1.00
H429   H     0.43945   0.44494   0.11076   0.00000  Uiso   1.00
H430   H     0.53244   0.37356   0.01761   0.00000  Uiso   1.00
H431   H     0.57678   0.36709   0.10629   0.00000  Uiso   1.00
H432   H     0.55670   0.42292   0.07817   0.00000  Uiso   1.00
H433   H     0.50733   0.38874   0.11364   0.00000  Uiso   1.00
H434   H     0.40295   0.39890   0.40168   0.00000  Uiso   1.00
H435   H     0.35834   0.38263   0.44891   0.00000  Uiso   1.00
H436   H     0.36230   0.64782   0.38819   0.00000  Uiso   1.00
H437   H     0.38600   0.62707   0.44218   0.00000  Uiso   1.00
H438   H     0.43632   0.64161   0.39835   0.00000  Uiso   1.00
H439   H     0.60613   0.33609   0.41819   0.00000  Uiso   1.00
H440   H     0.51693   0.58448   0.38596   0.00000  Uiso   1.00
H441   H     0.61809   0.61400   0.45013   0.00000  Uiso   1.00
H442   H     0.61003   0.34188   0.47815   0.00000  Uiso   1.00
H443   H     0.66191   0.42899   0.00951   0.00000  Uiso   1.00
H444   H     0.64757   0.38305   0.05129   0.00000  Uiso   1.00
H445   H     0.33501   0.44675   0.06859   0.00000  Uiso   1.00
H446   H     0.59815   0.66455   0.20327   0.00000  Uiso   1.00
H447   H     0.63719   0.62788   0.24173   0.00000  Uiso   1.00
H448   H     0.64690   0.36145   0.24233   0.00000  Uiso   1.00
H449   H     0.39011   0.36952   0.30999   0.00000  Uiso   1.00
H450   H     0.43022   0.64653   0.32166   0.00000  Uiso   1.00
H451   H     0.45723   0.63599   0.11698   0.00000  Uiso   1.00
H452   H     0.36162   0.64065   0.29972   0.00000  Uiso   1.00
H453   H     0.63979   0.45919   0.14936   0.00000  Uiso   1.00
H454   H     0.60655   0.41854   0.19022   0.00000  Uiso   1.00
H455   H     0.37455   0.37120   0.18160   0.00000  Uiso   1.00
H456   H     0.65073   0.35559   0.14505   0.00000  Uiso   1.00
H457   H     0.37160   0.39732   0.12749   0.00000  Uiso   1.00
H458   H     0.38425   0.56476   0.33619   0.00000  Uiso   1.00
H459   H     0.35835   0.49800   0.34027   0.00000  Uiso   1.00
H460   H     0.61181   0.52068   0.37887   0.00000  Uiso   1.00
H461   H     0.66614   0.55805   0.40404   0.00000  Uiso   1.00
H462   H     0.50344   0.65482   0.16192   0.00000  Uiso   1.00
H463   H     0.61891   0.58765   0.36567   0.00000  Uiso   1.00
H464   H     0.46193   0.59811   0.16596   0.00000  Uiso   1.00
H465   H     0.47191   0.40393   0.34417   0.00000  Uiso   1.00
H466   H     0.51456   0.35200   0.35803   0.00000  Uiso   1.00
H467   H     0.54880   0.40646   0.33570   0.00000  Uiso   1.00
H468   H     0.47802   0.34377   0.05141   0.00000  Uiso   1.00
N469   N     0.65011   0.48598   0.23783   0.00000  Uiso   1.00
N470   N     0.34989   0.51402   0.26217   0.00000  Uiso   1.00
O471   O     0.46308   0.57952   0.25299   0.00000  Uiso   1.00
O472   O     0.52120   0.41309   0.40149   0.00000  Uiso   1.00
O473   O     0.55541   0.64030   0.04652   0.00000  Uiso   1.00
O474   O     0.44425   0.37892   0.45965   0.00000  Uiso   1.00
O475   O     0.53637   0.64380   0.45237   0.00000  Uiso   1.00
O476   O     0.39776   0.39968   0.04295   0.00000  Uiso   1.00
O477   O     0.57358   0.33775   0.27154   0.00000  Uiso   1.00
O478   O     0.42238   0.66326   0.25364   0.00000  Uiso   1.00
O479   O     0.34739   0.45588   0.20957   0.00000  Uiso   1.00
O480   O     0.65466   0.54248   0.29302   0.00000  Uiso   1.00
O481   O     0.53692   0.42048   0.24702   0.00000  Uiso   1.00
O482   O     0.55946   0.57054   0.24519   0.00000  Uiso   1.00
O483   O     0.44054   0.42946   0.25482   0.00000  Uiso   1.00
O484   O     0.45181   0.50450   0.31998   0.00000  Uiso   1.00
O485   O     0.54819   0.49550   0.18003   0.00000  Uiso   1.00
O486   O     0.54819   0.49552   0.31218   0.00000  Uiso   1.00
O487   O     0.45181   0.50448   0.18783   0.00000  Uiso   1.00
O488   O     0.53187   0.59565   0.12162   0.00000  Uiso   1.00
Zn489  Zn    0.43565   0.50600   0.25521   0.00000  Uiso   1.00
Zn490  Zn    0.56435   0.49400   0.24479   0.00000  Uiso   1.00
C491   C     0.84782   0.59770   0.25122   0.00000  Uiso   1.00
C492   C     0.84163   0.55156   0.40614   0.00000  Uiso   1.00
C493   C     0.82458   0.51103   0.11618   0.00000  Uiso   1.00
C494   C     0.83874   0.50319   0.38503   0.00000  Uiso   1.00
C495   C     0.84349   0.55579   0.09551   0.00000  Uiso   1.00
C496   C     0.82936   0.45958   0.41082   0.00000  Uiso   1.00
C497   C     0.83902   0.55920   0.04815   0.00000  Uiso   1.00
C498   C     0.80900   0.46713   0.45472   0.00000  Uiso   1.00
C499   C     0.81424   0.51763   0.02397   0.00000  Uiso   1.00
C500   C     0.81883   0.51442   0.47707   0.00000  Uiso   1.00
C501   C     0.78771   0.47736   0.04666   0.00000  Uiso   1.00
C502   C     0.81895   0.40239   0.25195   0.00000  Uiso   1.00
C503   C     0.83827   0.55642   0.45311   0.00000  Uiso   1.00
C504   C     0.85922   0.60170   0.02412   0.00000  Uiso   1.00
C505   C     0.78110   0.42772   0.47764   0.00000  Uiso   1.00
C506   C     0.81976   0.62185   0.14219   0.00000  Uiso   1.00
C507   C     0.84657   0.39397   0.35756   0.00000  Uiso   1.00
C508   C     0.85737   0.35177   0.04838   0.00000  Uiso   1.00
C509   C     0.87560   0.38473   0.08882   0.00000  Uiso   1.00
C510   C     0.73158   0.37379   0.43086   0.00000  Uiso   1.00
C511   C     0.72869   0.65243   0.41374   0.00000  Uiso   1.00
C512   C     0.92857   0.65027   0.44995   0.00000  Uiso   1.00
C513   C     0.85557   0.60121   0.47647   0.00000  Uiso   1.00
C514   C     0.67504   0.41587   0.04286   0.00000  Uiso   1.00
C515   C     0.94851   0.66391   0.23780   0.00000  Uiso   1.00
C516   C     0.73415   0.66378   0.29827   0.00000  Uiso   1.00
C517   C     0.98054   0.43228   0.17649   0.00000  Uiso   1.00
C518   C     0.67925   0.38665   0.15669   0.00000  Uiso   1.00
C519   C     0.68088   0.53816   0.33448   0.00000  Uiso   1.00
C520   C     0.97484   0.55257   0.37294   0.00000  Uiso   1.00
C521   C     0.76419   0.43599   0.02228   0.00000  Uiso   1.00
C522   C     0.85542   0.65175   0.25690   0.00000  Uiso   1.00
C523   C     0.81065   0.34870   0.25492   0.00000  Uiso   1.00
C524   C     0.83530   0.50079   0.33654   0.00000  Uiso   1.00
C525   C     0.83146   0.50323   0.16376   0.00000  Uiso   1.00
C526   C     0.79091   0.47617   0.09295   0.00000  Uiso   1.00
H527   H     0.77279   0.44494   0.11076   0.00000  Uiso   1.00
H528   H     0.86577   0.37356   0.01761   0.00000  Uiso   1.00
H529   H     0.91011   0.36709   0.10629   0.00000  Uiso   1.00
H530   H     0.89004   0.42292   0.07817   0.00000  Uiso   1.00
H531   H     0.84067   0.38874   0.11364   0.00000  Uiso   1.00
H532   H     0.73628   0.39890   0.40168   0.00000  Uiso   1.00
H533   H     0.69167   0.38263   0.44891   0.00000  Uiso   1.00
H534   H     0.69563   0.64782   0.38819   0.00000  Uiso   1.00
H535   H     0.71933   0.62707   0.44218   0.00000  Uiso   1.00
H536   H     0.76965   0.64161   0.39835   0.00000  Uiso   1.00
H537   H     0.93946   0.33609   0.41819   0.00000  Uiso   1.00
H538   H     0.85027   0.58448   0.38596   0.00000  Uiso   1.00
H539   H     0.95143   0.61400   0.45013   0.00000  Uiso   1.00
H540   H     0.94336   0.34188   0.47815   0.00000  Uiso   1.00
H541   H     0.99525   0.42899   0.00951   0.00000  Uiso   1.00
H542   H     0.98090   0.38305   0.05129   0.00000  Uiso   1.00
H543   H     0.66834   0.44675   0.06859   0.00000  Uiso   1.00
H544   H     0.93149   0.66455   0.20327   0.00000  Uiso   1.00
H545   H     0.97052   0.62788   0.24173   0.00000  Uiso   1.00
H546   H     0.98024   0.36145   0.24233   0.00000  Uiso   1.00
H547   H     0.72345   0.36952   0.30999   0.00000  Uiso   1.00
H548   H     0.76356   0.64653   0.32166   0.00000  Uiso   1.00
H549   H     0.79056   0.63599   0.11698   0.00000  Uiso   1.00
H550   H     0.69496   0.64065   0.29972   0.00000  Uiso   1.00
H551   H     0.97312   0.45919   0.14936   0.00000  Uiso   1.00
H552   H     0.93989   0.41854   0.19022   0.00000  Uiso   1.00
H553   H     0.70788   0.37120   0.18160   0.00000  Uiso   1.00
H554   H     0.98406   0.35559   0.14505   0.00000  Uiso   1.00
H555   H     0.70493   0.39732   0.12749   0.00000  Uiso   1.00
H556   H     0.71758   0.56476   0.33619   0.00000  Uiso   1.00
H557   H     0.69168   0.49800   0.34027   0.00000  Uiso   1.00
H558   H     0.94514   0.52068   0.37887   0.00000  Uiso   1.00
H559   H     0.99948   0.55805   0.40404   0.00000  Uiso   1.00
H560   H     0.83677   0.65482   0.16192   0.00000  Uiso   1.00
H561   H     0.95224   0.58765   0.36567   0.00000  Uiso   1.00
H562   H     0.79527   0.59811   0.16596   0.00000  Uiso   1.00
H563   H     0.80525   0.40393   0.34417   0.00000  Uiso   1.00
H564   H     0.84789   0.35200   0.35803   0.00000  Uiso   1.00
H565   H     0.88213   0.40646   0.33570   0.00000  Uiso   1.00
H566   H     0.81136   0.34377   0.05141   0.00000  Uiso   1.00
N567   N     0.98344   0.48598   0.23783   0.00000  Uiso   1.00
N568   N     0.68322   0.51402   0.26217   0.00000  Uiso   1.00
O569   O     0.79642   0.57952   0.25299   0.00000  Uiso   1.00
O570   O     0.85454   0.41309   0.40149   0.00000  Uiso   1.00
O571   O     0.88874   0.64030   0.04652   0.00000  Uiso   1.00
O572   O     0.77759   0.37892   0.45965   0.00000  Uiso   1.00
O573   O     0.86971   0.64380   0.45237   0.00000  Uiso   1.00
O574   O     0.73110   0.39968   0.04295   0.00000  Uiso   1.00
O575   O     0.90692   0.33775   0.27154   0.00000  Uiso   1.00
O576   O     0.75571   0.66326   0.25364   0.00000  Uiso   1.00
O577   O     0.68073   0.45588   0.20957   0.00000  Uiso   1.00
O578   O     0.98800   0.54248   0.29302   0.00000  Uiso   1.00
O579   O     0.87025   0.42048   0.24702   0.00000  Uiso   1.00
O580   O     0.89280   0.57054   0.24519   0.00000  Uiso   1.00
O581   O     0.77387   0.42946   0.25482   0.00000  Uiso   1.00
O582   O     0.78514   0.50450   0.31998   0.00000  Uiso   1.00
O583   O     0.88153   0.49550   0.18003   0.00000  Uiso   1.00
O584   O     0.88152   0.49552   0.31218   0.00000  Uiso   1.00
O585   O     0.78515   0.50448   0.18783   0.00000  Uiso   1.00
O586   O     0.86520   0.59565   0.12162   0.00000  Uiso   1.00
Zn587  Zn    0.76898   0.50600   0.25521   0.00000  Uiso   1.00
Zn588  Zn    0.89769   0.49400   0.24479   0.00000  Uiso   1.00
C589   C     0.18116   0.93103   0.25122   0.00000  Uiso   1.00
C590   C     0.17497   0.88489   0.40614   0.00000  Uiso   1.00
C591   C     0.15792   0.84436   0.11618   0.00000  Uiso   1.00
C592   C     0.17207   0.83652   0.38503   0.00000  Uiso   1.00
C593   C     0.17682   0.88913   0.09551   0.00000  Uiso   1.00
C594   C     0.16269   0.79291   0.41082   0.00000  Uiso   1.00
C595   C     0.17235   0.89253   0.04815   0.00000  Uiso   1.00
C596   C     0.14233   0.80047   0.45472   0.00000  Uiso   1.00
C597   C     0.14758   0.85096   0.02397   0.00000  Uiso   1.00
C598   C     0.15217   0.84776   0.47707   0.00000  Uiso   1.00
C599   C     0.12104   0.81070   0.04666   0.00000  Uiso   1.00
C600   C     0.15228   0.73572   0.25195   0.00000  Uiso   1.00
C601   C     0.17161   0.88976   0.45311   0.00000  Uiso   1.00
C602   C     0.19255   0.93504   0.02412   0.00000  Uiso   1.00
C603   C     0.11444   0.76106   0.47764   0.00000  Uiso   1.00
C604   C     0.15309   0.95518   0.14219   0.00000  Uiso   1.00
C605   C     0.17991   0.72730   0.35756   0.00000  Uiso   1.00
C606   C     0.19071   0.68510   0.04838   0.00000  Uiso   1.00
C607   C     0.20893   0.71807   0.08882   0.00000  Uiso   1.00
C608   C     0.06492   0.70712   0.43086   0.00000  Uiso   1.00
C609   C     0.06203   0.98576   0.41374   0.00000  Uiso   1.00
C610   C     0.26191   0.98361   0.44995   0.00000  Uiso   1.00
C611   C     0.18890   0.93454   0.47647   0.00000  Uiso   1.00
C612   C     0.00838   0.74920   0.04286   0.00000  Uiso   1.00
C613   C     0.28185   0.99724   0.23780   0.00000  Uiso   1.00
C614   C     0.06748   0.99711   0.29827   0.00000  Uiso   1.00
C615   C     0.31387   0.76561   0.17649   0.00000  Uiso   1.00
C616   C     0.01259   0.71999   0.15669   0.00000  Uiso   1.00
C617   C     0.01421   0.87149   0.33448   0.00000  Uiso   1.00
C618   C     0.30817   0.88590   0.37294   0.00000  Uiso   1.00
C619   C     0.09752   0.76932   0.02228   0.00000  Uiso   1.00
C620   C     0.18875   0.98508   0.25690   0.00000  Uiso   1.00
C621   C     0.14398   0.68203   0.25492   0.00000  Uiso   1.00
C622   C     0.16863   0.83412   0.33654   0.00000  Uiso   1.00
C623   C     0.16479   0.83656   0.16376   0.00000  Uiso   1.00
C624   C     0.12424   0.80950   0.09295   0.00000  Uiso   1.00
H625   H     0.10612   0.77828   0.11076   0.00000  Uiso   1.00
H626   H     0.19911   0.70690   0.01761   0.00000  Uiso   1.00
H627   H     0.24344   0.70042   0.10629   0.00000  Uiso   1.00
H628   H     0.22337   0.75626   0.07817   0.00000  Uiso   1.00
H629   H     0.17400   0.72207   0.11364   0.00000  Uiso   1.00
H630   H     0.06962   0.73224   0.40168   0.00000  Uiso   1.00
H631   H     0.02500   0.71596   0.44891   0.00000  Uiso   1.00
H632   H     0.02896   0.98115   0.38819   0.00000  Uiso   1.00
H633   H     0.05266   0.96041   0.44218   0.00000  Uiso   1.00
H634   H     0.10298   0.97495   0.39835   0.00000  Uiso   1.00
H635   H     0.27280   0.66942   0.41819   0.00000  Uiso   1.00
H636   H     0.18360   0.91782   0.38596   0.00000  Uiso   1.00
H637   H     0.28476   0.94733   0.45013   0.00000  Uiso   1.00
H638   H     0.27670   0.67521   0.47815   0.00000  Uiso   1.00
H639   H     0.32858   0.76232   0.00951   0.00000  Uiso   1.00
H640   H     0.31423   0.71638   0.05129   0.00000  Uiso   1.00
H641   H     0.00168   0.78008   0.06859   0.00000  Uiso   1.00
H642   H     0.26482   0.99788   0.20327   0.00000  Uiso   1.00
H643   H     0.30386   0.96121   0.24173   0.00000  Uiso   1.00
H644   H     0.31357   0.69479   0.24233   0.00000  Uiso   1.00
H645   H     0.05678   0.70285   0.30999   0.00000  Uiso   1.00
H646   H     0.09689   0.97986   0.32166   0.00000  Uiso   1.00
H647   H     0.12390   0.96932   0.11698   0.00000  Uiso   1.00
H648   H     0.02829   0.97398   0.29972   0.00000  Uiso   1.00
H649   H     0.30645   0.79253   0.14936   0.00000  Uiso   1.00
H650   H     0.27322   0.75187   0.19022   0.00000  Uiso   1.00
H651   H     0.04122   0.70454   0.18160   0.00000  Uiso   1.00
H652   H     0.31740   0.68893   0.14505   0.00000  Uiso   1.00
H653   H     0.03826   0.73066   0.12749   0.00000  Uiso   1.00
H654   H     0.05092   0.89810   0.33619   0.00000  Uiso   1.00
H655   H     0.02501   0.83133   0.34027   0.00000  Uiso   1.00
H656   H     0.27848   0.85402   0.37887   0.00000  Uiso   1.00
H657   H     0.33281   0.89138   0.40404   0.00000  Uiso   1.00
H658   H     0.17010   0.98815   0.16192   0.00000  Uiso   1.00
H659   H     0.28558   0.92098   0.36567   0.00000  Uiso   1.00
H660   H     0.12860   0.93144   0.16596   0.00000  Uiso   1.00
H661   H     0.13858   0.73727   0.34417   0.00000  Uiso   1.00
H662   H     0.18123   0.68533   0.35803   0.00000  Uiso   1.00
H663   H     0.21546   0.73979   0.33570   0.00000  Uiso   1.00
H664   H     0.14469   0.67710   0.05141   0.00000  Uiso   1.00
N665   N     0.31678   0.81932   0.23783   0.00000  Uiso   1.00
N666   N     0.01656   0.84735   0.26217   0.00000  Uiso   1.00
O667   O     0.12975   0.91286   0.25299   0.00000  Uiso   1.00
O668   O     0.18787   0.74642   0.40149   0.00000  Uiso   1.00
O669   O     0.22207   0.97363   0.04652   0.00000  Uiso   1.00
O670   O     0.11092   0.71225   0.45965   0.00000  Uiso   1.00
O671   O     0.20304   0.97713   0.45237   0.00000  Uiso   1.00
O672   O     0.06443   0.73301   0.04295   0.00000  Uiso   1.00
O673   O     0.24025   0.67109   0.27154   0.00000  Uiso   1.00
O674   O     0.08904   0.99659   0.25364   0.00000  Uiso   1.00
O675   O     0.01406   0.78922   0.20957   0.00000  Uiso   1.00
O676   O     0.32133   0.87582   0.29302   0.00000  Uiso   1.00
O677   O     0.20358   0.75381   0.24702   0.00000  Uiso   1.00
O678   O     0.22613   0.90387   0.24519   0.00000  Uiso   1.00
O679   O     0.10720   0.76279   0.25482   0.00000  Uiso   1.00
O680   O     0.11847   0.83784   0.31998   0.00000  Uiso   1.00
O681   O     0.21486   0.82883   0.18003   0.00000  Uiso   1.00
O682   O     0.21485   0.82885   0.31218   0.00000  Uiso   1.00
O683   O     0.11848   0.83781   0.18783   0.00000  Uiso   1.00
O684   O     0.19854   0.92898   0.12162   0.00000  Uiso   1.00
Zn685  Zn    0.10231   0.83933   0.25521   0.00000  Uiso   1.00
Zn686  Zn    0.23102   0.82734   0.24479   0.00000  Uiso   1.00
C687   C     0.51449   0.93103   0.25122   0.00000  Uiso   1.00
C688   C     0.50830   0.88489   0.40614   0.00000  Uiso   1.00
C689   C     0.49125   0.84436   0.11618   0.00000  Uiso   1.00
C690   C     0.50541   0.83652   0.38503   0.00000  Uiso   1.00
C691   C     0.51016   0.88913   0.09551   0.00000  Uiso   1.00
C692   C     0.49602   0.79291   0.41082   0.00000  Uiso   1.00
C693   C     0.50569   0.89253   0.04815   0.00000  Uiso   1.00
C694   C     0.47566   0.80047   0.45472   0.00000  Uiso   1.00
C695   C     0.48091   0.85096   0.02397   0.00000  Uiso   1.00
C696   C     0.48550   0.84776   0.47707   0.00000  Uiso   1.00
C697   C     0.45438   0.81070   0.04666   0.00000  Uiso   1.00
C698   C     0.48561   0.73572   0.25195   0.00000  Uiso   1.00
C699   C     0.50494   0.88976   0.45311   0.00000  Uiso   1.00
C700   C     0.52588   0.93504   0.02412   0.00000  Uiso   1.00
C701   C     0.44777   0.76106   0.47764   0.00000  Uiso   1.00
C702   C     0.48642   0.95518   0.14219   0.00000  Uiso   1.00
C703   C     0.51324   0.72730   0.35756   0.00000  Uiso   1.00
C704   C     0.52404   0.68510   0.04838   0.00000  Uiso   1.00
C705   C     0.54227   0.71807   0.08882   0.00000  Uiso   1.00
C706   C     0.39825   0.70712   0.43086   0.00000  Uiso   1.00
C707   C     0.39536   0.98576   0.41374   0.00000  Uiso   1.00
C708   C     0.59524   0.98361   0.44995   0.00000  Uiso   1.00
C709   C     0.52224   0.93454   0.47647   0.00000  Uiso   1.00
C710   C     0.34171   0.74920   0.04286   0.00000  Uiso   1.00
C711   C     0.61518   0.99724   0.23780   0.00000  Uiso   1.00
C712   C     0.40081   0.99711   0.29827   0.00000  Uiso   1.00
C713   C     0.64720   0.76561   0.17649   0.00000  Uiso   1.00
C714   C     0.34592   0.71999   0.15669   0.00000  Uiso   1.00
C715   C     0.34755   0.87149   0.33448   0.00000  Uiso   1.00
C716   C     0.64151   0.88590   0.37294   0.00000  Uiso   1.00
C717   C     0.43085   0.76932   0.02228   0.00000  Uiso   1.00
C718   C     0.52208   0.98508   0.25690   0.00000  Uiso   1.00
C719   C     0.47731   0.68203   0.25492   0.00000  Uiso   1.00
C720   C     0.50196   0.83412   0.33654   0.00000  Uiso   1.00
C721   C     0.49812   0.83656   0.16376   0.00000  Uiso   1.00
C722   C     0.45758   0.80950   0.09295   0.00000  Uiso   1.00
H723   H     0.43945   0.77828   0.11076   0.00000  Uiso   1.00
H724   H     0.53244   0.70690   0.01761   0.00000  Uiso   1.00
H725   H     0.57678   0.70042   0.10629   0.00000  Uiso   1.00
H726   H     0.55670   0.75626   0.07817   0.00000  Uiso   1.00
H727   H     0.50733   0.72207   0.11364   0.00000  Uiso   1.00
H728   H     0.40295   0.73224   0.40168   0.00000  Uiso   1.00
H729   H     0.35834   0.71596   0.44891   0.00000  Uiso   1.00
H730   H     0.36230   0.98115   0.38819   0.00000  Uiso   1.00
H731   H     0.38600   0.96041   0.44218   0.00000  Uiso   1.00
H732   H     0.43632   0.97495   0.39835   0.00000  Uiso   1.00
H733   H     0.60613   0.66942   0.41819   0.00000  Uiso   1.00
H734   H     0.51693   0.91782   0.38596   0.00000  Uiso   1.00
H735   H     0.61809   0.94733   0.45013   0.00000  Uiso   1.00
H736   H     0.61003   0.67521   0.47815   0.00000  Uiso   1.00
H737   H     0.66191   0.76232   0.00951   0.00000  Uiso   1.00
H738   H     0.64757   0.71638   0.05129   0.00000  Uiso   1.00
H739   H     0.33501   0.78008   0.06859   0.00000  Uiso   1.00
H740   H     0.59815   0.99788   0.20327   0.00000  Uiso   1.00
H741   H     0.63719   0.96121   0.24173   0.00000  Uiso   1.00
H742   H     0.64690   0.69479   0.24233   0.00000  Uiso   1.00
H743   H     0.39011   0.70285   0.30999   0.00000  Uiso   1.00
H744   H     0.43022   0.97986   0.32166   0.00000  Uiso   1.00
H745   H     0.45723   0.96932   0.11698   0.00000  Uiso   1.00
H746   H     0.36162   0.97398   0.29972   0.00000  Uiso   1.00
H747   H     0.63979   0.79253   0.14936   0.00000  Uiso   1.00
H748   H     0.60655   0.75187   0.19022   0.00000  Uiso   1.00
H749   H     0.37455   0.70454   0.18160   0.00000  Uiso   1.00
H750   H     0.65073   0.68893   0.14505   0.00000  Uiso   1.00
H751   H     0.37160   0.73066   0.12749   0.00000  Uiso   1.00
H752   H     0.38425   0.89810   0.33619   0.00000  Uiso   1.00
H753   H     0.35835   0.83133   0.34027   0.00000  Uiso   1.00
H754   H     0.61181   0.85402   0.37887   0.00000  Uiso   1.00
H755   H     0.66614   0.89138   0.40404   0.00000  Uiso   1.00
H756   H     0.50344   0.98815   0.16192   0.00000  Uiso   1.00
H757   H     0.61891   0.92098   0.36567   0.00000  Uiso   1.00
H758   H     0.46193   0.93144   0.16596   0.00000  Uiso   1.00
H759   H     0.47191   0.73727   0.34417   0.00000  Uiso   1.00
H760   H     0.51456   0.68533   0.35803   0.00000  Uiso   1.00
H761   H     0.54880   0.73979   0.33570   0.00000  Uiso   1.00
H762   H     0.47802   0.67710   0.05141   0.00000  Uiso   1.00
N763   N     0.65011   0.81932   0.23783   0.00000  Uiso   1.00
N764   N     0.34989   0.84735   0.26217   0.00000  Uiso   1.00
O765   O     0.46308   0.91286   0.25299   0.00000  Uiso   1.00
O766   O     0.52120   0.74642   0.40149   0.00000  Uiso   1.00
O767   O     0.55541   0.97363   0.04652   0.00000  Uiso   1.00
O768   O     0.44425   0.71225   0.45965   0.00000  Uiso   1.00
O769   O     0.53637   0.97713   0.45237   0.00000  Uiso   1.00
O770   O     0.39776   0.73301   0.04295   0.00000  Uiso   1.00
O771   O     0.57358   0.67109   0.27154   0.00000  Uiso   1.00
O772   O     0.42238   0.99659   0.25364   0.00000  Uiso   1.00
O773   O     0.34739   0.78922   0.20957   0.00000  Uiso   1.00
O774   O     0.65466   0.87582   0.29302   0.00000  Uiso   1.00
O775   O     0.53692   0.75381   0.24702   0.00000  Uiso   1.00
O776   O     0.55946   0.90387   0.24519   0.00000  Uiso   1.00
O777   O     0.44054   0.76279   0.25482   0.00000  Uiso   1.00
O778   O     0.45181   0.83784   0.31998   0.00000  Uiso   1.00
O779   O     0.54819   0.82883   0.18003   0.00000  Uiso   1.00
O780   O     0.54819   0.82885   0.31218   0.00000  Uiso   1.00
O781   O     0.45181   0.83781   0.18783   0.00000  Uiso   1.00
O782   O     0.53187   0.92898   0.12162   0.00000  Uiso   1.00
Zn783  Zn    0.43565   0.83933   0.25521   0.00000  Uiso   1.00
Zn784  Zn    0.56435   0.82734   0.24479   0.00000  Uiso   1.00
C785   C     0.84782   0.93103   0.25122   0.00000  Uiso   1.00
C786   C     0.84163   0.88489   0.40614   0.00000  Uiso   1.00
C787   C     0.82458   0.84436   0.11618   0.00000  Uiso   1.00
C788   C     0.83874   0.83652   0.38503   0.00000  Uiso   1.00
C789   C     0.84349   0.88913   0.09551   0.00000  Uiso   1.00
C790   C     0.82936   0.79291   0.41082   0.00000  Uiso   1.00
C791   C     0.83902   0.89253   0.04815   0.00000  Uiso   1.00
C792   C     0.80900   0.80047   0.45472   0.00000  Uiso   1.00
C793   C     0.81424   0.85096   0.02397   0.00000  Uiso   1.00
C794   C     0.81883   0.84776   0.47707   0.00000  Uiso   1.00
C795   C     0.78771   0.81070   0.04666   0.00000  Uiso   1.00
C796   C     0.81895   0.73572   0.25195   0.00000  Uiso   1.00
C797   C     0.83827   0.88976   0.45311   0.00000  Uiso   1.00
C798   C     0.85922   0.93504   0.02412   0.00000  Uiso   1.00
C799   C     0.78110   0.76106   0.47764   0.00000  Uiso   1.00
C800   C     0.81976   0.95518   0.14219   0.00000  Uiso   1.00
C801   C     0.84657   0.72730   0.35756   0.00000  Uiso   1.00
C802   C     0.85737   0.68510   0.04838   0.00000  Uiso   1.00
C803   C     0.87560   0.71807   0.08882   0.00000  Uiso   1.00
C804   C     0.73158   0.70712   0.43086   0.00000  Uiso   1.00
C805   C     0.72869   0.98576   0.41374   0.00000  Uiso   1.00
C806   C     0.92857   0.98361   0.44995   0.00000  Uiso   1.00
C807   C     0.85557   0.93454   0.47647   0.00000  Uiso   1.00
C808   C     0.67504   0.74920   0.04286   0.00000  Uiso   1.00
C809   C     0.94851   0.99724   0.23780   0.00000  Uiso   1.00
C810   C     0.73415   0.99711   0.29827   0.00000  Uiso   1.00
C811   C     0.98054   0.76561   0.17649   0.00000  Uiso   1.00
C812   C     0.67925   0.71999   0.15669   0.00000  Uiso   1.00
C813   C     0.68088   0.87149   0.33448   0.00000  Uiso   1.00
C814   C     0.97484   0.88590   0.37294   0.00000  Uiso   1.00
C815   C     0.76419   0.76932   0.02228   0.00000  Uiso   1.00
C816   C     0.85542   0.98508   0.25690   0.00000  Uiso   1.00
C817   C     0.81065   0.68203   0.25492   0.00000  Uiso   1.00
C818   C     0.83530   0.83412   0.33654   0.00000  Uiso   1.00
C819   C     0.83146   0.83656   0.16376   0.00000  Uiso   1.00
C820   C     0.79091   0.80950   0.09295   0.00000  Uiso   1.00
H821   H     0.77279   0.77828   0.11076   0.00000  Uiso   1.00
H822   H     0.86577   0.70690   0.01761   0.00000  Uiso   1.00
H823   H     0.91011   0.70042   0.10629   0.00000  Uiso   1.00
H824   H     0.89004   0.75626   0.07817   0.00000  Uiso   1.00
H825   H     0.84067   0.72207   0.11364   0.00000  Uiso   1.00
H826   H     0.73628   0.73224   0.40168   0.00000  Uiso   1.00
H827   H     0.69167   0.71596   0.44891   0.00000  Uiso   1.00
H828   H     0.69563   0.98115   0.38819   0.00000  Uiso   1.00
H829   H     0.71933   0.96041   0.44218   0.00000  Uiso   1.00
H830   H     0.76965   0.97495   0.39835   0.00000  Uiso   1.00
H831   H     0.93946   0.66942   0.41819   0.00000  Uiso   1.00
H832   H     0.85027   0.91782   0.38596   0.00000  Uiso   1.00
H833   H     0.95143   0.94733   0.45013   0.00000  Uiso   1.00
H834   H     0.94336   0.67521   0.47815   0.00000  Uiso   1.00
H835   H     0.99525   0.76232   0.00951   0.00000  Uiso   1.00
H836   H     0.98090   0.71638   0.05129   0.00000  Uiso   1.00
H837   H     0.66834   0.78008   0.06859   0.00000  Uiso   1.00
H838   H     0.93149   0.99788   0.20327   0.00000  Uiso   1.00
H839   H     0.97052   0.96121   0.24173   0.00000  Uiso   1.00
H840   H     0.98024   0.69479   0.24233   0.00000  Uiso   1.00
H841   H     0.72345   0.70285   0.30999   0.00000  Uiso   1.00
H842   H     0.76356   0.97986   0.32166   0.00000  Uiso   1.00
H843   H     0.79056   0.96932   0.11698   0.00000  Uiso   1.00
H844   H     0.69496   0.97398   0.29972   0.00000  Uiso   1.00
H845   H     0.97312   0.79253   0.14936   0.00000  Uiso   1.00
H846   H     0.93989   0.75187   0.19022   0.00000  Uiso   1.00
H847   H     0.70788   0.70454   0.18160   0.00000  Uiso   1.00
H848   H     0.98406   0.68893   0.14505   0.00000  Uiso   1.00
H849   H     0.70493   0.73066   0.12749   0.00000  Uiso   1.00
H850   H     0.71758   0.89810   0.33619   0.00000  Uiso   1.00
H851   H     0.69168   0.83133   0.34027   0.00000  Uiso   1.00
H852   H     0.94514   0.85402   0.37887   0.00000  Uiso   1.00
H853   H     0.99948   0.89138   0.40404   0.00000  Uiso   1.00
H854   H     0.83677   0.98815   0.16192   0.00000  Uiso   1.00
H855   H     0.95224   0.92098   0.36567   0.00000  Uiso   1.00
H856   H     0.79527   0.93144   0.16596   0.00000  Uiso   1.00
H857   H     0.80525   0.73727   0.34417   0.00000  Uiso   1.00
H858   H     0.84789   0.68533   0.35803   0.00000  Uiso   1.00
H859   H     0.88213   0.73979   0.33570   0.00000  Uiso   1.00
H860   H     0.81136   0.67710   0.05141   0.00000  Uiso   1.00
N861   N     0.98344   0.81932   0.23783   0.00000  Uiso   1.00
N862   N     0.68322   0.84735   0.26217   0.00000  Uiso   1.00
O863   O     0.79642   0.91286   0.25299   0.00000  Uiso   1.00
O864   O     0.85454   0.74642   0.40149   0.00000  Uiso   1.00
O865   O     0.88874   0.97363   0.04652   0.00000  Uiso   1.00
O866   O     0.77759   0.71225   0.45965   0.00000  Uiso   1.00
O867   O     0.86971   0.97713   0.45237   0.00000  Uiso   1.00
O868   O     0.73110   0.73301   0.04295   0.00000  Uiso   1.00
O869   O     0.90692   0.67109   0.27154   0.00000  Uiso   1.00
O870   O     0.75571   0.99659   0.25364   0.00000  Uiso   1.00
O871   O     0.68073   0.78922   0.20957   0.00000  Uiso   1.00
O872   O     0.98800   0.87582   0.29302   0.00000  Uiso   1.00
O873   O     0.87025   0.75381   0.24702   0.00000  Uiso   1.00
O874   O     0.89280   0.90387   0.24519   0.00000  Uiso   1.00
O875   O     0.77387   0.76279   0.25482   0.00000  Uiso   1.00
O876   O     0.78514   0.83784   0.31998   0.00000  Uiso   1.00
O877   O     0.88153   0.82883   0.18003   0.00000  Uiso   1.00
O878   O     0.88152   0.82885   0.31218   0.00000  Uiso   1.00
O879   O     0.78515   0.83781   0.18783   0.00000  Uiso   1.00
O880   O     0.86520   0.92898   0.12162   0.00000  Uiso   1.00
Zn881  Zn    0.76898   0.83933   0.25521   0.00000  Uiso   1.00
Zn882  Zn    0.89769   0.82734   0.24479   0.00000  Uiso   1.00
C883   C     0.18116   0.26436   0.75122   0.00000  Uiso   1.00
C884   C     0.17497   0.21823   0.90614   0.00000  Uiso   1.00
C885   C     0.15792   0.17769   0.61618   0.00000  Uiso   1.00
C886   C     0.17207   0.16985   0.88503   0.00000  Uiso   1.00
C887   C     0.17682   0.22246   0.59551   0.00000  Uiso   1.00
C888   C     0.16269   0.12624   0.91082   0.00000  Uiso   1.00
C889   C     0.17235   0.22587   0.54815   0.00000  Uiso   1.00
C890   C     0.14233   0.13380   0.95472   0.00000  Uiso   1.00
C891   C     0.14758   0.18430   0.52397   0.00000  Uiso   1.00
C892   C     0.15217   0.18109   0.97707   0.00000  Uiso   1.00
C893   C     0.12104   0.14403   0.54666   0.00000  Uiso   1.00
C894   C     0.15228   0.06906   0.75195   0.00000  Uiso   1.00
C895   C     0.17161   0.22309   0.95311   0.00000  Uiso   1.00
C896   C     0.19255   0.26837   0.52412   0.00000  Uiso   1.00
C897   C     0.11444   0.09439   0.97764   0.00000  Uiso   1.00
C898   C     0.15309   0.28852   0.64219   0.00000  Uiso   1.00
C899   C     0.17991   0.06063   0.85756   0.00000  Uiso   1.00
C900   C     0.19071   0.01843   0.54838   0.00000  Uiso   1.00
C901   C     0.20893   0.05140   0.58882   0.00000  Uiso   1.00
C902   C     0.06492   0.04045   0.93086   0.00000  Uiso   1.00
C903   C     0.06203   0.31910   0.91374   0.00000  Uiso   1.00
C904   C     0.26191   0.31694   0.94995   0.00000  Uiso   1.00
C905   C     0.18890   0.26787   0.97647   0.00000  Uiso   1.00
C906   C     0.00838   0.08253   0.54286   0.00000  Uiso   1.00
C907   C     0.28185   0.33058   0.73780   0.00000  Uiso   1.00
C908   C     0.06748   0.33045   0.79827   0.00000  Uiso   1.00
C909   C     0.31387   0.09894   0.67649   0.00000  Uiso   1.00
C910   C     0.01259   0.05332   0.65669   0.00000  Uiso   1.00
C911   C     0.01421   0.20482   0.83448   0.00000  Uiso   1.00
C912   C     0.30817   0.21923   0.87294   0.00000  Uiso   1.00
C913   C     0.09752   0.10266   0.52228   0.00000  Uiso   1.00
C914   C     0.18875   0.31842   0.75690   0.00000  Uiso   1.00
C915   C     0.14398   0.01537   0.75492   0.00000  Uiso   1.00
C916   C     0.16863   0.16746   0.83654   0.00000  Uiso   1.00
C917   C     0.16479   0.16990   0.66376   0.00000  Uiso   1.00
C918   C     0.12424   0.14283   0.59295   0.00000  Uiso   1.00
H919   H     0.10612   0.11161   0.61076   0.00000  Uiso   1.00
H920   H     0.19911   0.04023   0.51761   0.00000  Uiso   1.00
H921   H     0.24344   0.03376   0.60629   0.00000  Uiso   1.00
H922   H     0.22337   0.08959   0.57817   0.00000  Uiso   1.00
H923   H     0.17400   0.05541   0.61364   0.00000  Uiso   1.00
H924   H     0.06962   0.06557   0.90168   0.00000  Uiso   1.00
H925   H     0.02500   0.04929   0.94891   0.00000  Uiso   1.00
H926   H     0.02896   0.31448   0.88819   0.00000  Uiso   1.00
H927   H     0.05266   0.29374   0.94218   0.00000  Uiso   1.00
H928   H     0.10298   0.30828   0.89835   0.00000  Uiso   1.00
H929   H     0.27280   0.00275   0.91819   0.00000  Uiso   1.00
H930   H     0.18360   0.25115   0.88596   0.00000  Uiso   1.00
H931   H     0.28476   0.28066   0.95013   0.00000  Uiso   1.00
H932   H     0.27670   0.00855   0.97815   0.00000  Uiso   1.00
H933   H     0.32858   0.09566   0.50951   0.00000  Uiso   1.00
H934   H     0.31423   0.04971   0.55129   0.00000  Uiso   1.00
H935   H     0.00168   0.11342   0.56859   0.00000  Uiso   1.00
H936   H     0.26482   0.33121   0.70327   0.00000  Uiso   1.00
H937   H     0.30386   0.29454   0.74173   0.00000  Uiso   1.00
H938   H     0.31357   0.02812   0.74233   0.00000  Uiso   1.00
H939   H     0.05678   0.03619   0.80999   0.00000  Uiso   1.00
H940   H     0.09689   0.31320   0.82166   0.00000  Uiso   1.00
H941   H     0.12390   0.30266   0.61698   0.00000  Uiso   1.00
H942   H     0.02829   0.30731   0.79972   0.00000  Uiso   1.00
H943   H     0.30645   0.12586   0.64936   0.00000  Uiso   1.00
H944   H     0.27322   0.08521   0.69022   0.00000  Uiso   1.00
H945   H     0.04122   0.03787   0.68160   0.00000  Uiso   1.00
H946   H     0.31740   0.02226   0.64505   0.00000  Uiso   1.00
H947   H     0.03826   0.06399   0.62749   0.00000  Uiso   1.00
H948   H     0.05092   0.23143   0.83619   0.00000  Uiso   1.00
H949   H     0.02501   0.16467   0.84027   0.00000  Uiso   1.00
H950   H     0.27848   0.18735   0.87887   0.00000  Uiso   1.00
H951   H     0.33281   0.22471   0.90404   0.00000  Uiso   1.00
H952   H     0.17010   0.32149   0.66192   0.00000  Uiso   1.00
H953   H     0.28558   0.25432   0.86567   0.00000  Uiso   1.00
H954   H     0.12860   0.26477   0.66596   0.00000  Uiso   1.00
H955   H     0.13858   0.07060   0.84417   0.00000  Uiso   1.00
H956   H     0.18123   0.01867   0.85803   0.00000  Uiso   1.00
H957   H     0.21546   0.07312   0.83570   0.00000  Uiso   1.00
H958   H     0.14469   0.01044   0.55141   0.00000  Uiso   1.00
N959   N     0.31678   0.15265   0.73783   0.00000  Uiso   1.00
N960   N     0.01656   0.18068   0.76217   0.00000  Uiso   1.00
O961   O     0.12975   0.24619   0.75299   0.00000  Uiso   1.00
O962   O     0.18787   0.07976   0.90149   0.00000  Uiso   1.00
O963   O     0.22207   0.30697   0.54652   0.00000  Uiso   1.00
O964   O     0.11092   0.04559   0.95965   0.00000  Uiso   1.00
O965   O     0.20304   0.31046   0.95237   0.00000  Uiso   1.00
O966   O     0.06443   0.06635   0.54295   0.00000  Uiso   1.00
O967   O     0.24025   0.00442   0.77154   0.00000  Uiso   1.00
O968   O     0.08904   0.32993   0.75364   0.00000  Uiso   1.00
O969   O     0.01406   0.12255   0.70957   0.00000  Uiso   1.00
O970   O     0.32133   0.20915   0.79302   0.00000  Uiso   1.00
O971   O     0.20358   0.08714   0.74702   0.00000  Uiso   1.00
O972   O     0.22613   0.23721   0.74519   0.00000  Uiso   1.00
O973   O     0.10720   0.09613   0.75482   0.00000  Uiso   1.00
O974   O     0.11847   0.17117   0.81998   0.00000  Uiso   1.00
O975   O     0.21486   0.16216   0.68003   0.00000  Uiso   1.00
O976   O     0.21485   0.16219   0.81218   0.00000  Uiso   1.00
O977   O     0.11848   0.17115   0.68783   0.00000  Uiso   1.00
O978   O     0.19854   0.26232   0.62162   0.00000  Uiso   1.00
Zn979  Zn    0.10231   0.17266   0.75521   0.00000  Uiso   1.00
Zn980  Zn    0.23102   0.16067   0.74479   0.00000  Uiso   1.00
C981   C     0.51449   0.26436   0.75122   0.00000  Uiso   1.00
C982   C     0.50830   0.21823   0.90614   0.00000  Uiso   1.00
C983   C     0.49125   0.17769   0.61618   0.00000  Uiso   1.00
C984   C     0.50541   0.16985   0.88503   0.00000  Uiso   1.00
C985   C     0.51016   0.22246   0.59551   0.00000  Uiso   1.00
C986   C     0.49602   0.12624   0.91082   0.00000  Uiso   1.00
C987   C     0.50569   0.22587   0.54815   0.00000  Uiso   1.00
C988   C     0.47566   0.13380   0.95472   0.00000  Uiso   1.00
C989   C     0.48091   0.18430   0.52397   0.00000  Uiso   1.00
C990   C     0.48550   0.18109   0.97707   0.00000  Uiso   1.00
C991   C     0.45438   0.14403   0.54666   0.00000  Uiso   1.00
C992   C     0.48561   0.06906   0.75195   0.00000  Uiso   1.00
C993   C     0.50494   0.22309   0.95311   0.00000  Uiso   1.00
C994   C     0.52588   0.26837   0.52412   0.00000  Uiso   1.00
C995   C     0.44777   0.09439   0.97764   0.00000  Uiso   1.00
C996   C     0.48642   0.28852   0.64219   0.00000  Uiso   1.00
C997   C     0.51324   0.06063   0.85756   0.00000  Uiso   1.00
C998   C     0.52404   0.01843   0.54838   0.00000  Uiso   1.00
C999   C     0.54227   0.05140   0.58882   0.00000  Uiso   1.00
C1000  C     0.39825   0.04045   0.93086   0.00000  Uiso   1.00
C1001  C     0.39536   0.31910   0.91374   0.00000  Uiso   1.00
C1002  C     0.59524   0.31694   0.94995   0.00000  Uiso   1.00
C1003  C     0.52224   0.26787   0.97647   0.00000  Uiso   1.00
C1004  C     0.34171   0.08253   0.54286   0.00000  Uiso   1.00
C1005  C     0.61518   0.33058   0.73780   0.00000  Uiso   1.00
C1006  C     0.40081   0.33045   0.79827   0.00000  Uiso   1.00
C1007  C     0.64720   0.09894   0.67649   0.00000  Uiso   1.00
C1008  C     0.34592   0.05332   0.65669   0.00000  Uiso   1.00
C1009  C     0.34755   0.20482   0.83448   0.00000  Uiso   1.00
C1010  C     0.64151   0.21923   0.87294   0.00000  Uiso   1.00
C1011  C     0.43085   0.10266   0.52228   0.00000  Uiso   1.00
C1012  C     0.52208   0.31842   0.75690   0.00000  Uiso   1.00
C1013  C     0.47731   0.01537   0.75492   0.00000  Uiso   1.00
C1014  C     0.50196   0.16746   0.83654   0.00000  Uiso   1.00
C1015  C     0.49812   0.16990   0.66376   0.00000  Uiso   1.00
C1016  C     0.45758   0.14283   0.59295   0.00000  Uiso   1.00
H1017  H     0.43945   0.11161   0.61076   0.00000  Uiso   1.00
H1018  H     0.53244   0.04023   0.51761   0.00000  Uiso   1.00
H1019  H     0.57678   0.03376   0.60629   0.00000  Uiso   1.00
H1020  H     0.55670   0.08959   0.57817   0.00000  Uiso   1.00
H1021  H     0.50733   0.05541   0.61364   0.00000  Uiso   1.00
H1022  H     0.40295   0.06557   0.90168   0.00000  Uiso   1.00
H1023  H     0.35834   0.04929   0.94891   0.00000  Uiso   1.00
H1024  H     0.36230   0.31448   0.88819   0.00000  Uiso   1.00
H1025  H     0.38600   0.29374   0.94218   0.00000  Uiso   1.00
H1026  H     0.43632   0.30828   0.89835   0.00000  Uiso   1.00
H1027  H     0.60613   0.00275   0.91819   0.00000  Uiso   1.00
H1028  H     0.51693   0.25115   0.88596   0.00000  Uiso   1.00
H1029  H     0.61809   0.28066   0.95013   0.00000  Uiso   1.00
H1030  H     0.61003   0.00855   0.97815   0.00000  Uiso   1.00
H1031  H     0.66191   0.09566   0.50951   0.00000  Uiso   1.00
H1032  H     0.64757   0.04971   0.55129   0.00000  Uiso   1.00
H1033  H     0.33501   0.11342   0.56859   0.00000  Uiso   1.00
H1034  H     0.59815   0.33121   0.70327   0.00000  Uiso   1.00
H1035  H     0.63719   0.29454   0.74173   0.00000  Uiso   1.00
H1036  H     0.64690   0.02812   0.74233   0.00000  Uiso   1.00
H1037  H     0.39011   0.03619   0.80999   0.00000  Uiso   1.00
H1038  H     0.43022   0.31320   0.82166   0.00000  Uiso   1.00
H1039  H     0.45723   0.30266   0.61698   0.00000  Uiso   1.00
H1040  H     0.36162   0.30731   0.79972   0.00000  Uiso   1.00
H1041  H     0.63979   0.12586   0.64936   0.00000  Uiso   1.00
H1042  H     0.60655   0.08521   0.69022   0.00000  Uiso   1.00
H1043  H     0.37455   0.03787   0.68160   0.00000  Uiso   1.00
H1044  H     0.65073   0.02226   0.64505   0.00000  Uiso   1.00
H1045  H     0.37160   0.06399   0.62749   0.00000  Uiso   1.00
H1046  H     0.38425   0.23143   0.83619   0.00000  Uiso   1.00
H1047  H     0.35835   0.16467   0.84027   0.00000  Uiso   1.00
H1048  H     0.61181   0.18735   0.87887   0.00000  Uiso   1.00
H1049  H     0.66614   0.22471   0.90404   0.00000  Uiso   1.00
H1050  H     0.50344   0.32149   0.66192   0.00000  Uiso   1.00
H1051  H     0.61891   0.25432   0.86567   0.00000  Uiso   1.00
H1052  H     0.46193   0.26477   0.66596   0.00000  Uiso   1.00
H1053  H     0.47191   0.07060   0.84417   0.00000  Uiso   1.00
H1054  H     0.51456   0.01867   0.85803   0.00000  Uiso   1.00
H1055  H     0.54880   0.07312   0.83570   0.00000  Uiso   1.00
H1056  H     0.47802   0.01044   0.55141   0.00000  Uiso   1.00
N1057  N     0.65011   0.15265   0.73783   0.00000  Uiso   1.00
N1058  N     0.34989   0.18068   0.76217   0.00000  Uiso   1.00
O1059  O     0.46308   0.24619   0.75299   0.00000  Uiso   1.00
O1060  O     0.52120   0.07976   0.90149   0.00000  Uiso   1.00
O1061  O     0.55541   0.30697   0.54652   0.00000  Uiso   1.00
O1062  O     0.44425   0.04559   0.95965   0.00000  Uiso   1.00
O1063  O     0.53637   0.31046   0.95237   0.00000  Uiso   1.00
O1064  O     0.39776   0.06635   0.54295   0.00000  Uiso   1.00
O1065  O     0.57358   0.00442   0.77154   0.00000  Uiso   1.00
O1066  O     0.42238   0.32993   0.75364   0.00000  Uiso   1.00
O1067  O     0.34739   0.12255   0.70957   0.00000  Uiso   1.00
O1068  O     0.65466   0.20915   0.79302   0.00000  Uiso   1.00
O1069  O     0.53692   0.08714   0.74702   0.00000  Uiso   1.00
O1070  O     0.55946   0.23721   0.74519   0.00000  Uiso   1.00
O1071  O     0.44054   0.09613   0.75482   0.00000  Uiso   1.00
O1072  O     0.45181   0.17117   0.81998   0.00000  Uiso   1.00
O1073  O     0.54819   0.16216   0.68003   0.00000  Uiso   1.00
O1074  O     0.54819   0.16219   0.81218   0.00000  Uiso   1.00
O1075  O     0.45181   0.17115   0.68783   0.00000  Uiso   1.00
O1076  O     0.53187   0.26232   0.62162   0.00000  Uiso   1.00
Zn1077 Zn    0.43565   0.17266   0.75521   0.00000  Uiso   1.00
Zn1078 Zn    0.56435   0.16067   0.74479   0.00000  Uiso   1.00
C1079  C     0.84782   0.26436   0.75122   0.00000  Uiso   1.00
C1080  C     0.84163   0.21823   0.90614   0.00000  Uiso   1.00
C1081  C     0.82458   0.17769   0.61618   0.00000  Uiso   1.00
C1082  C     0.83874   0.16985   0.88503   0.00000  Uiso   1.00
C1083  C     0.84349   0.22246   0.59551   0.00000  Uiso   1.00
C1084  C     0.82936   0.12624   0.91082   0.00000  Uiso   1.00
C1085  C     0.83902   0.22587   0.54815   0.00000  Uiso   1.00
C1086  C     0.80900   0.13380   0.95472   0.00000  Uiso   1.00
C1087  C     0.81424   0.18430   0.52397   0.00000  Uiso   1.00
C1088  C     0.81883   0.18109   0.97707   0.00000  Uiso   1.00
C1089  C     0.78771   0.14403   0.54666   0.00000  Uiso   1.00
C1090  C     0.81895   0.06906   0.75195   0.00000  Uiso   1.00
C1091  C     0.83827   0.22309   0.95311   0.00000  Uiso   1.00
C1092  C     0.85922   0.26837   0.52412   0.00000  Uiso   1.00
C1093  C     0.78110   0.09439   0.97764   0.00000  Uiso   1.00
C1094  C     0.81976   0.28852   0.64219   0.00000  Uiso   1.00
C1095  C     0.84657   0.06063   0.85756   0.00000  Uiso   1.00
C1096  C     0.85737   0.01843   0.54838   0.00000  Uiso   1.00
C1097  C     0.87560   0.05140   0.58882   0.00000  Uiso   1.00
C1098  C     0.73158   0.04045   0.93086   0.00000  Uiso   1.00
C1099  C     0.72869   0.31910   0.91374   0.00000  Uiso   1.00
C1100  C     0.92857   0.31694   0.94995   0.00000  Uiso   1.00
C1101  C     0.85557   0.26787   0.97647   0.00000  Uiso   1.00
C1102  C     0.67504   0.08253   0.54286   0.00000  Uiso   1.00
C1103  C     0.94851   0.33058   0.73780   0.00000  Uiso   1.00
C1104  C     0.73415   0.33045   0.79827   0.00000  Uiso   1.00
C1105  C     0.98054   0.09894   0.67649   0.00000  Uiso   1.00
C1106  C     0.67925   0.05332   0.65669   0.00000  Uiso   1.00
C1107  C     0.68088   0.20482   0.83448   0.00000  Uiso   1.00
C1108  C     0.97484   0.21923   0.87294   0.00000  Uiso   1.00
C1109  C     0.76419   0.10266   0.52228   0.00000  Uiso   1.00
C1110  C     0.85542   0.31842   0.75690   0.00000  Uiso   1.00
C1111  C     0.81065   0.01537   0.75492   0.00000  Uiso   1.00
C1112  C     0.83530   0.16746   0.83654   0.00000  Uiso   1.00
C1113  C     0.83146   0.16990   0.66376   0.00000  Uiso   1.00
C1114  C     0.79091   0.14283   0.59295   0.00000  Uiso   1.00
H1115  H     0.77279   0.11161   0.61076   0.00000  Uiso   1.00
H1116  H     0.86577   0.04023   0.51761   0.00000  Uiso   1.00
H1117  H     0.91011   0.03376   0.60629   0.00000  Uiso   1.00
H1118  H     0.89004   0.08959   0.57817   0.00000  Uiso   1.00
H1119  H     0.84067   0.05541   0.61364   0.00000  Uiso   1.00
H1120  H     0.73628   0.06557   0.90168   0.00000  Uiso   1.00
H1121  H     0.69167   0.04929   0.94891   0.00000  Uiso   1.00
H1122  H     0.69563   0.31448   0.88819   0.00000  Uiso   1.00
H1123  H     0.71933   0.29374   0.94218   0.00000  Uiso   1.00
H1124  H     0.76965   0.30828   0.89835   0.00000  Uiso   1.00
H1125  H     0.93946   0.00275   0.91819   0.00000  Uiso   1.00
H1126  H     0.85027   0.25115   0.88596   0.00000  Uiso   1.00
H1127  H     0.95143   0.28066   0.95013   0.00000  Uiso   1.00
H1128  H     0.94336   0.00855   0.97815   0.00000  Uiso   1.00
H1129  H     0.99525   0.09566   0.50951   0.00000  Uiso   1.00
H1130  H     0.98090   0.04971   0.55129   0.00000  Uiso   1.00
H1131  H     0.66834   0.11342   0.56859   0.00000  Uiso   1.00
H1132  H     0.93149   0.33121   0.70327   0.00000  Uiso   1.00
H1133  H     0.97052   0.29454   0.74173   0.00000  Uiso   1.00
H1134  H     0.98024   0.02812   0.74233   0.00000  Uiso   1.00
H1135  H     0.72345   0.03619   0.80999   0.00000  Uiso   1.00
H1136  H     0.76356   0.31320   0.82166   0.00000  Uiso   1.00
H1137  H     0.79056   0.30266   0.61698   0.00000  Uiso   1.00
H1138  H     0.69496   0.30731   0.79972   0.00000  Uiso   1.00
H1139  H     0.97312   0.12586   0.64936   0.00000  Uiso   1.00
H1140  H     0.93989   0.08521   0.69022   0.00000  Uiso   1.00
H1141  H     0.70788   0.03787   0.68160   0.00000  Uiso   1.00
H1142  H     0.98406   0.02226   0.64505   0.00000  Uiso   1.00
H1143  H     0.70493   0.06399   0.62749   0.00000  Uiso   1.00
H1144  H     0.71758   0.23143   0.83619   0.00000  Uiso   1.00
H1145  H     0.69168   0.16467   0.84027   0.00000  Uiso   1.00
H1146  H     0.94514   0.18735   0.87887   0.00000  Uiso   1.00
H1147  H     0.99948   0.22471   0.90404   0.00000  Uiso   1.00
H1148  H     0.83677   0.32149   0.66192   0.00000  Uiso   1.00
H1149  H     0.95224   0.25432   0.86567   0.00000  Uiso   1.00
H1150  H     0.79527   0.26477   0.66596   0.00000  Uiso   1.00
H1151  H     0.80525   0.07060   0.84417   0.00000  Uiso   1.00
H1152  H     0.84789   0.01867   0.85803   0.00000  Uiso   1.00
H1153  H     0.88213   0.07312   0.83570   0.00000  Uiso   1.00
H1154  H     0.81136   0.01044   0.55141   0.00000  Uiso   1.00
N1155  N     0.98344   0.15265   0.73783   0.00000  Uiso   1.00
N1156  N     0.68322   0.18068   0.76217   0.00000  Uiso   1.00
O1157  O     0.79642   0.24619   0.75299   0.00000  Uiso   1.00
O1158  O     0.85454   0.07976   0.90149   0.00000  Uiso   1.00
O1159  O     0.88874   0.30697   0.54652   0.00000  Uiso   1.00
O1160  O     0.77759   0.04559   0.95965   0.00000  Uiso   1.00
O1161  O     0.86971   0.31046   0.95237   0.00000  Uiso   1.00
O1162  O     0.73110   0.06635   0.54295   0.00000  Uiso   1.00
O1163  O     0.90692   0.00442   0.77154   0.00000  Uiso   1.00
O1164  O     0.75571   0.32993   0.75364   0.00000  Uiso   1.00
O1165  O     0.68073   0.12255   0.70957   0.00000  Uiso   1.00
O1166  O     0.98800   0.20915   0.79302   0.00000  Uiso   1.00
O1167  O     0.87025   0.08714   0.74702   0.00000  Uiso   1.00
O1168  O     0.89280   0.23721   0.74519   0.00000  Uiso   1.00
O1169  O     0.77387   0.09613   0.75482   0.00000  Uiso   1.00
O1170  O     0.78514   0.17117   0.81998   0.00000  Uiso   1.00
O1171  O     0.88153   0.16216   0.68003   0.00000  Uiso   1.00
O1172  O     0.88152   0.16219   0.81218   0.00000  Uiso   1.00
O1173  O     0.78515   0.17115   0.68783   0.00000  Uiso   1.00
O1174  O     0.86520   0.26232   0.62162   0.00000  Uiso   1.00
Zn1175 Zn    0.76898   0.17266   0.75521   0.00000  Uiso   1.00
Zn1176 Zn    0.89769   0.16067   0.74479   0.00000  Uiso   1.00
C1177  C     0.18116   0.59770   0.75122   0.00000  Uiso   1.00
C1178  C     0.17497   0.55156   0.90614   0.00000  Uiso   1.00
C1179  C     0.15792   0.51103   0.61618   0.00000  Uiso   1.00
C1180  C     0.17207   0.50319   0.88503   0.00000  Uiso   1.00
C1181  C     0.17682   0.55579   0.59551   0.00000  Uiso   1.00
C1182  C     0.16269   0.45958   0.91082   0.00000  Uiso   1.00
C1183  C     0.17235   0.55920   0.54815   0.00000  Uiso   1.00
C1184  C     0.14233   0.46713   0.95472   0.00000  Uiso   1.00
C1185  C     0.14758   0.51763   0.52397   0.00000  Uiso   1.00
C1186  C     0.15217   0.51442   0.97707   0.00000  Uiso   1.00
C1187  C     0.12104   0.47736   0.54666   0.00000  Uiso   1.00
C1188  C     0.15228   0.40239   0.75195   0.00000  Uiso   1.00
C1189  C     0.17161   0.55642   0.95311   0.00000  Uiso   1.00
C1190  C     0.19255   0.60170   0.52412   0.00000  Uiso   1.00
C1191  C     0.11444   0.42772   0.97764   0.00000  Uiso   1.00
C1192  C     0.15309   0.62185   0.64219   0.00000  Uiso   1.00
C1193  C     0.17991   0.39397   0.85756   0.00000  Uiso   1.00
C1194  C     0.19071   0.35177   0.54838   0.00000  Uiso   1.00
C1195  C     0.20893   0.38473   0.58882   0.00000  Uiso   1.00
C1196  C     0.06492   0.37379   0.93086   0.00000  Uiso   1.00
C1197  C     0.06203   0.65243   0.91374   0.00000  Uiso   1.00
C1198  C     0.26191   0.65027   0.94995   0.00000  Uiso   1.00
C1199  C     0.18890   0.60121   0.97647   0.00000  Uiso   1.00
C1200  C     0.00838   0.41587   0.54286   0.00000  Uiso   1.00
C1201  C     0.28185   0.66391   0.73780   0.00000  Uiso   1.00
C1202  C     0.06748   0.66378   0.79827   0.00000  Uiso   1.00
C1203  C     0.31387   0.43228   0.67649   0.00000  Uiso   1.00
C1204  C     0.01259   0.38665   0.65669   0.00000  Uiso   1.00
C1205  C     0.01421   0.53816   0.83448   0.00000  Uiso   1.00
C1206  C     0.30817   0.55257   0.87294   0.00000  Uiso   1.00
C1207  C     0.09752   0.43599   0.52228   0.00000  Uiso   1.00
C1208  C     0.18875   0.65175   0.75690   0.00000  Uiso   1.00
C1209  C     0.14398   0.34870   0.75492   0.00000  Uiso   1.00
C1210  C     0.16863   0.50079   0.83654   0.00000  Uiso   1.00
C1211  C     0.16479   0.50323   0.66376   0.00000  Uiso   1.00
C1212  C     0.12424   0.47617   0.59295   0.00000  Uiso   1.00
H1213  H     0.10612   0.44494   0.61076   0.00000  Uiso   1.00
H1214  H     0.19911   0.37356   0.51761   0.00000  Uiso   1.00
H1215  H     0.24344   0.36709   0.60629   0.00000  Uiso   1.00
H1216  H     0.22337   0.42292   0.57817   0.00000  Uiso   1.00
H1217  H     0.17400   0.38874   0.61364   0.00000  Uiso   1.00
H1218  H     0.06962   0.39890   0.90168   0.00000  Uiso   1.00
H1219  H     0.02500   0.38263   0.94891   0.00000  Uiso   1.00
H1220  H     0.02896   0.64782   0.88819   0.00000  Uiso   1.00
H1221  H     0.05266   0.62707   0.94218   0.00000  Uiso   1.00
H1222  H     0.10298   0.64161   0.89835   0.00000  Uiso   1.00
H1223  H     0.27280   0.33609   0.91819   0.00000  Uiso   1.00
H1224  H     0.18360   0.58448   0.88596   0.00000  Uiso   1.00
H1225  H     0.28476   0.61400   0.95013   0.00000  Uiso   1.00
H1226  H     0.27670   0.34188   0.97815   0.00000  Uiso   1.00
H1227  H     0.32858   0.42899   0.50951   0.00000  Uiso   1.00
H1228  H     0.31423   0.38305   0.55129   0.00000  Uiso   1.00
H1229  H     0.00168   0.44675   0.56859   0.00000  Uiso   1.00
H1230  H     0.26482   0.66455   0.70327   0.00000  Uiso   1.00
H1231  H     0.30386   0.62788   0.74173   0.00000  Uiso   1.00
H1232  H     0.31357   0.36145   0.74233   0.00000  Uiso   1.00
H1233  H     0.05678   0.36952   0.80999   0.00000  Uiso   1.00
H1234  H     0.09689   0.64653   0.82166   0.00000  Uiso   1.00
H1235  H     0.12390   0.63599   0.61698   0.00000  Uiso   1.00
H1236  H     0.02829   0.64065   0.79972   0.00000  Uiso   1.00
H1237  H     0.30645   0.45919   0.64936   0.00000  Uiso   1.00
H1238  H     0.27322   0.41854   0.69022   0.00000  Uiso   1.00
H1239  H     0.04122   0.37120   0.68160   0.00000  Uiso   1.00
H1240  H     0.31740   0.35559   0.64505   0.00000  Uiso   1.00
H1241  H     0.03826   0.39732   0.62749   0.00000  Uiso   1.00
H1242  H     0.05092   0.56476   0.83619   0.00000  Uiso   1.00
H1243  H     0.02501   0.49800   0.84027   0.00000  Uiso   1.00
H1244  H     0.27848   0.52068   0.87887   0.00000  Uiso   1.00
H1245  H     0.33281   0.55805   0.90404   0.00000  Uiso   1.00
H1246  H     0.17010   0.65482   0.66192   0.00000  Uiso   1.00
H1247  H     0.28558   0.58765   0.86567   0.00000  Uiso   1.00
H1248  H     0.12860   0.59811   0.66596   0.00000  Uiso   1.00
H1249  H     0.13858   0.40393   0.84417   0.00000  Uiso   1.00
H1250  H     0.18123   0.35200   0.85803   0.00000  Uiso   1.00
H1251  H     0.21546   0.40646   0.83570   0.00000  Uiso   1.00
H1252  H     0.14469   0.34377   0.55141   0.00000  Uiso   1.00
N1253  N     0.31678   0.48598   0.73783   0.00000  Uiso   1.00
N1254  N     0.01656   0.51402   0.76217   0.00000  Uiso   1.00
O1255  O     0.12975   0.57952   0.75299   0.00000  Uiso   1.00
O1256  O     0.18787   0.41309   0.90149   0.00000  Uiso   1.00
O1257  O     0.22207   0.64030   0.54652   0.00000  Uiso   1.00
O1258  O     0.11092   0.37892   0.95965   0.00000  Uiso   1.00
O1259  O     0.20304   0.64380   0.95237   0.00000  Uiso   1.00
O1260  O     0.06443   0.39968   0.54295   0.00000  Uiso   1.00
O1261  O     0.24025   0.33775   0.77154   0.00000  Uiso   1.00
O1262  O     0.08904   0.66326   0.75364   0.00000  Uiso   1.00
O1263  O     0.01406   0.45588   0.70957   0.00000  Uiso   1.00
O1264  O     0.32133   0.54248   0.79302   0.00000  Uiso   1.00
O1265  O     0.20358   0.42048   0.74702   0.00000  Uiso   1.00
O1266  O     0.22613   0.57054   0.74519   0.00000  Uiso   1.00
O1267  O     0.10720   0.42946   0.75482   0.00000  Uiso   1.00
O1268  O     0.11847   0.50450   0.81998   0.00000  Uiso   1.00
O1269  O     0.21486   0.49550   0.68003   0.00000  Uiso   1.00
O1270  O     0.21485   0.49552   0.81218   0.00000  Uiso   1.00
O1271  O     0.11848   0.50448   0.68783   0.00000  Uiso   1.00
O1272  O     0.19854   0.59565   0.62162   0.00000  Uiso   1.00
Zn1273 Zn    0.10231   0.50600   0.75521   0.00000  Uiso   1.00
Zn1274 Zn    0.23102   0.49400   0.74479   0.00000  Uiso   1.00
C1275  C     0.51449   0.59770   0.75122   0.00000  Uiso   1.00
C1276  C     0.50830   0.55156   0.90614   0.00000  Uiso   1.00
C1277  C     0.49125   0.51103   0.61618   0.00000  Uiso   1.00
C1278  C     0.50541   0.50319   0.88503   0.00000  Uiso   1.00
C1279  C     0.51016   0.55579   0.59551   0.00000  Uiso   1.00
C1280  C     0.49602   0.45958   0.91082   0.00000  Uiso   1.00
C1281  C     0.50569   0.55920   0.54815   0.00000  Uiso   1.00
C1282  C     0.47566   0.46713   0.95472   0.00000  Uiso   1.00
C1283  C     0.48091   0.51763   0.52397   0.00000  Uiso   1.00
C1284  C     0.48550   0.51442   0.97707   0.00000  Uiso   1.00
C1285  C     0.45438   0.47736   0.54666   0.00000  Uiso   1.00
C1286  C     0.48561   0.40239   0.75195   0.00000  Uiso   1.00
C1287  C     0.50494   0.55642   0.95311   0.00000  Uiso   1.00
C1288  C     0.52588   0.60170   0.52412   0.00000  Uiso   1.00
C1289  C     0.44777   0.42772   0.97764   0.00000  Uiso   1.00
C1290  C     0.48642   0.62185   0.64219   0.00000  Uiso   1.00
C1291  C     0.51324   0.39397   0.85756   0.00000  Uiso   1.00
C1292  C     0.52404   0.35177   0.54838   0.00000  Uiso   1.00
C1293  C     0.54227   0.38473   0.58882   0.00000  Uiso   1.00
C1294  C     0.39825   0.37379   0.93086   0.00000  Uiso   1.00
C1295  C     0.39536   0.65243   0.91374   0.00000  Uiso   1.00
C1296  C     0.59524   0.65027   0.94995   0.00000  Uiso   1.00
C1297  C     0.52224   0.60121   0.97647   0.00000  Uiso   1.00
C1298  C     0.34171   0.41587   0.54286   0.00000  Uiso   1.00
C1299  C     0.61518   0.66391   0.73780   0.00000  Uiso   1.00
C1300  C     0.40081   0.66378   0.79827   0.00000  Uiso   1.00
C1301  C     0.64720   0.43228   0.67649   0.00000  Uiso   1.00
C1302  C     0.34592   0.38665   0.65669   0.00000  Uiso   1.00
C1303  C     0.34755   0.53816   0.83448   0.00000  Uiso   1.00
C1304  C     0.64151   0.55257   0.87294   0.00000  Uiso   1.00
C1305  C     0.43085   0.43599   0.52228   0.00000  Uiso   1.00
C1306  C     0.52208   0.65175   0.75690   0.00000  Uiso   1.00
C1307  C     0.47731   0.34870   0.75492   0.00000  Uiso   1.00
C1308  C     0.50196   0.50079   0.83654   0.00000  Uiso   1.00
C1309  C     0.49812   0.50323   0.66376   0.00000  Uiso   1.00
C1310  C     0.45758   0.47617   0.59295   0.00000  Uiso   1.00
H1311  H     0.43945   0.44494   0.61076   0.00000  Uiso   1.00
H1312  H     0.53244   0.37356   0.51761   0.00000  Uiso   1.00
H1313  H     0.57678   0.36709   0.60629   0.00000  Uiso   1.00
H1314  H     0.55670   0.42292   0.57817   0.00000  Uiso   1.00
H1315  H     0.50733   0.38874   0.61364   0.00000  Uiso   1.00
H1316  H     0.40295   0.39890   0.90168   0.00000  Uiso   1.00
H1317  H     0.35834   0.38263   0.94891   0.00000  Uiso   1.00
H1318  H     0.36230   0.64782   0.88819   0.00000  Uiso   1.00
H1319  H     0.38600   0.62707   0.94218   0.00000  Uiso   1.00
H1320  H     0.43632   0.64161   0.89835   0.00000  Uiso   1.00
H1321  H     0.60613   0.33609   0.91819   0.00000  Uiso   1.00
H1322  H     0.51693   0.58448   0.88596   0.00000  Uiso   1.00
H1323  H     0.61809   0.61400   0.95013   0.00000  Uiso   1.00
H1324  H     0.61003   0.34188   0.97815   0.00000  Uiso   1.00
H1325  H     0.66191   0.42899   0.50951   0.00000  Uiso   1.00
H1326  H     0.64757   0.38305   0.55129   0.00000  Uiso   1.00
H1327  H     0.33501   0.44675   0.56859   0.00000  Uiso   1.00
H1328  H     0.59815   0.66455   0.70327   0.00000  Uiso   1.00
H1329  H     0.63719   0.62788   0.74173   0.00000  Uiso   1.00
H1330  H     0.64690   0.36145   0.74233   0.00000  Uiso   1.00
H1331  H     0.39011   0.36952   0.80999   0.00000  Uiso   1.00
H1332  H     0.43022   0.64653   0.82166   0.00000  Uiso   1.00
H1333  H     0.45723   0.63599   0.61698   0.00000  Uiso   1.00
H1334  H     0.36162   0.64065   0.79972   0.00000  Uiso   1.00
H1335  H     0.63979   0.45919   0.64936   0.00000  Uiso   1.00
H1336  H     0.60655   0.41854   0.69022   0.00000  Uiso   1.00
H1337  H     0.37455   0.37120   0.68160   0.00000  Uiso   1.00
H1338  H     0.65073   0.35559   0.64505   0.00000  Uiso   1.00
H1339  H     0.37160   0.39732   0.62749   0.00000  Uiso   1.00
H1340  H     0.38425   0.56476   0.83619   0.00000  Uiso   1.00
H1341  H     0.35835   0.49800   0.84027   0.00000  Uiso   1.00
H1342  H     0.61181   0.52068   0.87887   0.00000  Uiso   1.00
H1343  H     0.66614   0.55805   0.90404   0.00000  Uiso   1.00
H1344  H     0.50344   0.65482   0.66192   0.00000  Uiso   1.00
H1345  H     0.61891   0.58765   0.86567   0.00000  Uiso   1.00
H1346  H     0.46193   0.59811   0.66596   0.00000  Uiso   1.00
H1347  H     0.47191   0.40393   0.84417   0.00000  Uiso   1.00
H1348  H     0.51456   0.35200   0.85803   0.00000  Uiso   1.00
H1349  H     0.54880   0.40646   0.83570   0.00000  Uiso   1.00
H1350  H     0.47802   0.34377   0.55141   0.00000  Uiso   1.00
N1351  N     0.65011   0.48598   0.73783   0.00000  Uiso   1.00
N1352  N     0.34989   0.51402   0.76217   0.00000  Uiso   1.00
O1353  O     0.46308   0.57952   0.75299   0.00000  Uiso   1.00
O1354  O     0.52120   0.41309   0.90149   0.00000  Uiso   1.00
O1355  O     0.55541   0.64030   0.54652   0.00000  Uiso   1.00
O1356  O     0.44425   0.37892   0.95965   0.00000  Uiso   1.00
O1357  O     0.53637   0.64380   0.95237   0.00000  Uiso   1.00
O1358  O     0.39776   0.39968   0.54295   0.00000  Uiso   1.00
O1359  O     0.57358   0.33775   0.77154   0.00000  Uiso   1.00
O1360  O     0.42238   0.66326   0.75364   0.00000  Uiso   1.00
O1361  O     0.34739   0.45588   0.70957   0.00000  Uiso   1.00
O1362  O     0.65466   0.54248   0.79302   0.00000  Uiso   1.00
O1363  O     0.53692   0.42048   0.74702   0.00000  Uiso   1.00
O1364  O     0.55946   0.57054   0.74519   0.00000  Uiso   1.00
O1365  O     0.44054   0.42946   0.75482   0.00000  Uiso   1.00
O1366  O     0.45181   0.50450   0.81998   0.00000  Uiso   1.00
O1367  O     0.54819   0.49550   0.68003   0.00000  Uiso   1.00
O1368  O     0.54819   0.49552   0.81218   0.00000  Uiso   1.00
O1369  O     0.45181   0.50448   0.68783   0.00000  Uiso   1.00
O1370  O     0.53187   0.59565   0.62162   0.00000  Uiso   1.00
Zn1371 Zn    0.43565   0.50600   0.75521   0.00000  Uiso   1.00
Zn1372 Zn    0.56435   0.49400   0.74479   0.00000  Uiso   1.00
C1373  C     0.84782   0.59770   0.75122   0.00000  Uiso   1.00
C1374  C     0.84163   0.55156   0.90614   0.00000  Uiso   1.00
C1375  C     0.82458   0.51103   0.61618   0.00000  Uiso   1.00
C1376  C     0.83874   0.50319   0.88503   0.00000  Uiso   1.00
C1377  C     0.84349   0.55579   0.59551   0.00000  Uiso   1.00
C1378  C     0.82936   0.45958   0.91082   0.00000  Uiso   1.00
C1379  C     0.83902   0.55920   0.54815   0.00000  Uiso   1.00
C1380  C     0.80900   0.46713   0.95472   0.00000  Uiso   1.00
C1381  C     0.81424   0.51763   0.52397   0.00000  Uiso   1.00
C1382  C     0.81883   0.51442   0.97707   0.00000  Uiso   1.00
C1383  C     0.78771   0.47736   0.54666   0.00000  Uiso   1.00
C1384  C     0.81895   0.40239   0.75195   0.00000  Uiso   1.00
C1385  C     0.83827   0.55642   0.95311   0.00000  Uiso   1.00
C1386  C     0.85922   0.60170   0.52412   0.00000  Uiso   1.00
C1387  C     0.78110   0.42772   0.97764   0.00000  Uiso   1.00
C1388  C     0.81976   0.62185   0.64219   0.00000  Uiso   1.00
C1389  C     0.84657   0.39397   0.85756   0.00000  Uiso   1.00
C1390  C     0.85737   0.35177   0.54838   0.00000  Uiso   1.00
C1391  C     0.87560   0.38473   0.58882   0.00000  Uiso   1.00
C1392  C     0.73158   0.37379   0.93086   0.00000  Uiso   1.00
C1393  C     0.72869   0.65243   0.91374   0.00000  Uiso   1.00
C1394  C     0.92857   0.65027   0.94995   0.00000  Uiso   1.00
C1395  C     0.85557   0.60121   0.97647   0.00000  Uiso   1.00
C1396  C     0.67504   0.41587   0.54286   0.00000  Uiso   1.00
C1397  C     0.94851   0.66391   0.73780   0.00000  Uiso   1.00
C1398  C     0.73415   0.66378   0.79827   0.00000  Uiso   1.00
C1399  C     0.98054   0.43228   0.67649   0.00000  Uiso   1.00
C1400  C     0.67925   0.38665   0.65669   0.00000  Uiso   1.00
C1401  C     0.68088   0.53816   0.83448   0.00000  Uiso   1.00
C1402  C     0.97484   0.55257   0.87294   0.00000  Uiso   1.00
C1403  C     0.76419   0.43599   0.52228   0.00000  Uiso   1.00
C1404  C     0.85542   0.65175   0.75690   0.00000  Uiso   1.00
C1405  C     0.81065   0.34870   0.75492   0.00000  Uiso   1.00
C1406  C     0.83530   0.50079   0.83654   0.00000  Uiso   1.00
C1407  C     0.83146   0.50323   0.66376   0.00000  Uiso   1.00
C1408  C     0.79091   0.47617   0.59295   0.00000  Uiso   1.00
H1409  H     0.77279   0.44494   0.61076   0.00000  Uiso   1.00
H1410  H     0.86577   0.37356   0.51761   0.00000  Uiso   1.00
H1411  H     0.91011   0.36709   0.60629   0.00000  Uiso   1.00
H1412  H     0.89004   0.42292   0.57817   0.00000  Uiso   1.00
H1413  H     0.84067   0.38874   0.61364   0.00000  Uiso   1.00
H1414  H     0.73628   0.39890   0.90168   0.00000  Uiso   1.00
H1415  H     0.69167   0.38263   0.94891   0.00000  Uiso   1.00
H1416  H     0.69563   0.64782   0.88819   0.00000  Uiso   1.00
H1417  H     0.71933   0.62707   0.94218   0.00000  Uiso   1.00
H1418  H     0.76965   0.64161   0.89835   0.00000  Uiso   1.00
H1419  H     0.93946   0.33609   0.91819   0.00000  Uiso   1.00
H1420  H     0.85027   0.58448   0.88596   0.00000  Uiso   1.00
H1421  H     0.95143   0.61400   0.95013   0.00000  Uiso   1.00
H1422  H     0.94336   0.34188   0.97815   0.00000  Uiso   1.00
H1423  H     0.99525   0.42899   0.50951   0.00000  Uiso   1.00
H1424  H     0.98090   0.38305   0.55129   0.00000  Uiso   1.00
H1425  H     0.66834   0.44675   0.56859   0.00000  Uiso   1.00
H1426  H     0.93149   0.66455   0.70327   0.00000  Uiso   1.00
H1427  H     0.97052   0.62788   0.74173   0.00000  Uiso   1.00
H1428  H     0.98024   0.36145   0.74233   0.00000  Uiso   1.00
H1429  H     0.72345   0.36952   0.80999   0.00000  Uiso   1.00
H1430  H     0.76356   0.64653   0.82166   0.00000  Uiso   1.00
H1431  H     0.79056   0.63599   0.61698   0.00000  Uiso   1.00
H1432  H     0.69496   0.64065   0.79972   0.00000  Uiso   1.00
H1433  H     0.97312   0.45919   0.64936   0.00000  Uiso   1.00
H1434  H     0.93989   0.41854   0.69022   0.00000  Uiso   1.00
H1435  H     0.70788   0.37120   0.68160   0.00000  Uiso   1.00
H1436  H     0.98406   0.35559   0.64505   0.00000  Uiso   1.00
H1437  H     0.70493   0.39732   0.62749   0.00000  Uiso   1.00
H1438  H     0.71758   0.56476   0.83619   0.00000  Uiso   1.00
H1439  H     0.69168   0.49800   0.84027   0.00000  Uiso   1.00
H1440  H     0.94514   0.52068   0.87887   0.00000  Uiso   1.00
H1441  H     0.99948   0.55805   0.90404   0.00000  Uiso   1.00
H1442  H     0.83677   0.65482   0.66192   0.00000  Uiso   1.00
H1443  H     0.95224   0.58765   0.86567   0.00000  Uiso   1.00
H1444  H     0.79527   0.59811   0.66596   0.00000  Uiso   1.00
H1445  H     0.80525   0.40393   0.84417   0.00000  Uiso   1.00
H1446  H     0.84789   0.35200   0.85803   0.00000  Uiso   1.00
H1447  H     0.88213   0.40646   0.83570   0.00000  Uiso   1.00
H1448  H     0.81136   0.34377   0.55141   0.00000  Uiso   1.00
N1449  N     0.98344   0.48598   0.73783   0.00000  Uiso   1.00
N1450  N     0.68322   0.51402   0.76217   0.00000  Uiso   1.00
O1451  O     0.79642   0.57952   0.75299   0.00000  Uiso   1.00
O1452  O     0.85454   0.41309   0.90149   0.00000  Uiso   1.00
O1453  O     0.88874   0.64030   0.54652   0.00000  Uiso   1.00
O1454  O     0.77759   0.37892   0.95965   0.00000  Uiso   1.00
O1455  O     0.86971   0.64380   0.95237   0.00000  Uiso   1.00
O1456  O     0.73110   0.39968   0.54295   0.00000  Uiso   1.00
O1457  O     0.90692   0.33775   0.77154   0.00000  Uiso   1.00
O1458  O     0.75571   0.66326   0.75364   0.00000  Uiso   1.00
O1459  O     0.68073   0.45588   0.70957   0.00000  Uiso   1.00
O1460  O     0.98800   0.54248   0.79302   0.00000  Uiso   1.00
O1461  O     0.87025   0.42048   0.74702   0.00000  Uiso   1.00
O1462  O     0.89280   0.57054   0.74519   0.00000  Uiso   1.00
O1463  O     0.77387   0.42946   0.75482   0.00000  Uiso   1.00
O1464  O     0.78514   0.50450   0.81998   0.00000  Uiso   1.00
O1465  O     0.88153   0.49550   0.68003   0.00000  Uiso   1.00
O1466  O     0.88152   0.49552   0.81218   0.00000  Uiso   1.00
O1467  O     0.78515   0.50448   0.68783   0.00000  Uiso   1.00
O1468  O     0.86520   0.59565   0.62162   0.00000  Uiso   1.00
Zn1469 Zn    0.76898   0.50600   0.75521   0.00000  Uiso   1.00
Zn1470 Zn    0.89769   0.49400   0.74479   0.00000  Uiso   1.00
C1471  C     0.18116   0.93103   0.75122   0.00000  Uiso   1.00
C1472  C     0.17497   0.88489   0.90614   0.00000  Uiso   1.00
C1473  C     0.15792   0.84436   0.61618   0.00000  Uiso   1.00
C1474  C     0.17207   0.83652   0.88503   0.00000  Uiso   1.00
C1475  C     0.17682   0.88913   0.59551   0.00000  Uiso   1.00
C1476  C     0.16269   0.79291   0.91082   0.00000  Uiso   1.00
C1477  C     0.17235   0.89253   0.54815   0.00000  Uiso   1.00
C1478  C     0.14233   0.80047   0.95472   0.00000  Uiso   1.00
C1479  C     0.14758   0.85096   0.52397   0.00000  Uiso   1.00
C1480  C     0.15217   0.84776   0.97707   0.00000  Uiso   1.00
C1481  C     0.12104   0.81070   0.54666   0.00000  Uiso   1.00
C1482  C     0.15228   0.73572   0.75195   0.00000  Uiso   1.00
C1483  C     0.17161   0.88976   0.95311   0.00000  Uiso   1.00
C1484  C     0.19255   0.93504   0.52412   0.00000  Uiso   1.00
C1485  C     0.11444   0.76106   0.97764   0.00000  Uiso   1.00
C1486  C     0.15309   0.95518   0.64219   0.00000  Uiso   1.00
C1487  C     0.17991   0.72730   0.85756   0.00000  Uiso   1.00
C1488  C     0.19071   0.68510   0.54838   0.00000  Uiso   1.00
C1489  C     0.20893   0.71807   0.58882   0.00000  Uiso   1.00
C1490  C     0.06492   0.70712   0.93086   0.00000  Uiso   1.00
C1491  C     0.06203   0.98576   0.91374   0.00000  Uiso   1.00
C1492  C     0.26191   0.98361   0.94995   0.00000  Uiso   1.00
C1493  C     0.18890   0.93454   0.97647   0.00000  Uiso   1.00
C1494  C     0.00838   0.74920   0.54286   0.00000  Uiso   1.00
C1495  C     0.28185   0.99724   0.73780   0.00000  Uiso   1.00
C1496  C     0.06748   0.99711   0.79827   0.00000  Uiso   1.00
C1497  C     0.31387   0.76561   0.67649   0.00000  Uiso   1.00
C1498  C     0.01259   0.71999   0.65669   0.00000  Uiso   1.00
C1499  C     0.01421   0.87149   0.83448   0.00000  Uiso   1.00
C1500  C     0.30817   0.88590   0.87294   0.00000  Uiso   1.00
C1501  C     0.09752   0.76932   0.52228   0.00000  Uiso   1.00
C1502  C     0.18875   0.98508   0.75690   0.00000  Uiso   1.00
C1503  C     0.14398   0.68203   0.75492   0.00000  Uiso   1.00
C1504  C     0.16863   0.83412   0.83654   0.00000  Uiso   1.00
C1505  C     0.16479   0.83656   0.66376   0.00000  Uiso   1.00
C1506  C     0.12424   0.80950   0.59295   0.00000  Uiso   1.00
H1507  H     0.10612   0.77828   0.61076   0.00000  Uiso   1.00
H1508  H     0.19911   0.70690   0.51761   0.00000  Uiso   1.00
H1509  H     0.24344   0.70042   0.60629   0.00000  Uiso   1.00
H1510  H     0.22337   0.75626   0.57817   0.00000  Uiso   1.00
H1511  H     0.17400   0.72207   0.61364   0.00000  Uiso   1.00
H1512  H     0.06962   0.73224   0.90168   0.00000  Uiso   1.00
H1513  H     0.02500   0.71596   0.94891   0.00000  Uiso   1.00
H1514  H     0.02896   0.98115   0.88819   0.00000  Uiso   1.00
H1515  H     0.05266   0.96041   0.94218   0.00000  Uiso   1.00
H1516  H     0.10298   0.97495   0.89835   0.00000  Uiso   1.00
H1517  H     0.27280   0.66942   0.91819   0.00000  Uiso   1.00
H1518  H     0.18360   0.91782   0.88596   0.00000  Uiso   1.00
H1519  H     0.28476   0.94733   0.95013   0.00000  Uiso   1.00
H1520  H     0.27670   0.67521   0.97815   0.00000  Uiso   1.00
H1521  H     0.32858   0.76232   0.50951   0.00000  Uiso   1.00
H1522  H     0.31423   0.71638   0.55129   0.00000  Uiso   1.00
H1523  H     0.00168   0.78008   0.56859   0.00000  Uiso   1.00
H1524  H     0.26482   0.99788   0.70327   0.00000  Uiso   1.00
H1525  H     0.30386   0.96121   0.74173   0.00000  Uiso   1.00
H1526  H     0.31357   0.69479   0.74233   0.00000  Uiso   1.00
H1527  H     0.05678   0.70285   0.80999   0.00000  Uiso   1.00
H1528  H     0.09689   0.97986   0.82166   0.00000  Uiso   1.00
H1529  H     0.12390   0.96932   0.61698   0.00000  Uiso   1.00
H1530  H     0.02829   0.97398   0.79972   0.00000  Uiso   1.00
H1531  H     0.30645   0.79253   0.64936   0.00000  Uiso   1.00
H1532  H     0.27322   0.75187   0.69022   0.00000  Uiso   1.00
H1533  H     0.04122   0.70454   0.68160   0.00000  Uiso   1.00
H1534  H     0.31740   0.68893   0.64505   0.00000  Uiso   1.00
H1535  H     0.03826   0.73066   0.62749   0.00000  Uiso   1.00
H1536  H     0.05092   0.89810   0.83619   0.00000  Uiso   1.00
H1537  H     0.02501   0.83133   0.84027   0.00000  Uiso   1.00
H1538  H     0.27848   0.85402   0.87887   0.00000  Uiso   1.00
H1539  H     0.33281   0.89138   0.90404   0.00000  Uiso   1.00
H1540  H     0.17010   0.98815   0.66192   0.00000  Uiso   1.00
H1541  H     0.28558   0.92098   0.86567   0.00000  Uiso   1.00
H1542  H     0.12860   0.93144   0.66596   0.00000  Uiso   1.00
H1543  H     0.13858   0.73727   0.84417   0.00000  Uiso   1.00
H1544  H     0.18123   0.68533   0.85803   0.00000  Uiso   1.00
H1545  H     0.21546   0.73979   0.83570   0.00000  Uiso   1.00
H1546  H     0.14469   0.67710   0.55141   0.00000  Uiso   1.00
N1547  N     0.31678   0.81932   0.73783   0.00000  Uiso   1.00
N1548  N     0.01656   0.84735   0.76217   0.00000  Uiso   1.00
O1549  O     0.12975   0.91286   0.75299   0.00000  Uiso   1.00
O1550  O     0.18787   0.74642   0.90149   0.00000  Uiso   1.00
O1551  O     0.22207   0.97363   0.54652   0.00000  Uiso   1.00
O1552  O     0.11092   0.71225   0.95965   0.00000  Uiso   1.00
O1553  O     0.20304   0.97713   0.95237   0.00000  Uiso   1.00
O1554  O     0.06443   0.73301   0.54295   0.00000  Uiso   1.00
O1555  O     0.24025   0.67109   0.77154   0.00000  Uiso   1.00
O1556  O     0.08904   0.99659   0.75364   0.00000  Uiso   1.00
O1557  O     0.01406   0.78922   0.70957   0.00000  Uiso   1.00
O1558  O     0.32133   0.87582   0.79302   0.00000  Uiso   1.00
O1559  O     0.20358   0.75381   0.74702   0.00000  Uiso   1.00
O1560  O     0.22613   0.90387   0.74519   0.00000  Uiso   1.00
O1561  O     0.10720   0.76279   0.75482   0.00000  Uiso   1.00
O1562  O     0.11847   0.83784   0.81998   0.00000  Uiso   1.00
O1563  O     0.21486   0.82883   0.68003   0.00000  Uiso   1.00
O1564  O     0.21485   0.82885   0.81218   0.00000  Uiso   1.00
O1565  O     0.11848   0.83781   0.68783   0.00000  Uiso   1.00
O1566  O     0.19854   0.92898   0.62162   0.00000  Uiso   1.00
Zn1567 Zn    0.10231   0.83933   0.75521   0.00000  Uiso   1.00
Zn1568 Zn    0.23102   0.82734   0.74479   0.00000  Uiso   1.00
C1569  C     0.51449   0.93103   0.75122   0.00000  Uiso   1.00
C1570  C     0.50830   0.88489   0.90614   0.00000  Uiso   1.00
C1571  C     0.49125   0.84436   0.61618   0.00000  Uiso   1.00
C1572  C     0.50541   0.83652   0.88503   0.00000  Uiso   1.00
C1573  C     0.51016   0.88913   0.59551   0.00000  Uiso   1.00
C1574  C     0.49602   0.79291   0.91082   0.00000  Uiso   1.00
C1575  C     0.50569   0.89253   0.54815   0.00000  Uiso   1.00
C1576  C     0.47566   0.80047   0.95472   0.00000  Uiso   1.00
C1577  C     0.48091   0.85096   0.52397   0.00000  Uiso   1.00
C1578  C     0.48550   0.84776   0.97707   0.00000  Uiso   1.00
C1579  C     0.45438   0.81070   0.54666   0.00000  Uiso   1.00
C1580  C     0.48561   0.73572   0.75195   0.00000  Uiso   1.00
C1581  C     0.50494   0.88976   0.95311   0.00000  Uiso   1.00
C1582  C     0.52588   0.93504   0.52412   0.00000  Uiso   1.00
C1583  C     0.44777   0.76106   0.97764   0.00000  Uiso   1.00
C1584  C     0.48642   0.95518   0.64219   0.00000  Uiso   1.00
C1585  C     0.51324   0.72730   0.85756   0.00000  Uiso   1.00
C1586  C     0.52404   0.68510   0.54838   0.00000  Uiso   1.00
C1587  C     0.54227   0.71807   0.58882   0.00000  Uiso   1.00
C1588  C     0.39825   0.70712   0.93086   0.00000  Uiso   1.00
C1589  C     0.39536   0.98576   0.91374   0.00000  Uiso   1.00
C1590  C     0.59524   0.98361   0.94995   0.00000  Uiso   1.00
C1591  C     0.52224   0.93454   0.97647   0.00000  Uiso   1.00
C1592  C     0.34171   0.74920   0.54286   0.00000  Uiso   1.00
C1593  C     0.61518   0.99724   0.73780   0.00000  Uiso   1.00
C1594  C     0.40081   0.99711   0.79827   0.00000  Uiso   1.00
C1595  C     0.64720   0.76561   0.67649   0.00000  Uiso   1.00
C1596  C     0.34592   0.71999   0.65669   0.00000  Uiso   1.00
C1597  C     0.34755   0.87149   0.83448   0.00000  Uiso   1.00
C1598  C     0.64151   0.88590   0.87294   0.00000  Uiso   1.00
C1599  C     0.43085   0.76932   0.52228   0.00000  Uiso   1.00
C1600  C     0.52208   0.98508   0.75690   0.00000  Uiso   1.00
C1601  C     0.47731   0.68203   0.75492   0.00000  Uiso   1.00
C1602  C     0.50196   0.83412   0.83654   0.00000  Uiso   1.00
C1603  C     0.49812   0.83656   0.66376   0.00000  Uiso   1.00
C1604  C     0.45758   0.80950   0.59295   0.00000  Uiso   1.00
H1605  H     0.43945   0.77828   0.61076   0.00000  Uiso   1.00
H1606  H     0.53244   0.70690   0.51761   0.00000  Uiso   1.00
H1607  H     0.57678   0.70042   0.60629   0.00000  Uiso   1.00
H1608  H     0.55670   0.75626   0.57817   0.00000  Uiso   1.00
H1609  H     0.50733   0.72207   0.61364   0.00000  Uiso   1.00
H1610  H     0.40295   0.73224   0.90168   0.00000  Uiso   1.00
H1611  H     0.35834   0.71596   0.94891   0.00000  Uiso   1.00
H1612  H     0.36230   0.98115   0.88819   0.00000  Uiso   1.00
H1613  H     0.38600   0.96041   0.94218   0.00000  Uiso   1.00
H1614  H     0.43632   0.97495   0.89835   0.00000  Uiso   1.00
H1615  H     0.60613   0.66942   0.91819   0.00000  Uiso   1.00
H1616  H     0.51693   0.91782   0.88596   0.00000  Uiso   1.00
H1617  H     0.61809   0.94733   0.95013   0.00000  Uiso   1.00
H1618  H     0.61003   0.67521   0.97815   0.00000  Uiso   1.00
H1619  H     0.66191   0.76232   0.50951   0.00000  Uiso   1.00
H1620  H     0.64757   0.71638   0.55129   0.00000  Uiso   1.00
H1621  H     0.33501   0.78008   0.56859   0.00000  Uiso   1.00
H1622  H     0.59815   0.99788   0.70327   0.00000  Uiso   1.00
H1623  H     0.63719   0.96121   0.74173   0.00000  Uiso   1.00
H1624  H     0.64690   0.69479   0.74233   0.00000  Uiso   1.00
H1625  H     0.39011   0.70285   0.80999   0.00000  Uiso   1.00
H1626  H     0.43022   0.97986   0.82166   0.00000  Uiso   1.00
H1627  H     0.45723   0.96932   0.61698   0.00000  Uiso   1.00
H1628  H     0.36162   0.97398   0.79972   0.00000  Uiso   1.00
H1629  H     0.63979   0.79253   0.64936   0.00000  Uiso   1.00
H1630  H     0.60655   0.75187   0.69022   0.00000  Uiso   1.00
H1631  H     0.37455   0.70454   0.68160   0.00000  Uiso   1.00
H1632  H     0.65073   0.68893   0.64505   0.00000  Uiso   1.00
H1633  H     0.37160   0.73066   0.62749   0.00000  Uiso   1.00
H1634  H     0.38425   0.89810   0.83619   0.00000  Uiso   1.00
H1635  H     0.35835   0.83133   0.84027   0.00000  Uiso   1.00
H1636  H     0.61181   0.85402   0.87887   0.00000  Uiso   1.00
H1637  H     0.66614   0.89138   0.90404   0.00000  Uiso   1.00
H1638  H     0.50344   0.98815   0.66192   0.00000  Uiso   1.00
H1639  H     0.61891   0.92098   0.86567   0.00000  Uiso   1.00
H1640  H     0.46193   0.93144   0.66596   0.00000  Uiso   1.00
H1641  H     0.47191   0.73727   0.84417   0.00000  Uiso   1.00
H1642  H     0.51456   0.68533   0.85803   0.00000  Uiso   1.00
H1643  H     0.54880   0.73979   0.83570   0.00000  Uiso   1.00
H1644  H     0.47802   0.67710   0.55141   0.00000  Uiso   1.00
N1645  N     0.65011   0.81932   0.73783   0.00000  Uiso   1.00
N1646  N     0.34989   0.84735   0.76217   0.00000  Uiso   1.00
O1647  O     0.46308   0.91286   0.75299   0.00000  Uiso   1.00
O1648  O     0.52120   0.74642   0.90149   0.00000  Uiso   1.00
O1649  O     0.55541   0.97363   0.54652   0.00000  Uiso   1.00
O1650  O     0.44425   0.71225   0.95965   0.00000  Uiso   1.00
O1651  O     0.53637   0.97713   0.95237   0.00000  Uiso   1.00
O1652  O     0.39776   0.73301   0.54295   0.00000  Uiso   1.00
O1653  O     0.57358   0.67109   0.77154   0.00000  Uiso   1.00
O1654  O     0.42238   0.99659   0.75364   0.00000  Uiso   1.00
O1655  O     0.34739   0.78922   0.70957   0.00000  Uiso   1.00
O1656  O     0.65466   0.87582   0.79302   0.00000  Uiso   1.00
O1657  O     0.53692   0.75381   0.74702   0.00000  Uiso   1.00
O1658  O     0.55946   0.90387   0.74519   0.00000  Uiso   1.00
O1659  O     0.44054   0.76279   0.75482   0.00000  Uiso   1.00
O1660  O     0.45181   0.83784   0.81998   0.00000  Uiso   1.00
O1661  O     0.54819   0.82883   0.68003   0.00000  Uiso   1.00
O1662  O     0.54819   0.82885   0.81218   0.00000  Uiso   1.00
O1663  O     0.45181   0.83781   0.68783   0.00000  Uiso   1.00
O1664  O     0.53187   0.92898   0.62162   0.00000  Uiso   1.00
Zn1665 Zn    0.43565   0.83933   0.75521   0.00000  Uiso   1.00
Zn1666 Zn    0.56435   0.82734   0.74479   0.00000  Uiso   1.00
C1667  C     0.84782   0.93103   0.75122   0.00000  Uiso   1.00
C1668  C     0.84163   0.88489   0.90614   0.00000  Uiso   1.00
C1669  C     0.82458   0.84436   0.61618   0.00000  Uiso   1.00
C1670  C     0.83874   0.83652   0.88503   0.00000  Uiso   1.00
C1671  C     0.84349   0.88913   0.59551   0.00000  Uiso   1.00
C1672  C     0.82936   0.79291   0.91082   0.00000  Uiso   1.00
C1673  C     0.83902   0.89253   0.54815   0.00000  Uiso   1.00
C1674  C     0.80900   0.80047   0.95472   0.00000  Uiso   1.00
C1675  C     0.81424   0.85096   0.52397   0.00000  Uiso   1.00
C1676  C     0.81883   0.84776   0.97707   0.00000  Uiso   1.00
C1677  C     0.78771   0.81070   0.54666   0.00000  Uiso   1.00
C1678  C     0.81895   0.73572   0.75195   0.00000  Uiso   1.00
C1679  C     0.83827   0.88976   0.95311   0.00000  Uiso   1.00
C1680  C     0.85922   0.93504   0.52412   0.00000  Uiso   1.00
C1681  C     0.78110   0.76106   0.97764   0.00000  Uiso   1.00
C1682  C     0.81976   0.95518   0.64219   0.00000  Uiso   1.00
C1683  C     0.84657   0.72730   0.85756   0.00000  Uiso   1.00
C1684  C     0.85737   0.68510   0.54838   0.00000  Uiso   1.00
C1685  C     0.87560   0.71807   0.58882   0.00000  Uiso   1.00
C1686  C     0.73158   0.70712   0.93086   0.00000  Uiso   1.00
C1687  C     0.72869   0.98576   0.91374   0.00000  Uiso   1.00
C1688  C     0.92857   0.98361   0.94995   0.00000  Uiso   1.00
C1689  C     0.85557   0.93454   0.97647   0.00000  Uiso   1.00
C1690  C     0.67504   0.74920   0.54286   0.00000  Uiso   1.00
C1691  C     0.94851   0.99724   0.73780   0.00000  Uiso   1.00
C1692  C     0.73415   0.99711   0.79827   0.00000  Uiso   1.00
C1693  C     0.98054   0.76561   0.67649   0.00000  Uiso   1.00
C1694  C     0.67925   0.71999   0.65669   0.00000  Uiso   1.00
C1695  C     0.68088   0.87149   0.83448   0.00000  Uiso   1.00
C1696  C     0.97484   0.88590   0.87294   0.00000  Uiso   1.00
C1697  C     0.76419   0.76932   0.52228   0.00000  Uiso   1.00
C1698  C     0.85542   0.98508   0.75690   0.00000  Uiso   1.00
C1699  C     0.81065   0.68203   0.75492   0.00000  Uiso   1.00
C1700  C     0.83530   0.83412   0.83654   0.00000  Uiso   1.00
C1701  C     0.83146   0.83656   0.66376   0.00000  Uiso   1.00
C1702  C     0.79091   0.80950   0.59295   0.00000  Uiso   1.00
H1703  H     0.77279   0.77828   0.61076   0.00000  Uiso   1.00
H1704  H     0.86577   0.70690   0.51761   0.00000  Uiso   1.00
H1705  H     0.91011   0.70042   0.60629   0.00000  Uiso   1.00
H1706  H     0.89004   0.75626   0.57817   0.00000  Uiso   1.00
H1707  H     0.84067   0.72207   0.61364   0.00000  Uiso   1.00
H1708  H     0.73628   0.73224   0.90168   0.00000  Uiso   1.00
H1709  H     0.69167   0.71596   0.94891   0.00000  Uiso   1.00
H1710  H     0.69563   0.98115   0.88819   0.00000  Uiso   1.00
H1711  H     0.71933   0.96041   0.94218   0.00000  Uiso   1.00
H1712  H     0.76965   0.97495   0.89835   0.00000  Uiso   1.00
H1713  H     0.93946   0.66942   0.91819   0.00000  Uiso   1.00
H1714  H     0.85027   0.91782   0.88596   0.00000  Uiso   1.00
H1715  H     0.95143   0.94733   0.95013   0.00000  Uiso   1.00
H1716  H     0.94336   0.67521   0.97815   0.00000  Uiso   1.00
H1717  H     0.99525   0.76232   0.50951   0.00000  Uiso   1.00
H1718  H     0.98090   0.71638   0.55129   0.00000  Uiso   1.00
H1719  H     0.66834   0.78008   0.56859   0.00000  Uiso   1.00
H1720  H     0.93149   0.99788   0.70327   0.00000  Uiso   1.00
H1721  H     0.97052   0.96121   0.74173   0.00000  Uiso   1.00
H1722  H     0.98024   0.69479   0.74233   0.00000  Uiso   1.00
H1723  H     0.72345   0.70285   0.80999   0.00000  Uiso   1.00
H1724  H     0.76356   0.97986   0.82166   0.00000  Uiso   1.00
H1725  H     0.79056   0.96932   0.61698   0.00000  Uiso   1.00
H1726  H     0.69496   0.97398   0.79972   0.00000  Uiso   1.00
H1727  H     0.97312   0.79253   0.64936   0.00000  Uiso   1.00
H1728  H     0.93989   0.75187   0.69022   0.00000  Uiso   1.00
H1729  H     0.70788   0.70454   0.68160   0.00000  Uiso   1.00
H1730  H     0.98406   0.68893   0.64505   0.00000  Uiso   1.00
H1731  H     0.70493   0.73066   0.62749   0.00000  Uiso   1.00
H1732  H     0.71758   0.89810   0.83619   0.00000  Uiso   1.00
H1733  H     0.69168   0.83133   0.84027   0.00000  Uiso   1.00
H1734  H     0.94514   0.85402   0.87887   0.00000  Uiso   1.00
H1735  H     0.99948   0.89138   0.90404   0.00000  Uiso   1.00
H1736  H     0.83677   0.98815   0.66192   0.00000  Uiso   1.00
H1737  H     0.95224   0.92098   0.86567   0.00000  Uiso   1.00
H1738  H     0.79527   0.93144   0.66596   0.00000  Uiso   1.00
H1739  H     0.80525   0.73727   0.84417   0.00000  Uiso   1.00
H1740  H     0.84789   0.68533   0.85803   0.00000  Uiso   1.00
H1741  H     0.88213   0.73979   0.83570   0.00000  Uiso   1.00
H1742  H     0.81136   0.67710   0.55141   0.00000  Uiso   1.00
N1743  N     0.98344   0.81932   0.73783   0.00000  Uiso   1.00
N1744  N     0.68322   0.84735   0.76217   0.00000  Uiso   1.00
O1745  O     0.79642   0.91286   0.75299   0.00000  Uiso   1.00
O1746  O     0.85454   0.74642   0.90149   0.00000  Uiso   1.00
O1747  O     0.88874   0.97363   0.54652   0.00000  Uiso   1.00
O1748  O     0.77759   0.71225   0.95965   0.00000  Uiso   1.00
O1749  O     0.86971   0.97713   0.95237   0.00000  Uiso   1.00
O1750  O     0.73110   0.73301   0.54295   0.00000  Uiso   1.00
O1751  O     0.90692   0.67109   0.77154   0.00000  Uiso   1.00
O1752  O     0.75571   0.99659   0.75364   0.00000  Uiso   1.00
O1753  O     0.68073   0.78922   0.70957   0.00000  Uiso   1.00
O1754  O     0.98800   0.87582   0.79302   0.00000  Uiso   1.00
O1755  O     0.87025   0.75381   0.74702   0.00000  Uiso   1.00
O1756  O     0.89280   0.90387   0.74519   0.00000  Uiso   1.00
O1757  O     0.77387   0.76279   0.75482   0.00000  Uiso   1.00
O1758  O     0.78514   0.83784   0.81998   0.00000  Uiso   1.00
O1759  O     0.88153   0.82883   0.68003   0.00000  Uiso   1.00
O1760  O     0.88152   0.82885   0.81218   0.00000  Uiso   1.00
O1761  O     0.78515   0.83781   0.68783   0.00000  Uiso   1.00
O1762  O     0.86520   0.92898   0.62162   0.00000  Uiso   1.00
Zn1763 Zn    0.76898   0.83933   0.75521   0.00000  Uiso   1.00
Zn1764 Zn    0.89769   0.82734   0.74479   0.00000  Uiso   1.00
loop_
_geom_bond_atom_site_label_1
_geom_bond_atom_site_label_2
_geom_bond_distance
_geom_bond_site_symmetry_2
_ccdc_geom_bond_type
C1     O90     1.307   .     A
C1     C32     1.438   .     S
C1     O79     1.303   .     A
C2     C13     1.399   .     A
C2     H48     1.084   .     S
C2     C4      1.404   .     A
C3     C35     1.449   .     S
C3     C5      1.408   .     A
C3     C36     1.382   .     A
C4     C34     1.445   .     S
C4     C6      1.413   .     A
C5     O96     1.383   .     S
C5     C7      1.420   .     A
C6     C8      1.392   .     A
C6     O80     1.394   .     S
C7     C14     1.417   .     A
C7     C9      1.415   .     A
C8     C15     1.407   .     A
C8     C10     1.411   .     A
C9     C11     1.406   .     A
C9     C892    1.396   1_554 S
C10    C13     1.400   .     A
C10    C891    1.396   .     S
C11    C36     1.381   .     A
C11    C31     1.402   .     A
C12    O91     1.302   .     A
C12    O89     1.307   .     A
C12    C33     1.430   .     S
C13    C23     1.408   .     A
C14    O81     1.384   .     S
C14    C905    1.420   1_554 S
C15    O82     1.379   .     S
C15    C913    1.390   .     S
C16    H72     1.107   .     S
C16    O96     1.414   .     S
C16    H70     1.106   .     S
C16    H59     1.111   .     S
C17    H73     1.108   .     S
C17    H74     1.108   .     S
C17    O80     1.399   .     S
C17    H75     1.106   .     S
C18    C19     1.525   .     S
C18    H76     1.112   .     S
C18    H38     1.108   .     S
C18    O669    1.411   1_545 S
C19    H39     1.100   .     S
C19    H40     1.110   .     S
C19    H41     1.104   .     S
C20    O82     1.404   .     S
C20    H42     1.110   .     S
C20    H43     1.107   .     S
C20    C609    1.514   1_545 S
C21    H45     1.110   .     S
C21    H44     1.106   .     S
C21    H46     1.107   .     S
C21    C314    1.514   .     S
C22    H49     1.111   .     S
C22    O83     1.407   .     S
C22    H341    1.108   .     S
C22    H344    1.107   .     S
C23    O83     1.383   .     S
C23    C896    1.420   .     S
C24    H53     1.111   .     S
C24    O84     1.409   .     S
C24    H247    1.113   1_455 S
C24    H248    1.104   1_455 S
C25    H55     1.106   .     S
C25    H54     1.112   .     S
C25    H350    1.104   .     S
C25    O379    1.406   .     S
C26    H58     1.111   .     S
C26    O86     1.412   .     S
C26    H60     1.103   .     S
C26    H351    1.111   .     S
C27    H61     1.111   .     S
C27    H62     1.100   .     S
C27    C126    1.534   .     S
C27    O185    1.400   .     S
C28    H65     1.091   .     S
C28    H63     1.109   .     S
C28    C223    1.534   1_455 S
C28    H260    1.103   1_455 S
C29    H67     1.115   .     S
C29    H66     1.108   .     S
C29    C226    1.508   1_455 S
C29    O284    1.401   1_455 S
C30    H71     1.110   .     S
C30    H69     1.108   .     S
C30    H68     1.102   .     S
C30    C127    1.508   .     S
C31    O84     1.377   .     S
C31    C897    1.390   1_554 S
C32    C327    1.349   .     S
C32    O379    1.389   .     S
C33    C620    1.349   1_545 S
C33    O674    1.387   1_545 S
C34    O94     1.312   .     A
C34    O92     1.307   .     A
C35    O93     1.317   .     A
C35    O95     1.301   .     A
C36    H37     1.070   .     S
H47    C610    1.108   1_545 S
H50    C610    1.107   1_545 S
H51    C122    1.113   .     S
H52    C122    1.104   .     S
H56    C613    1.104   1_545 S
H57    C614    1.111   1_545 S
H64    C126    1.103   .     S
N77    Zn98    2.061   .     S
N77    N176    1.285   .     S
N77    O185    1.351   .     S
N78    Zn97    2.061   .     S
N78    N273    1.285   1_455 S
N78    O284    1.349   1_455 S
O79    Zn97    2.034   .     S
O81    C312    1.411   .     S
O85    C613    1.406   1_545 S
O85    C620    1.389   1_545 S
O86    C327    1.387   .     S
O87    N273    1.351   1_455 S
O87    C223    1.400   1_455 S
O88    C127    1.401   .     S
O88    N176    1.349   .     S
O89    Zn98    2.034   .     S
O90    Zn98    2.024   .     S
O91    Zn97    2.024   .     S
O92    Zn97    1.972   .     S
O93    Zn98    1.972   .     S
O94    Zn98    2.031   .     S
O95    Zn97    2.031   .     S
C99    O188    1.307   .     A
C99    C130    1.438   .     S
C99    O177    1.303   .     A
C100   C111    1.399   .     A
C100   H146    1.084   .     S
C100   C102    1.404   .     A
C101   C133    1.449   .     S
C101   C103    1.408   .     A
C101   C134    1.382   .     A
C102   C132    1.445   .     S
C102   C104    1.413   .     A
C103   O194    1.383   .     S
C103   C105    1.420   .     A
C104   C106    1.392   .     A
C104   O178    1.394   .     S
C105   C112    1.417   .     A
C105   C107    1.415   .     A
C106   C113    1.407   .     A
C106   C108    1.411   .     A
C107   C109    1.406   .     A
C107   C990    1.396   1_554 S
C108   C111    1.400   .     A
C108   C989    1.396   .     S
C109   C134    1.381   .     A
C109   C129    1.402   .     A
C110   O189    1.302   .     A
C110   O187    1.307   .     A
C110   C131    1.430   .     S
C111   C121    1.408   .     A
C112   O179    1.384   .     S
C112   C1003   1.420   1_554 S
C113   O180    1.379   .     S
C113   C1011   1.390   .     S
C114   H170    1.107   .     S
C114   O194    1.414   .     S
C114   H168    1.106   .     S
C114   H157    1.111   .     S
C115   H171    1.108   .     S
C115   H172    1.108   .     S
C115   O178    1.399   .     S
C115   H173    1.106   .     S
C116   C117    1.525   .     S
C116   H174    1.112   .     S
C116   H136    1.108   .     S
C116   O767    1.411   1_545 S
C117   H137    1.100   .     S
C117   H138    1.110   .     S
C117   H139    1.104   .     S
C118   O180    1.404   .     S
C118   H140    1.110   .     S
C118   H141    1.107   .     S
C118   C707    1.514   1_545 S
C119   H143    1.110   .     S
C119   H142    1.106   .     S
C119   H144    1.107   .     S
C119   C412    1.514   .     S
C120   H147    1.111   .     S
C120   O181    1.407   .     S
C120   H439    1.108   .     S
C120   H442    1.107   .     S
C121   O181    1.383   .     S
C121   C994    1.420   .     S
C122   H151    1.111   .     S
C122   O182    1.409   .     S
C123   H153    1.106   .     S
C123   H152    1.112   .     S
C123   H448    1.104   .     S
C123   O477    1.406   .     S
C124   H156    1.111   .     S
C124   O184    1.412   .     S
C124   H158    1.103   .     S
C124   H449    1.111   .     S
C125   H159    1.111   .     S
C125   H160    1.100   .     S
C125   C224    1.534   .     S
C125   O283    1.400   .     S
C126   H163    1.091   .     S
C126   H161    1.109   .     S
C127   H165    1.115   .     S
C127   H164    1.108   .     S
C128   H169    1.110   .     S
C128   H167    1.108   .     S
C128   H166    1.102   .     S
C128   C225    1.508   .     S
C129   O182    1.377   .     S
C129   C995    1.390   1_554 S
C130   C425    1.349   .     S
C130   O477    1.389   .     S
C131   C718    1.349   1_545 S
C131   O772    1.387   1_545 S
C132   O192    1.312   .     A
C132   O190    1.307   .     A
C133   O191    1.317   .     A
C133   O193    1.301   .     A
C134   H135    1.070   .     S
H145   C708    1.108   1_545 S
H148   C708    1.107   1_545 S
H149   C220    1.113   .     S
H150   C220    1.104   .     S
H154   C711    1.104   1_545 S
H155   C712    1.111   1_545 S
H162   C224    1.103   .     S
N175   Zn196   2.061   .     S
N175   N274    1.285   .     S
N175   O283    1.351   .     S
N176   Zn195   2.061   .     S
O177   Zn195   2.034   .     S
O179   C410    1.411   .     S
O183   C711    1.406   1_545 S
O183   C718    1.389   1_545 S
O184   C425    1.387   .     S
O186   C225    1.401   .     S
O186   N274    1.349   .     S
O187   Zn196   2.034   .     S
O188   Zn196   2.024   .     S
O189   Zn195   2.024   .     S
O190   Zn195   1.972   .     S
O191   Zn196   1.972   .     S
O192   Zn196   2.031   .     S
O193   Zn195   2.031   .     S
C197   O286    1.307   .     A
C197   C228    1.438   .     S
C197   O275    1.303   .     A
C198   C209    1.399   .     A
C198   H244    1.084   .     S
C198   C200    1.404   .     A
C199   C231    1.449   .     S
C199   C201    1.408   .     A
C199   C232    1.382   .     A
C200   C230    1.445   .     S
C200   C202    1.413   .     A
C201   O292    1.383   .     S
C201   C203    1.420   .     A
C202   C204    1.392   .     A
C202   O276    1.394   .     S
C203   C210    1.417   .     A
C203   C205    1.415   .     A
C204   C211    1.407   .     A
C204   C206    1.411   .     A
C205   C207    1.406   .     A
C205   C1088   1.396   1_554 S
C206   C209    1.400   .     A
C206   C1087   1.396   .     S
C207   C232    1.381   .     A
C207   C227    1.402   .     A
C208   O287    1.302   .     A
C208   O285    1.307   .     A
C208   C229    1.430   .     S
C209   C219    1.408   .     A
C210   O277    1.384   .     S
C210   C1101   1.420   1_554 S
C211   O278    1.379   .     S
C211   C1109   1.390   .     S
C212   H268    1.107   .     S
C212   O292    1.414   .     S
C212   H266    1.106   .     S
C212   H255    1.111   .     S
C213   H269    1.108   .     S
C213   H270    1.108   .     S
C213   O276    1.399   .     S
C213   H271    1.106   .     S
C214   C215    1.525   .     S
C214   H272    1.112   .     S
C214   H234    1.108   .     S
C214   O865    1.411   1_545 S
C215   H235    1.100   .     S
C215   H236    1.110   .     S
C215   H237    1.104   .     S
C216   O278    1.404   .     S
C216   H238    1.110   .     S
C216   H239    1.107   .     S
C216   C805    1.514   1_545 S
C217   H241    1.110   .     S
C217   H240    1.106   .     S
C217   H242    1.107   .     S
C217   C510    1.514   .     S
C218   H245    1.111   .     S
C218   O279    1.407   .     S
C218   H537    1.108   .     S
C218   H540    1.107   .     S
C219   O279    1.383   .     S
C219   C1092   1.420   .     S
C220   H249    1.111   .     S
C220   O280    1.409   .     S
C221   H251    1.106   .     S
C221   H250    1.112   .     S
C221   H546    1.104   .     S
C221   O575    1.406   .     S
C222   H254    1.111   .     S
C222   O282    1.412   .     S
C222   H256    1.103   .     S
C222   H547    1.111   .     S
C223   H257    1.111   .     S
C223   H258    1.100   .     S
C223   C28     1.534   1_655 S
C223   O87     1.400   1_655 S
C224   H261    1.091   .     S
C224   H259    1.109   .     S
C225   H263    1.115   .     S
C225   H262    1.108   .     S
C226   H267    1.110   .     S
C226   H265    1.108   .     S
C226   H264    1.102   .     S
C226   C29     1.508   1_655 S
C227   O280    1.377   .     S
C227   C1093   1.390   1_554 S
C228   C523    1.349   .     S
C228   O575    1.389   .     S
C229   C816    1.349   1_545 S
C229   O870    1.387   1_545 S
C230   O290    1.312   .     A
C230   O288    1.307   .     A
C231   O289    1.317   .     A
C231   O291    1.301   .     A
C232   H233    1.070   .     S
H243   C806    1.108   1_545 S
H246   C806    1.107   1_545 S
H247   C24     1.113   1_655 S
H248   C24     1.104   1_655 S
H252   C809    1.104   1_545 S
H253   C810    1.111   1_545 S
H260   C28     1.103   1_655 S
N273   Zn294   2.061   .     S
N273   N78     1.285   1_655 S
N273   O87     1.351   1_655 S
N274   Zn293   2.061   .     S
O275   Zn293   2.034   .     S
O277   C508    1.411   .     S
O281   C809    1.406   1_545 S
O281   C816    1.389   1_545 S
O282   C523    1.387   .     S
O284   C29     1.401   1_655 S
O284   N78     1.349   1_655 S
O285   Zn294   2.034   .     S
O286   Zn294   2.024   .     S
O287   Zn293   2.024   .     S
O288   Zn293   1.972   .     S
O289   Zn294   1.972   .     S
O290   Zn294   2.031   .     S
O291   Zn293   2.031   .     S
C295   O384    1.307   .     A
C295   C326    1.438   .     S
C295   O373    1.303   .     A
C296   C307    1.399   .     A
C296   H342    1.084   .     S
C296   C298    1.404   .     A
C297   C329    1.449   .     S
C297   C299    1.408   .     A
C297   C330    1.382   .     A
C298   C328    1.445   .     S
C298   C300    1.413   .     A
C299   O390    1.383   .     S
C299   C301    1.420   .     A
C300   C302    1.392   .     A
C300   O374    1.394   .     S
C301   C308    1.417   .     A
C301   C303    1.415   .     A
C302   C309    1.407   .     A
C302   C304    1.411   .     A
C303   C305    1.406   .     A
C303   C1186   1.396   1_554 S
C304   C307    1.400   .     A
C304   C1185   1.396   .     S
C305   C330    1.381   .     A
C305   C325    1.402   .     A
C306   O385    1.302   .     A
C306   O383    1.307   .     A
C306   C327    1.430   .     S
C307   C317    1.408   .     A
C308   O375    1.384   .     S
C308   C1199   1.420   1_554 S
C309   O376    1.379   .     S
C309   C1207   1.390   .     S
C310   H366    1.107   .     S
C310   O390    1.414   .     S
C310   H364    1.106   .     S
C310   H353    1.111   .     S
C311   H367    1.108   .     S
C311   H368    1.108   .     S
C311   O374    1.399   .     S
C311   H369    1.106   .     S
C312   C313    1.525   .     S
C312   H370    1.112   .     S
C312   H332    1.108   .     S
C313   H333    1.100   .     S
C313   H334    1.110   .     S
C313   H335    1.104   .     S
C314   O376    1.404   .     S
C314   H336    1.110   .     S
C314   H337    1.107   .     S
C315   H339    1.110   .     S
C315   H338    1.106   .     S
C315   H340    1.107   .     S
C315   C608    1.514   .     S
C316   H343    1.111   .     S
C316   O377    1.407   .     S
C316   H635    1.108   .     S
C316   H638    1.107   .     S
C317   O377    1.383   .     S
C317   C1190   1.420   .     S
C318   H347    1.111   .     S
C318   O378    1.409   .     S
C318   H541    1.113   1_455 S
C318   H542    1.104   1_455 S
C319   H349    1.106   .     S
C319   H348    1.112   .     S
C319   H644    1.104   .     S
C319   O673    1.406   .     S
C320   H352    1.111   .     S
C320   O380    1.412   .     S
C320   H354    1.103   .     S
C320   H645    1.111   .     S
C321   H355    1.111   .     S
C321   H356    1.100   .     S
C321   C420    1.534   .     S
C321   O479    1.400   .     S
C322   H359    1.091   .     S
C322   H357    1.109   .     S
C322   C517    1.534   1_455 S
C322   H554    1.103   1_455 S
C323   H361    1.115   .     S
C323   H360    1.108   .     S
C323   C520    1.508   1_455 S
C323   O578    1.401   1_455 S
C324   H365    1.110   .     S
C324   H363    1.108   .     S
C324   H362    1.102   .     S
C324   C421    1.508   .     S
C325   O378    1.377   .     S
C325   C1191   1.390   1_554 S
C326   C621    1.349   .     S
C326   O673    1.389   .     S
C328   O388    1.312   .     A
C328   O386    1.307   .     A
C329   O387    1.317   .     A
C329   O389    1.301   .     A
C330   H331    1.070   .     S
H345   C416    1.113   .     S
H346   C416    1.104   .     S
H358   C420    1.103   .     S
N371   Zn392   2.061   .     S
N371   N470    1.285   .     S
N371   O479    1.351   .     S
N372   Zn391   2.061   .     S
N372   N567    1.285   1_455 S
N372   O578    1.349   1_455 S
O373   Zn391   2.034   .     S
O375   C606    1.411   .     S
O380   C621    1.387   .     S
O381   N567    1.351   1_455 S
O381   C517    1.400   1_455 S
O382   C421    1.401   .     S
O382   N470    1.349   .     S
O383   Zn392   2.034   .     S
O384   Zn392   2.024   .     S
O385   Zn391   2.024   .     S
O386   Zn391   1.972   .     S
O387   Zn392   1.972   .     S
O388   Zn392   2.031   .     S
O389   Zn391   2.031   .     S
C393   O482    1.307   .     A
C393   C424    1.438   .     S
C393   O471    1.303   .     A
C394   C405    1.399   .     A
C394   H440    1.084   .     S
C394   C396    1.404   .     A
C395   C427    1.449   .     S
C395   C397    1.408   .     A
C395   C428    1.382   .     A
C396   C426    1.445   .     S
C396   C398    1.413   .     A
C397   O488    1.383   .     S
C397   C399    1.420   .     A
C398   C400    1.392   .     A
C398   O472    1.394   .     S
C399   C406    1.417   .     A
C399   C401    1.415   .     A
C400   C407    1.407   .     A
C400   C402    1.411   .     A
C401   C403    1.406   .     A
C401   C1284   1.396   1_554 S
C402   C405    1.400   .     A
C402   C1283   1.396   .     S
C403   C428    1.381   .     A
C403   C423    1.402   .     A
C404   O483    1.302   .     A
C404   O481    1.307   .     A
C404   C425    1.430   .     S
C405   C415    1.408   .     A
C406   O473    1.384   .     S
C406   C1297   1.420   1_554 S
C407   O474    1.379   .     S
C407   C1305   1.390   .     S
C408   H464    1.107   .     S
C408   O488    1.414   .     S
C408   H462    1.106   .     S
C408   H451    1.111   .     S
C409   H465    1.108   .     S
C409   H466    1.108   .     S
C409   O472    1.399   .     S
C409   H467    1.106   .     S
C410   C411    1.525   .     S
C410   H468    1.112   .     S
C410   H430    1.108   .     S
C411   H431    1.100   .     S
C411   H432    1.110   .     S
C411   H433    1.104   .     S
C412   O474    1.404   .     S
C412   H434    1.110   .     S
C412   H435    1.107   .     S
C413   H437    1.110   .     S
C413   H436    1.106   .     S
C413   H438    1.107   .     S
C413   C706    1.514   .     S
C414   H441    1.111   .     S
C414   O475    1.407   .     S
C414   H733    1.108   .     S
C414   H736    1.107   .     S
C415   O475    1.383   .     S
C415   C1288   1.420   .     S
C416   H445    1.111   .     S
C416   O476    1.409   .     S
C417   H447    1.106   .     S
C417   H446    1.112   .     S
C417   H742    1.104   .     S
C417   O771    1.406   .     S
C418   H450    1.111   .     S
C418   O478    1.412   .     S
C418   H452    1.103   .     S
C418   H743    1.111   .     S
C419   H453    1.111   .     S
C419   H454    1.100   .     S
C419   C518    1.534   .     S
C419   O577    1.400   .     S
C420   H457    1.091   .     S
C420   H455    1.109   .     S
C421   H459    1.115   .     S
C421   H458    1.108   .     S
C422   H463    1.110   .     S
C422   H461    1.108   .     S
C422   H460    1.102   .     S
C422   C519    1.508   .     S
C423   O476    1.377   .     S
C423   C1289   1.390   1_554 S
C424   C719    1.349   .     S
C424   O771    1.389   .     S
C426   O486    1.312   .     A
C426   O484    1.307   .     A
C427   O485    1.317   .     A
C427   O487    1.301   .     A
C428   H429    1.070   .     S
H443   C514    1.113   .     S
H444   C514    1.104   .     S
H456   C518    1.103   .     S
N469   Zn490   2.061   .     S
N469   N568    1.285   .     S
N469   O577    1.351   .     S
N470   Zn489   2.061   .     S
O471   Zn489   2.034   .     S
O473   C704    1.411   .     S
O478   C719    1.387   .     S
O480   C519    1.401   .     S
O480   N568    1.349   .     S
O481   Zn490   2.034   .     S
O482   Zn490   2.024   .     S
O483   Zn489   2.024   .     S
O484   Zn489   1.972   .     S
O485   Zn490   1.972   .     S
O486   Zn490   2.031   .     S
O487   Zn489   2.031   .     S
C491   O580    1.307   .     A
C491   C522    1.438   .     S
C491   O569    1.303   .     A
C492   C503    1.399   .     A
C492   H538    1.084   .     S
C492   C494    1.404   .     A
C493   C525    1.449   .     S
C493   C495    1.408   .     A
C493   C526    1.382   .     A
C494   C524    1.445   .     S
C494   C496    1.413   .     A
C495   O586    1.383   .     S
C495   C497    1.420   .     A
C496   C498    1.392   .     A
C496   O570    1.394   .     S
C497   C504    1.417   .     A
C497   C499    1.415   .     A
C498   C505    1.407   .     A
C498   C500    1.411   .     A
C499   C501    1.406   .     A
C499   C1382   1.396   1_554 S
C500   C503    1.400   .     A
C500   C1381   1.396   .     S
C501   C526    1.381   .     A
C501   C521    1.402   .     A
C502   O581    1.302   .     A
C502   O579    1.307   .     A
C502   C523    1.430   .     S
C503   C513    1.408   .     A
C504   O571    1.384   .     S
C504   C1395   1.420   1_554 S
C505   O572    1.379   .     S
C505   C1403   1.390   .     S
C506   H562    1.107   .     S
C506   O586    1.414   .     S
C506   H560    1.106   .     S
C506   H549    1.111   .     S
C507   H563    1.108   .     S
C507   H564    1.108   .     S
C507   O570    1.399   .     S
C507   H565    1.106   .     S
C508   C509    1.525   .     S
C508   H566    1.112   .     S
C508   H528    1.108   .     S
C509   H529    1.100   .     S
C509   H530    1.110   .     S
C509   H531    1.104   .     S
C510   O572    1.404   .     S
C510   H532    1.110   .     S
C510   H533    1.107   .     S
C511   H535    1.110   .     S
C511   H534    1.106   .     S
C511   H536    1.107   .     S
C511   C804    1.514   .     S
C512   H539    1.111   .     S
C512   O573    1.407   .     S
C512   H831    1.108   .     S
C512   H834    1.107   .     S
C513   O573    1.383   .     S
C513   C1386   1.420   .     S
C514   H543    1.111   .     S
C514   O574    1.409   .     S
C515   H545    1.106   .     S
C515   H544    1.112   .     S
C515   H840    1.104   .     S
C515   O869    1.406   .     S
C516   H548    1.111   .     S
C516   O576    1.412   .     S
C516   H550    1.103   .     S
C516   H841    1.111   .     S
C517   H551    1.111   .     S
C517   H552    1.100   .     S
C517   C322    1.534   1_655 S
C517   O381    1.400   1_655 S
C518   H555    1.091   .     S
C518   H553    1.109   .     S
C519   H557    1.115   .     S
C519   H556    1.108   .     S
C520   H561    1.110   .     S
C520   H559    1.108   .     S
C520   H558    1.102   .     S
C520   C323    1.508   1_655 S
C521   O574    1.377   .     S
C521   C1387   1.390   1_554 S
C522   C817    1.349   .     S
C522   O869    1.389   .     S
C524   O584    1.312   .     A
C524   O582    1.307   .     A
C525   O583    1.317   .     A
C525   O585    1.301   .     A
C526   H527    1.070   .     S
H541   C318    1.113   1_655 S
H542   C318    1.104   1_655 S
H554   C322    1.103   1_655 S
N567   Zn588   2.061   .     S
N567   N372    1.285   1_655 S
N567   O381    1.351   1_655 S
N568   Zn587   2.061   .     S
O569   Zn587   2.034   .     S
O571   C802    1.411   .     S
O576   C817    1.387   .     S
O578   C323    1.401   1_655 S
O578   N372    1.349   1_655 S
O579   Zn588   2.034   .     S
O580   Zn588   2.024   .     S
O581   Zn587   2.024   .     S
O582   Zn587   1.972   .     S
O583   Zn588   1.972   .     S
O584   Zn588   2.031   .     S
O585   Zn587   2.031   .     S
C589   O678    1.307   .     A
C589   C620    1.438   .     S
C589   O667    1.303   .     A
C590   C601    1.399   .     A
C590   H636    1.084   .     S
C590   C592    1.404   .     A
C591   C623    1.449   .     S
C591   C593    1.408   .     A
C591   C624    1.382   .     A
C592   C622    1.445   .     S
C592   C594    1.413   .     A
C593   O684    1.383   .     S
C593   C595    1.420   .     A
C594   C596    1.392   .     A
C594   O668    1.394   .     S
C595   C602    1.417   .     A
C595   C597    1.415   .     A
C596   C603    1.407   .     A
C596   C598    1.411   .     A
C597   C599    1.406   .     A
C597   C1480   1.396   1_554 S
C598   C601    1.400   .     A
C598   C1479   1.396   .     S
C599   C624    1.381   .     A
C599   C619    1.402   .     A
C600   O679    1.302   .     A
C600   O677    1.307   .     A
C600   C621    1.430   .     S
C601   C611    1.408   .     A
C602   O669    1.384   .     S
C602   C1493   1.420   1_554 S
C603   O670    1.379   .     S
C603   C1501   1.390   .     S
C604   H660    1.107   .     S
C604   O684    1.414   .     S
C604   H658    1.106   .     S
C604   H647    1.111   .     S
C605   H661    1.108   .     S
C605   H662    1.108   .     S
C605   O668    1.399   .     S
C605   H663    1.106   .     S
C606   C607    1.525   .     S
C606   H664    1.112   .     S
C606   H626    1.108   .     S
C607   H627    1.100   .     S
C607   H628    1.110   .     S
C607   H629    1.104   .     S
C608   O670    1.404   .     S
C608   H630    1.110   .     S
C608   H631    1.107   .     S
C609   H633    1.110   .     S
C609   H632    1.106   .     S
C609   H634    1.107   .     S
C609   C20     1.514   1_565 S
C610   H637    1.111   .     S
C610   O671    1.407   .     S
C610   H47     1.108   1_565 S
C610   H50     1.107   1_565 S
C611   O671    1.383   .     S
C611   C1484   1.420   .     S
C612   H641    1.111   .     S
C612   O672    1.409   .     S
C612   H835    1.113   1_455 S
C612   H836    1.104   1_455 S
C613   H643    1.106   .     S
C613   H642    1.112   .     S
C613   H56     1.104   1_565 S
C613   O85     1.406   1_565 S
C614   H646    1.111   .     S
C614   O674    1.412   .     S
C614   H648    1.103   .     S
C614   H57     1.111   1_565 S
C615   H649    1.111   .     S
C615   H650    1.100   .     S
C615   C714    1.534   .     S
C615   O773    1.400   .     S
C616   H653    1.091   .     S
C616   H651    1.109   .     S
C616   C811    1.534   1_455 S
C616   H848    1.103   1_455 S
C617   H655    1.115   .     S
C617   H654    1.108   .     S
C617   C814    1.508   1_455 S
C617   O872    1.401   1_455 S
C618   H659    1.110   .     S
C618   H657    1.108   .     S
C618   H656    1.102   .     S
C618   C715    1.508   .     S
C619   O672    1.377   .     S
C619   C1485   1.390   1_554 S
C620   C33     1.349   1_565 S
C620   O85     1.389   1_565 S
C622   O682    1.312   .     A
C622   O680    1.307   .     A
C623   O681    1.317   .     A
C623   O683    1.301   .     A
C624   H625    1.070   .     S
H639   C710    1.113   .     S
H640   C710    1.104   .     S
H652   C714    1.103   .     S
N665   Zn686   2.061   .     S
N665   N764    1.285   .     S
N665   O773    1.351   .     S
N666   Zn685   2.061   .     S
N666   N861    1.285   1_455 S
N666   O872    1.349   1_455 S
O667   Zn685   2.034   .     S
O669   C18     1.411   1_565 S
O674   C33     1.387   1_565 S
O675   N861    1.351   1_455 S
O675   C811    1.400   1_455 S
O676   C715    1.401   .     S
O676   N764    1.349   .     S
O677   Zn686   2.034   .     S
O678   Zn686   2.024   .     S
O679   Zn685   2.024   .     S
O680   Zn685   1.972   .     S
O681   Zn686   1.972   .     S
O682   Zn686   2.031   .     S
O683   Zn685   2.031   .     S
C687   O776    1.307   .     A
C687   C718    1.438   .     S
C687   O765    1.303   .     A
C688   C699    1.399   .     A
C688   H734    1.084   .     S
C688   C690    1.404   .     A
C689   C721    1.449   .     S
C689   C691    1.408   .     A
C689   C722    1.382   .     A
C690   C720    1.445   .     S
C690   C692    1.413   .     A
C691   O782    1.383   .     S
C691   C693    1.420   .     A
C692   C694    1.392   .     A
C692   O766    1.394   .     S
C693   C700    1.417   .     A
C693   C695    1.415   .     A
C694   C701    1.407   .     A
C694   C696    1.411   .     A
C695   C697    1.406   .     A
C695   C1578   1.396   1_554 S
C696   C699    1.400   .     A
C696   C1577   1.396   .     S
C697   C722    1.381   .     A
C697   C717    1.402   .     A
C698   O777    1.302   .     A
C698   O775    1.307   .     A
C698   C719    1.430   .     S
C699   C709    1.408   .     A
C700   O767    1.384   .     S
C700   C1591   1.420   1_554 S
C701   O768    1.379   .     S
C701   C1599   1.390   .     S
C702   H758    1.107   .     S
C702   O782    1.414   .     S
C702   H756    1.106   .     S
C702   H745    1.111   .     S
C703   H759    1.108   .     S
C703   H760    1.108   .     S
C703   O766    1.399   .     S
C703   H761    1.106   .     S
C704   C705    1.525   .     S
C704   H762    1.112   .     S
C704   H724    1.108   .     S
C705   H725    1.100   .     S
C705   H726    1.110   .     S
C705   H727    1.104   .     S
C706   O768    1.404   .     S
C706   H728    1.110   .     S
C706   H729    1.107   .     S
C707   H731    1.110   .     S
C707   H730    1.106   .     S
C707   H732    1.107   .     S
C707   C118    1.514   1_565 S
C708   H735    1.111   .     S
C708   O769    1.407   .     S
C708   H145    1.108   1_565 S
C708   H148    1.107   1_565 S
C709   O769    1.383   .     S
C709   C1582   1.420   .     S
C710   H739    1.111   .     S
C710   O770    1.409   .     S
C711   H741    1.106   .     S
C711   H740    1.112   .     S
C711   H154    1.104   1_565 S
C711   O183    1.406   1_565 S
C712   H744    1.111   .     S
C712   O772    1.412   .     S
C712   H746    1.103   .     S
C712   H155    1.111   1_565 S
C713   H747    1.111   .     S
C713   H748    1.100   .     S
C713   C812    1.534   .     S
C713   O871    1.400   .     S
C714   H751    1.091   .     S
C714   H749    1.109   .     S
C715   H753    1.115   .     S
C715   H752    1.108   .     S
C716   H757    1.110   .     S
C716   H755    1.108   .     S
C716   H754    1.102   .     S
C716   C813    1.508   .     S
C717   O770    1.377   .     S
C717   C1583   1.390   1_554 S
C718   C131    1.349   1_565 S
C718   O183    1.389   1_565 S
C720   O780    1.312   .     A
C720   O778    1.307   .     A
C721   O779    1.317   .     A
C721   O781    1.301   .     A
C722   H723    1.070   .     S
H737   C808    1.113   .     S
H738   C808    1.104   .     S
H750   C812    1.103   .     S
N763   Zn784   2.061   .     S
N763   N862    1.285   .     S
N763   O871    1.351   .     S
N764   Zn783   2.061   .     S
O765   Zn783   2.034   .     S
O767   C116    1.411   1_565 S
O772   C131    1.387   1_565 S
O774   C813    1.401   .     S
O774   N862    1.349   .     S
O775   Zn784   2.034   .     S
O776   Zn784   2.024   .     S
O777   Zn783   2.024   .     S
O778   Zn783   1.972   .     S
O779   Zn784   1.972   .     S
O780   Zn784   2.031   .     S
O781   Zn783   2.031   .     S
C785   O874    1.307   .     A
C785   C816    1.438   .     S
C785   O863    1.303   .     A
C786   C797    1.399   .     A
C786   H832    1.084   .     S
C786   C788    1.404   .     A
C787   C819    1.449   .     S
C787   C789    1.408   .     A
C787   C820    1.382   .     A
C788   C818    1.445   .     S
C788   C790    1.413   .     A
C789   O880    1.383   .     S
C789   C791    1.420   .     A
C790   C792    1.392   .     A
C790   O864    1.394   .     S
C791   C798    1.417   .     A
C791   C793    1.415   .     A
C792   C799    1.407   .     A
C792   C794    1.411   .     A
C793   C795    1.406   .     A
C793   C1676   1.396   1_554 S
C794   C797    1.400   .     A
C794   C1675   1.396   .     S
C795   C820    1.381   .     A
C795   C815    1.402   .     A
C796   O875    1.302   .     A
C796   O873    1.307   .     A
C796   C817    1.430   .     S
C797   C807    1.408   .     A
C798   O865    1.384   .     S
C798   C1689   1.420   1_554 S
C799   O866    1.379   .     S
C799   C1697   1.390   .     S
C800   H856    1.107   .     S
C800   O880    1.414   .     S
C800   H854    1.106   .     S
C800   H843    1.111   .     S
C801   H857    1.108   .     S
C801   H858    1.108   .     S
C801   O864    1.399   .     S
C801   H859    1.106   .     S
C802   C803    1.525   .     S
C802   H860    1.112   .     S
C802   H822    1.108   .     S
C803   H823    1.100   .     S
C803   H824    1.110   .     S
C803   H825    1.104   .     S
C804   O866    1.404   .     S
C804   H826    1.110   .     S
C804   H827    1.107   .     S
C805   H829    1.110   .     S
C805   H828    1.106   .     S
C805   H830    1.107   .     S
C805   C216    1.514   1_565 S
C806   H833    1.111   .     S
C806   O867    1.407   .     S
C806   H243    1.108   1_565 S
C806   H246    1.107   1_565 S
C807   O867    1.383   .     S
C807   C1680   1.420   .     S
C808   H837    1.111   .     S
C808   O868    1.409   .     S
C809   H839    1.106   .     S
C809   H838    1.112   .     S
C809   H252    1.104   1_565 S
C809   O281    1.406   1_565 S
C810   H842    1.111   .     S
C810   O870    1.412   .     S
C810   H844    1.103   .     S
C810   H253    1.111   1_565 S
C811   H845    1.111   .     S
C811   H846    1.100   .     S
C811   C616    1.534   1_655 S
C811   O675    1.400   1_655 S
C812   H849    1.091   .     S
C812   H847    1.109   .     S
C813   H851    1.115   .     S
C813   H850    1.108   .     S
C814   H855    1.110   .     S
C814   H853    1.108   .     S
C814   H852    1.102   .     S
C814   C617    1.508   1_655 S
C815   O868    1.377   .     S
C815   C1681   1.390   1_554 S
C816   C229    1.349   1_565 S
C816   O281    1.389   1_565 S
C818   O878    1.312   .     A
C818   O876    1.307   .     A
C819   O877    1.317   .     A
C819   O879    1.301   .     A
C820   H821    1.070   .     S
H835   C612    1.113   1_655 S
H836   C612    1.104   1_655 S
H848   C616    1.103   1_655 S
N861   Zn882   2.061   .     S
N861   N666    1.285   1_655 S
N861   O675    1.351   1_655 S
N862   Zn881   2.061   .     S
O863   Zn881   2.034   .     S
O865   C214    1.411   1_565 S
O870   C229    1.387   1_565 S
O872   C617    1.401   1_655 S
O872   N666    1.349   1_655 S
O873   Zn882   2.034   .     S
O874   Zn882   2.024   .     S
O875   Zn881   2.024   .     S
O876   Zn881   1.972   .     S
O877   Zn882   1.972   .     S
O878   Zn882   2.031   .     S
O879   Zn881   2.031   .     S
C883   O972    1.307   .     A
C883   C914    1.438   .     S
C883   O961    1.303   .     A
C884   C895    1.399   .     A
C884   H930    1.084   .     S
C884   C886    1.404   .     A
C885   C917    1.449   .     S
C885   C887    1.408   .     A
C885   C918    1.382   .     A
C886   C916    1.445   .     S
C886   C888    1.413   .     A
C887   O978    1.383   .     S
C887   C889    1.420   .     A
C888   C890    1.392   .     A
C888   O962    1.394   .     S
C889   C896    1.417   .     A
C889   C891    1.415   .     A
C890   C897    1.407   .     A
C890   C892    1.411   .     A
C891   C893    1.406   .     A
C892   C895    1.400   .     A
C892   C9      1.396   1_556 S
C893   C918    1.381   .     A
C893   C913    1.402   .     A
C894   O973    1.302   .     A
C894   O971    1.307   .     A
C894   C915    1.430   .     S
C895   C905    1.408   .     A
C896   O963    1.384   .     S
C897   O964    1.379   .     S
C897   C31     1.390   1_556 S
C898   H954    1.107   .     S
C898   O978    1.414   .     S
C898   H952    1.106   .     S
C898   H941    1.111   .     S
C899   H955    1.108   .     S
C899   H956    1.108   .     S
C899   O962    1.399   .     S
C899   H957    1.106   .     S
C900   C901    1.525   .     S
C900   H958    1.112   .     S
C900   H920    1.108   .     S
C900   O1551   1.411   1_545 S
C901   H921    1.100   .     S
C901   H922    1.110   .     S
C901   H923    1.104   .     S
C902   O964    1.404   .     S
C902   H924    1.110   .     S
C902   H925    1.107   .     S
C902   C1491   1.514   1_545 S
C903   H927    1.110   .     S
C903   H926    1.106   .     S
C903   H928    1.107   .     S
C903   C1196   1.514   .     S
C904   H931    1.111   .     S
C904   O965    1.407   .     S
C904   H1223   1.108   .     S
C904   H1226   1.107   .     S
C905   O965    1.383   .     S
C905   C14     1.420   1_556 S
C906   H935    1.111   .     S
C906   O966    1.409   .     S
C906   H1129   1.113   1_455 S
C906   H1130   1.104   1_455 S
C907   H937    1.106   .     S
C907   H936    1.112   .     S
C907   H1232   1.104   .     S
C907   O1261   1.406   .     S
C908   H940    1.111   .     S
C908   O968    1.412   .     S
C908   H942    1.103   .     S
C908   H1233   1.111   .     S
C909   H943    1.111   .     S
C909   H944    1.100   .     S
C909   C1008   1.534   .     S
C909   O1067   1.400   .     S
C910   H947    1.091   .     S
C910   H945    1.109   .     S
C910   C1105   1.534   1_455 S
C910   H1142   1.103   1_455 S
C911   H949    1.115   .     S
C911   H948    1.108   .     S
C911   C1108   1.508   1_455 S
C911   O1166   1.401   1_455 S
C912   H953    1.110   .     S
C912   H951    1.108   .     S
C912   H950    1.102   .     S
C912   C1009   1.508   .     S
C913   O966    1.377   .     S
C914   C1209   1.349   .     S
C914   O1261   1.389   .     S
C915   C1502   1.349   1_545 S
C915   O1556   1.387   1_545 S
C916   O976    1.312   .     A
C916   O974    1.307   .     A
C917   O975    1.317   .     A
C917   O977    1.301   .     A
C918   H919    1.070   .     S
H929   C1492   1.108   1_545 S
H932   C1492   1.107   1_545 S
H933   C1004   1.113   .     S
H934   C1004   1.104   .     S
H938   C1495   1.104   1_545 S
H939   C1496   1.111   1_545 S
H946   C1008   1.103   .     S
N959   Zn980   2.061   .     S
N959   N1058   1.285   .     S
N959   O1067   1.351   .     S
N960   Zn979   2.061   .     S
N960   N1155   1.285   1_455 S
N960   O1166   1.349   1_455 S
O961   Zn979   2.034   .     S
O963   C1194   1.411   .     S
O967   C1495   1.406   1_545 S
O967   C1502   1.389   1_545 S
O968   C1209   1.387   .     S
O969   N1155   1.351   1_455 S
O969   C1105   1.400   1_455 S
O970   C1009   1.401   .     S
O970   N1058   1.349   .     S
O971   Zn980   2.034   .     S
O972   Zn980   2.024   .     S
O973   Zn979   2.024   .     S
O974   Zn979   1.972   .     S
O975   Zn980   1.972   .     S
O976   Zn980   2.031   .     S
O977   Zn979   2.031   .     S
C981   O1070   1.307   .     A
C981   C1012   1.438   .     S
C981   O1059   1.303   .     A
C982   C993    1.399   .     A
C982   H1028   1.084   .     S
C982   C984    1.404   .     A
C983   C1015   1.449   .     S
C983   C985    1.408   .     A
C983   C1016   1.382   .     A
C984   C1014   1.445   .     S
C984   C986    1.413   .     A
C985   O1076   1.383   .     S
C985   C987    1.420   .     A
C986   C988    1.392   .     A
C986   O1060   1.394   .     S
C987   C994    1.417   .     A
C987   C989    1.415   .     A
C988   C995    1.407   .     A
C988   C990    1.411   .     A
C989   C991    1.406   .     A
C990   C993    1.400   .     A
C990   C107    1.396   1_556 S
C991   C1016   1.381   .     A
C991   C1011   1.402   .     A
C992   O1071   1.302   .     A
C992   O1069   1.307   .     A
C992   C1013   1.430   .     S
C993   C1003   1.408   .     A
C994   O1061   1.384   .     S
C995   O1062   1.379   .     S
C995   C129    1.390   1_556 S
C996   H1052   1.107   .     S
C996   O1076   1.414   .     S
C996   H1050   1.106   .     S
C996   H1039   1.111   .     S
C997   H1053   1.108   .     S
C997   H1054   1.108   .     S
C997   O1060   1.399   .     S
C997   H1055   1.106   .     S
C998   C999    1.525   .     S
C998   H1056   1.112   .     S
C998   H1018   1.108   .     S
C998   O1649   1.411   1_545 S
C999   H1019   1.100   .     S
C999   H1020   1.110   .     S
C999   H1021   1.104   .     S
C1000  O1062   1.404   .     S
C1000  H1022   1.110   .     S
C1000  H1023   1.107   .     S
C1000  C1589   1.514   1_545 S
C1001  H1025   1.110   .     S
C1001  H1024   1.106   .     S
C1001  H1026   1.107   .     S
C1001  C1294   1.514   .     S
C1002  H1029   1.111   .     S
C1002  O1063   1.407   .     S
C1002  H1321   1.108   .     S
C1002  H1324   1.107   .     S
C1003  O1063   1.383   .     S
C1003  C112    1.420   1_556 S
C1004  H1033   1.111   .     S
C1004  O1064   1.409   .     S
C1005  H1035   1.106   .     S
C1005  H1034   1.112   .     S
C1005  H1330   1.104   .     S
C1005  O1359   1.406   .     S
C1006  H1038   1.111   .     S
C1006  O1066   1.412   .     S
C1006  H1040   1.103   .     S
C1006  H1331   1.111   .     S
C1007  H1041   1.111   .     S
C1007  H1042   1.100   .     S
C1007  C1106   1.534   .     S
C1007  O1165   1.400   .     S
C1008  H1045   1.091   .     S
C1008  H1043   1.109   .     S
C1009  H1047   1.115   .     S
C1009  H1046   1.108   .     S
C1010  H1051   1.110   .     S
C1010  H1049   1.108   .     S
C1010  H1048   1.102   .     S
C1010  C1107   1.508   .     S
C1011  O1064   1.377   .     S
C1012  C1307   1.349   .     S
C1012  O1359   1.389   .     S
C1013  C1600   1.349   1_545 S
C1013  O1654   1.387   1_545 S
C1014  O1074   1.312   .     A
C1014  O1072   1.307   .     A
C1015  O1073   1.317   .     A
C1015  O1075   1.301   .     A
C1016  H1017   1.070   .     S
H1027  C1590   1.108   1_545 S
H1030  C1590   1.107   1_545 S
H1031  C1102   1.113   .     S
H1032  C1102   1.104   .     S
H1036  C1593   1.104   1_545 S
H1037  C1594   1.111   1_545 S
H1044  C1106   1.103   .     S
N1057  Zn1078  2.061   .     S
N1057  N1156   1.285   .     S
N1057  O1165   1.351   .     S
N1058  Zn1077  2.061   .     S
O1059  Zn1077  2.034   .     S
O1061  C1292   1.411   .     S
O1065  C1593   1.406   1_545 S
O1065  C1600   1.389   1_545 S
O1066  C1307   1.387   .     S
O1068  C1107   1.401   .     S
O1068  N1156   1.349   .     S
O1069  Zn1078  2.034   .     S
O1070  Zn1078  2.024   .     S
O1071  Zn1077  2.024   .     S
O1072  Zn1077  1.972   .     S
O1073  Zn1078  1.972   .     S
O1074  Zn1078  2.031   .     S
O1075  Zn1077  2.031   .     S
C1079  O1168   1.307   .     A
C1079  C1110   1.438   .     S
C1079  O1157   1.303   .     A
C1080  C1091   1.399   .     A
C1080  H1126   1.084   .     S
C1080  C1082   1.404   .     A
C1081  C1113   1.449   .     S
C1081  C1083   1.408   .     A
C1081  C1114   1.382   .     A
C1082  C1112   1.445   .     S
C1082  C1084   1.413   .     A
C1083  O1174   1.383   .     S
C1083  C1085   1.420   .     A
C1084  C1086   1.392   .     A
C1084  O1158   1.394   .     S
C1085  C1092   1.417   .     A
C1085  C1087   1.415   .     A
C1086  C1093   1.407   .     A
C1086  C1088   1.411   .     A
C1087  C1089   1.406   .     A
C1088  C1091   1.400   .     A
C1088  C205    1.396   1_556 S
C1089  C1114   1.381   .     A
C1089  C1109   1.402   .     A
C1090  O1169   1.302   .     A
C1090  O1167   1.307   .     A
C1090  C1111   1.430   .     S
C1091  C1101   1.408   .     A
C1092  O1159   1.384   .     S
C1093  O1160   1.379   .     S
C1093  C227    1.390   1_556 S
C1094  H1150   1.107   .     S
C1094  O1174   1.414   .     S
C1094  H1148   1.106   .     S
C1094  H1137   1.111   .     S
C1095  H1151   1.108   .     S
C1095  H1152   1.108   .     S
C1095  O1158   1.399   .     S
C1095  H1153   1.106   .     S
C1096  C1097   1.525   .     S
C1096  H1154   1.112   .     S
C1096  H1116   1.108   .     S
C1096  O1747   1.411   1_545 S
C1097  H1117   1.100   .     S
C1097  H1118   1.110   .     S
C1097  H1119   1.104   .     S
C1098  O1160   1.404   .     S
C1098  H1120   1.110   .     S
C1098  H1121   1.107   .     S
C1098  C1687   1.514   1_545 S
C1099  H1123   1.110   .     S
C1099  H1122   1.106   .     S
C1099  H1124   1.107   .     S
C1099  C1392   1.514   .     S
C1100  H1127   1.111   .     S
C1100  O1161   1.407   .     S
C1100  H1419   1.108   .     S
C1100  H1422   1.107   .     S
C1101  O1161   1.383   .     S
C1101  C210    1.420   1_556 S
C1102  H1131   1.111   .     S
C1102  O1162   1.409   .     S
C1103  H1133   1.106   .     S
C1103  H1132   1.112   .     S
C1103  H1428   1.104   .     S
C1103  O1457   1.406   .     S
C1104  H1136   1.111   .     S
C1104  O1164   1.412   .     S
C1104  H1138   1.103   .     S
C1104  H1429   1.111   .     S
C1105  H1139   1.111   .     S
C1105  H1140   1.100   .     S
C1105  C910    1.534   1_655 S
C1105  O969    1.400   1_655 S
C1106  H1143   1.091   .     S
C1106  H1141   1.109   .     S
C1107  H1145   1.115   .     S
C1107  H1144   1.108   .     S
C1108  H1149   1.110   .     S
C1108  H1147   1.108   .     S
C1108  H1146   1.102   .     S
C1108  C911    1.508   1_655 S
C1109  O1162   1.377   .     S
C1110  C1405   1.349   .     S
C1110  O1457   1.389   .     S
C1111  C1698   1.349   1_545 S
C1111  O1752   1.387   1_545 S
C1112  O1172   1.312   .     A
C1112  O1170   1.307   .     A
C1113  O1171   1.317   .     A
C1113  O1173   1.301   .     A
C1114  H1115   1.070   .     S
H1125  C1688   1.108   1_545 S
H1128  C1688   1.107   1_545 S
H1129  C906    1.113   1_655 S
H1130  C906    1.104   1_655 S
H1134  C1691   1.104   1_545 S
H1135  C1692   1.111   1_545 S
H1142  C910    1.103   1_655 S
N1155  Zn1176  2.061   .     S
N1155  N960    1.285   1_655 S
N1155  O969    1.351   1_655 S
N1156  Zn1175  2.061   .     S
O1157  Zn1175  2.034   .     S
O1159  C1390   1.411   .     S
O1163  C1691   1.406   1_545 S
O1163  C1698   1.389   1_545 S
O1164  C1405   1.387   .     S
O1166  C911    1.401   1_655 S
O1166  N960    1.349   1_655 S
O1167  Zn1176  2.034   .     S
O1168  Zn1176  2.024   .     S
O1169  Zn1175  2.024   .     S
O1170  Zn1175  1.972   .     S
O1171  Zn1176  1.972   .     S
O1172  Zn1176  2.031   .     S
O1173  Zn1175  2.031   .     S
C1177  O1266   1.307   .     A
C1177  C1208   1.438   .     S
C1177  O1255   1.303   .     A
C1178  C1189   1.399   .     A
C1178  H1224   1.084   .     S
C1178  C1180   1.404   .     A
C1179  C1211   1.449   .     S
C1179  C1181   1.408   .     A
C1179  C1212   1.382   .     A
C1180  C1210   1.445   .     S
C1180  C1182   1.413   .     A
C1181  O1272   1.383   .     S
C1181  C1183   1.420   .     A
C1182  C1184   1.392   .     A
C1182  O1256   1.394   .     S
C1183  C1190   1.417   .     A
C1183  C1185   1.415   .     A
C1184  C1191   1.407   .     A
C1184  C1186   1.411   .     A
C1185  C1187   1.406   .     A
C1186  C1189   1.400   .     A
C1186  C303    1.396   1_556 S
C1187  C1212   1.381   .     A
C1187  C1207   1.402   .     A
C1188  O1267   1.302   .     A
C1188  O1265   1.307   .     A
C1188  C1209   1.430   .     S
C1189  C1199   1.408   .     A
C1190  O1257   1.384   .     S
C1191  O1258   1.379   .     S
C1191  C325    1.390   1_556 S
C1192  H1248   1.107   .     S
C1192  O1272   1.414   .     S
C1192  H1246   1.106   .     S
C1192  H1235   1.111   .     S
C1193  H1249   1.108   .     S
C1193  H1250   1.108   .     S
C1193  O1256   1.399   .     S
C1193  H1251   1.106   .     S
C1194  C1195   1.525   .     S
C1194  H1252   1.112   .     S
C1194  H1214   1.108   .     S
C1195  H1215   1.100   .     S
C1195  H1216   1.110   .     S
C1195  H1217   1.104   .     S
C1196  O1258   1.404   .     S
C1196  H1218   1.110   .     S
C1196  H1219   1.107   .     S
C1197  H1221   1.110   .     S
C1197  H1220   1.106   .     S
C1197  H1222   1.107   .     S
C1197  C1490   1.514   .     S
C1198  H1225   1.111   .     S
C1198  O1259   1.407   .     S
C1198  H1517   1.108   .     S
C1198  H1520   1.107   .     S
C1199  O1259   1.383   .     S
C1199  C308    1.420   1_556 S
C1200  H1229   1.111   .     S
C1200  O1260   1.409   .     S
C1200  H1423   1.113   1_455 S
C1200  H1424   1.104   1_455 S
C1201  H1231   1.106   .     S
C1201  H1230   1.112   .     S
C1201  H1526   1.104   .     S
C1201  O1555   1.406   .     S
C1202  H1234   1.111   .     S
C1202  O1262   1.412   .     S
C1202  H1236   1.103   .     S
C1202  H1527   1.111   .     S
C1203  H1237   1.111   .     S
C1203  H1238   1.100   .     S
C1203  C1302   1.534   .     S
C1203  O1361   1.400   .     S
C1204  H1241   1.091   .     S
C1204  H1239   1.109   .     S
C1204  C1399   1.534   1_455 S
C1204  H1436   1.103   1_455 S
C1205  H1243   1.115   .     S
C1205  H1242   1.108   .     S
C1205  C1402   1.508   1_455 S
C1205  O1460   1.401   1_455 S
C1206  H1247   1.110   .     S
C1206  H1245   1.108   .     S
C1206  H1244   1.102   .     S
C1206  C1303   1.508   .     S
C1207  O1260   1.377   .     S
C1208  C1503   1.349   .     S
C1208  O1555   1.389   .     S
C1210  O1270   1.312   .     A
C1210  O1268   1.307   .     A
C1211  O1269   1.317   .     A
C1211  O1271   1.301   .     A
C1212  H1213   1.070   .     S
H1227  C1298   1.113   .     S
H1228  C1298   1.104   .     S
H1240  C1302   1.103   .     S
N1253  Zn1274  2.061   .     S
N1253  N1352   1.285   .     S
N1253  O1361   1.351   .     S
N1254  Zn1273  2.061   .     S
N1254  N1449   1.285   1_455 S
N1254  O1460   1.349   1_455 S
O1255  Zn1273  2.034   .     S
O1257  C1488   1.411   .     S
O1262  C1503   1.387   .     S
O1263  N1449   1.351   1_455 S
O1263  C1399   1.400   1_455 S
O1264  C1303   1.401   .     S
O1264  N1352   1.349   .     S
O1265  Zn1274  2.034   .     S
O1266  Zn1274  2.024   .     S
O1267  Zn1273  2.024   .     S
O1268  Zn1273  1.972   .     S
O1269  Zn1274  1.972   .     S
O1270  Zn1274  2.031   .     S
O1271  Zn1273  2.031   .     S
C1275  O1364   1.307   .     A
C1275  C1306   1.438   .     S
C1275  O1353   1.303   .     A
C1276  C1287   1.399   .     A
C1276  H1322   1.084   .     S
C1276  C1278   1.404   .     A
C1277  C1309   1.449   .     S
C1277  C1279   1.408   .     A
C1277  C1310   1.382   .     A
C1278  C1308   1.445   .     S
C1278  C1280   1.413   .     A
C1279  O1370   1.383   .     S
C1279  C1281   1.420   .     A
C1280  C1282   1.392   .     A
C1280  O1354   1.394   .     S
C1281  C1288   1.417   .     A
C1281  C1283   1.415   .     A
C1282  C1289   1.407   .     A
C1282  C1284   1.411   .     A
C1283  C1285   1.406   .     A
C1284  C1287   1.400   .     A
C1284  C401    1.396   1_556 S
C1285  C1310   1.381   .     A
C1285  C1305   1.402   .     A
C1286  O1365   1.302   .     A
C1286  O1363   1.307   .     A
C1286  C1307   1.430   .     S
C1287  C1297   1.408   .     A
C1288  O1355   1.384   .     S
C1289  O1356   1.379   .     S
C1289  C423    1.390   1_556 S
C1290  H1346   1.107   .     S
C1290  O1370   1.414   .     S
C1290  H1344   1.106   .     S
C1290  H1333   1.111   .     S
C1291  H1347   1.108   .     S
C1291  H1348   1.108   .     S
C1291  O1354   1.399   .     S
C1291  H1349   1.106   .     S
C1292  C1293   1.525   .     S
C1292  H1350   1.112   .     S
C1292  H1312   1.108   .     S
C1293  H1313   1.100   .     S
C1293  H1314   1.110   .     S
C1293  H1315   1.104   .     S
C1294  O1356   1.404   .     S
C1294  H1316   1.110   .     S
C1294  H1317   1.107   .     S
C1295  H1319   1.110   .     S
C1295  H1318   1.106   .     S
C1295  H1320   1.107   .     S
C1295  C1588   1.514   .     S
C1296  H1323   1.111   .     S
C1296  O1357   1.407   .     S
C1296  H1615   1.108   .     S
C1296  H1618   1.107   .     S
C1297  O1357   1.383   .     S
C1297  C406    1.420   1_556 S
C1298  H1327   1.111   .     S
C1298  O1358   1.409   .     S
C1299  H1329   1.106   .     S
C1299  H1328   1.112   .     S
C1299  H1624   1.104   .     S
C1299  O1653   1.406   .     S
C1300  H1332   1.111   .     S
C1300  O1360   1.412   .     S
C1300  H1334   1.103   .     S
C1300  H1625   1.111   .     S
C1301  H1335   1.111   .     S
C1301  H1336   1.100   .     S
C1301  C1400   1.534   .     S
C1301  O1459   1.400   .     S
C1302  H1339   1.091   .     S
C1302  H1337   1.109   .     S
C1303  H1341   1.115   .     S
C1303  H1340   1.108   .     S
C1304  H1345   1.110   .     S
C1304  H1343   1.108   .     S
C1304  H1342   1.102   .     S
C1304  C1401   1.508   .     S
C1305  O1358   1.377   .     S
C1306  C1601   1.349   .     S
C1306  O1653   1.389   .     S
C1308  O1368   1.312   .     A
C1308  O1366   1.307   .     A
C1309  O1367   1.317   .     A
C1309  O1369   1.301   .     A
C1310  H1311   1.070   .     S
H1325  C1396   1.113   .     S
H1326  C1396   1.104   .     S
H1338  C1400   1.103   .     S
N1351  Zn1372  2.061   .     S
N1351  N1450   1.285   .     S
N1351  O1459   1.351   .     S
N1352  Zn1371  2.061   .     S
O1353  Zn1371  2.034   .     S
O1355  C1586   1.411   .     S
O1360  C1601   1.387   .     S
O1362  C1401   1.401   .     S
O1362  N1450   1.349   .     S
O1363  Zn1372  2.034   .     S
O1364  Zn1372  2.024   .     S
O1365  Zn1371  2.024   .     S
O1366  Zn1371  1.972   .     S
O1367  Zn1372  1.972   .     S
O1368  Zn1372  2.031   .     S
O1369  Zn1371  2.031   .     S
C1373  O1462   1.307   .     A
C1373  C1404   1.438   .     S
C1373  O1451   1.303   .     A
C1374  C1385   1.399   .     A
C1374  H1420   1.084   .     S
C1374  C1376   1.404   .     A
C1375  C1407   1.449   .     S
C1375  C1377   1.408   .     A
C1375  C1408   1.382   .     A
C1376  C1406   1.445   .     S
C1376  C1378   1.413   .     A
C1377  O1468   1.383   .     S
C1377  C1379   1.420   .     A
C1378  C1380   1.392   .     A
C1378  O1452   1.394   .     S
C1379  C1386   1.417   .     A
C1379  C1381   1.415   .     A
C1380  C1387   1.407   .     A
C1380  C1382   1.411   .     A
C1381  C1383   1.406   .     A
C1382  C1385   1.400   .     A
C1382  C499    1.396   1_556 S
C1383  C1408   1.381   .     A
C1383  C1403   1.402   .     A
C1384  O1463   1.302   .     A
C1384  O1461   1.307   .     A
C1384  C1405   1.430   .     S
C1385  C1395   1.408   .     A
C1386  O1453   1.384   .     S
C1387  O1454   1.379   .     S
C1387  C521    1.390   1_556 S
C1388  H1444   1.107   .     S
C1388  O1468   1.414   .     S
C1388  H1442   1.106   .     S
C1388  H1431   1.111   .     S
C1389  H1445   1.108   .     S
C1389  H1446   1.108   .     S
C1389  O1452   1.399   .     S
C1389  H1447   1.106   .     S
C1390  C1391   1.525   .     S
C1390  H1448   1.112   .     S
C1390  H1410   1.108   .     S
C1391  H1411   1.100   .     S
C1391  H1412   1.110   .     S
C1391  H1413   1.104   .     S
C1392  O1454   1.404   .     S
C1392  H1414   1.110   .     S
C1392  H1415   1.107   .     S
C1393  H1417   1.110   .     S
C1393  H1416   1.106   .     S
C1393  H1418   1.107   .     S
C1393  C1686   1.514   .     S
C1394  H1421   1.111   .     S
C1394  O1455   1.407   .     S
C1394  H1713   1.108   .     S
C1394  H1716   1.107   .     S
C1395  O1455   1.383   .     S
C1395  C504    1.420   1_556 S
C1396  H1425   1.111   .     S
C1396  O1456   1.409   .     S
C1397  H1427   1.106   .     S
C1397  H1426   1.112   .     S
C1397  H1722   1.104   .     S
C1397  O1751   1.406   .     S
C1398  H1430   1.111   .     S
C1398  O1458   1.412   .     S
C1398  H1432   1.103   .     S
C1398  H1723   1.111   .     S
C1399  H1433   1.111   .     S
C1399  H1434   1.100   .     S
C1399  C1204   1.534   1_655 S
C1399  O1263   1.400   1_655 S
C1400  H1437   1.091   .     S
C1400  H1435   1.109   .     S
C1401  H1439   1.115   .     S
C1401  H1438   1.108   .     S
C1402  H1443   1.110   .     S
C1402  H1441   1.108   .     S
C1402  H1440   1.102   .     S
C1402  C1205   1.508   1_655 S
C1403  O1456   1.377   .     S
C1404  C1699   1.349   .     S
C1404  O1751   1.389   .     S
C1406  O1466   1.312   .     A
C1406  O1464   1.307   .     A
C1407  O1465   1.317   .     A
C1407  O1467   1.301   .     A
C1408  H1409   1.070   .     S
H1423  C1200   1.113   1_655 S
H1424  C1200   1.104   1_655 S
H1436  C1204   1.103   1_655 S
N1449  Zn1470  2.061   .     S
N1449  N1254   1.285   1_655 S
N1449  O1263   1.351   1_655 S
N1450  Zn1469  2.061   .     S
O1451  Zn1469  2.034   .     S
O1453  C1684   1.411   .     S
O1458  C1699   1.387   .     S
O1460  C1205   1.401   1_655 S
O1460  N1254   1.349   1_655 S
O1461  Zn1470  2.034   .     S
O1462  Zn1470  2.024   .     S
O1463  Zn1469  2.024   .     S
O1464  Zn1469  1.972   .     S
O1465  Zn1470  1.972   .     S
O1466  Zn1470  2.031   .     S
O1467  Zn1469  2.031   .     S
C1471  O1560   1.307   .     A
C1471  C1502   1.438   .     S
C1471  O1549   1.303   .     A
C1472  C1483   1.399   .     A
C1472  H1518   1.084   .     S
C1472  C1474   1.404   .     A
C1473  C1505   1.449   .     S
C1473  C1475   1.408   .     A
C1473  C1506   1.382   .     A
C1474  C1504   1.445   .     S
C1474  C1476   1.413   .     A
C1475  O1566   1.383   .     S
C1475  C1477   1.420   .     A
C1476  C1478   1.392   .     A
C1476  O1550   1.394   .     S
C1477  C1484   1.417   .     A
C1477  C1479   1.415   .     A
C1478  C1485   1.407   .     A
C1478  C1480   1.411   .     A
C1479  C1481   1.406   .     A
C1480  C1483   1.400   .     A
C1480  C597    1.396   1_556 S
C1481  C1506   1.381   .     A
C1481  C1501   1.402   .     A
C1482  O1561   1.302   .     A
C1482  O1559   1.307   .     A
C1482  C1503   1.430   .     S
C1483  C1493   1.408   .     A
C1484  O1551   1.384   .     S
C1485  O1552   1.379   .     S
C1485  C619    1.390   1_556 S
C1486  H1542   1.107   .     S
C1486  O1566   1.414   .     S
C1486  H1540   1.106   .     S
C1486  H1529   1.111   .     S
C1487  H1543   1.108   .     S
C1487  H1544   1.108   .     S
C1487  O1550   1.399   .     S
C1487  H1545   1.106   .     S
C1488  C1489   1.525   .     S
C1488  H1546   1.112   .     S
C1488  H1508   1.108   .     S
C1489  H1509   1.100   .     S
C1489  H1510   1.110   .     S
C1489  H1511   1.104   .     S
C1490  O1552   1.404   .     S
C1490  H1512   1.110   .     S
C1490  H1513   1.107   .     S
C1491  H1515   1.110   .     S
C1491  H1514   1.106   .     S
C1491  H1516   1.107   .     S
C1491  C902    1.514   1_565 S
C1492  H1519   1.111   .     S
C1492  O1553   1.407   .     S
C1492  H929    1.108   1_565 S
C1492  H932    1.107   1_565 S
C1493  O1553   1.383   .     S
C1493  C602    1.420   1_556 S
C1494  H1523   1.111   .     S
C1494  O1554   1.409   .     S
C1494  H1717   1.113   1_455 S
C1494  H1718   1.104   1_455 S
C1495  H1525   1.106   .     S
C1495  H1524   1.112   .     S
C1495  H938    1.104   1_565 S
C1495  O967    1.406   1_565 S
C1496  H1528   1.111   .     S
C1496  O1556   1.412   .     S
C1496  H1530   1.103   .     S
C1496  H939    1.111   1_565 S
C1497  H1531   1.111   .     S
C1497  H1532   1.100   .     S
C1497  C1596   1.534   .     S
C1497  O1655   1.400   .     S
C1498  H1535   1.091   .     S
C1498  H1533   1.109   .     S
C1498  C1693   1.534   1_455 S
C1498  H1730   1.103   1_455 S
C1499  H1537   1.115   .     S
C1499  H1536   1.108   .     S
C1499  C1696   1.508   1_455 S
C1499  O1754   1.401   1_455 S
C1500  H1541   1.110   .     S
C1500  H1539   1.108   .     S
C1500  H1538   1.102   .     S
C1500  C1597   1.508   .     S
C1501  O1554   1.377   .     S
C1502  C915    1.349   1_565 S
C1502  O967    1.389   1_565 S
C1504  O1564   1.312   .     A
C1504  O1562   1.307   .     A
C1505  O1563   1.317   .     A
C1505  O1565   1.301   .     A
C1506  H1507   1.070   .     S
H1521  C1592   1.113   .     S
H1522  C1592   1.104   .     S
H1534  C1596   1.103   .     S
N1547  Zn1568  2.061   .     S
N1547  N1646   1.285   .     S
N1547  O1655   1.351   .     S
N1548  Zn1567  2.061   .     S
N1548  N1743   1.285   1_455 S
N1548  O1754   1.349   1_455 S
O1549  Zn1567  2.034   .     S
O1551  C900    1.411   1_565 S
O1556  C915    1.387   1_565 S
O1557  N1743   1.351   1_455 S
O1557  C1693   1.400   1_455 S
O1558  C1597   1.401   .     S
O1558  N1646   1.349   .     S
O1559  Zn1568  2.034   .     S
O1560  Zn1568  2.024   .     S
O1561  Zn1567  2.024   .     S
O1562  Zn1567  1.972   .     S
O1563  Zn1568  1.972   .     S
O1564  Zn1568  2.031   .     S
O1565  Zn1567  2.031   .     S
C1569  O1658   1.307   .     A
C1569  C1600   1.438   .     S
C1569  O1647   1.303   .     A
C1570  C1581   1.399   .     A
C1570  H1616   1.084   .     S
C1570  C1572   1.404   .     A
C1571  C1603   1.449   .     S
C1571  C1573   1.408   .     A
C1571  C1604   1.382   .     A
C1572  C1602   1.445   .     S
C1572  C1574   1.413   .     A
C1573  O1664   1.383   .     S
C1573  C1575   1.420   .     A
C1574  C1576   1.392   .     A
C1574  O1648   1.394   .     S
C1575  C1582   1.417   .     A
C1575  C1577   1.415   .     A
C1576  C1583   1.407   .     A
C1576  C1578   1.411   .     A
C1577  C1579   1.406   .     A
C1578  C1581   1.400   .     A
C1578  C695    1.396   1_556 S
C1579  C1604   1.381   .     A
C1579  C1599   1.402   .     A
C1580  O1659   1.302   .     A
C1580  O1657   1.307   .     A
C1580  C1601   1.430   .     S
C1581  C1591   1.408   .     A
C1582  O1649   1.384   .     S
C1583  O1650   1.379   .     S
C1583  C717    1.390   1_556 S
C1584  H1640   1.107   .     S
C1584  O1664   1.414   .     S
C1584  H1638   1.106   .     S
C1584  H1627   1.111   .     S
C1585  H1641   1.108   .     S
C1585  H1642   1.108   .     S
C1585  O1648   1.399   .     S
C1585  H1643   1.106   .     S
C1586  C1587   1.525   .     S
C1586  H1644   1.112   .     S
C1586  H1606   1.108   .     S
C1587  H1607   1.100   .     S
C1587  H1608   1.110   .     S
C1587  H1609   1.104   .     S
C1588  O1650   1.404   .     S
C1588  H1610   1.110   .     S
C1588  H1611   1.107   .     S
C1589  H1613   1.110   .     S
C1589  H1612   1.106   .     S
C1589  H1614   1.107   .     S
C1589  C1000   1.514   1_565 S
C1590  H1617   1.111   .     S
C1590  O1651   1.407   .     S
C1590  H1027   1.108   1_565 S
C1590  H1030   1.107   1_565 S
C1591  O1651   1.383   .     S
C1591  C700    1.420   1_556 S
C1592  H1621   1.111   .     S
C1592  O1652   1.409   .     S
C1593  H1623   1.106   .     S
C1593  H1622   1.112   .     S
C1593  H1036   1.104   1_565 S
C1593  O1065   1.406   1_565 S
C1594  H1626   1.111   .     S
C1594  O1654   1.412   .     S
C1594  H1628   1.103   .     S
C1594  H1037   1.111   1_565 S
C1595  H1629   1.111   .     S
C1595  H1630   1.100   .     S
C1595  C1694   1.534   .     S
C1595  O1753   1.400   .     S
C1596  H1633   1.091   .     S
C1596  H1631   1.109   .     S
C1597  H1635   1.115   .     S
C1597  H1634   1.108   .     S
C1598  H1639   1.110   .     S
C1598  H1637   1.108   .     S
C1598  H1636   1.102   .     S
C1598  C1695   1.508   .     S
C1599  O1652   1.377   .     S
C1600  C1013   1.349   1_565 S
C1600  O1065   1.389   1_565 S
C1602  O1662   1.312   .     A
C1602  O1660   1.307   .     A
C1603  O1661   1.317   .     A
C1603  O1663   1.301   .     A
C1604  H1605   1.070   .     S
H1619  C1690   1.113   .     S
H1620  C1690   1.104   .     S
H1632  C1694   1.103   .     S
N1645  Zn1666  2.061   .     S
N1645  N1744   1.285   .     S
N1645  O1753   1.351   .     S
N1646  Zn1665  2.061   .     S
O1647  Zn1665  2.034   .     S
O1649  C998    1.411   1_565 S
O1654  C1013   1.387   1_565 S
O1656  C1695   1.401   .     S
O1656  N1744   1.349   .     S
O1657  Zn1666  2.034   .     S
O1658  Zn1666  2.024   .     S
O1659  Zn1665  2.024   .     S
O1660  Zn1665  1.972   .     S
O1661  Zn1666  1.972   .     S
O1662  Zn1666  2.031   .     S
O1663  Zn1665  2.031   .     S
C1667  O1756   1.307   .     A
C1667  C1698   1.438   .     S
C1667  O1745   1.303   .     A
C1668  C1679   1.399   .     A
C1668  H1714   1.084   .     S
C1668  C1670   1.404   .     A
C1669  C1701   1.449   .     S
C1669  C1671   1.408   .     A
C1669  C1702   1.382   .     A
C1670  C1700   1.445   .     S
C1670  C1672   1.413   .     A
C1671  O1762   1.383   .     S
C1671  C1673   1.420   .     A
C1672  C1674   1.392   .     A
C1672  O1746   1.394   .     S
C1673  C1680   1.417   .     A
C1673  C1675   1.415   .     A
C1674  C1681   1.407   .     A
C1674  C1676   1.411   .     A
C1675  C1677   1.406   .     A
C1676  C1679   1.400   .     A
C1676  C793    1.396   1_556 S
C1677  C1702   1.381   .     A
C1677  C1697   1.402   .     A
C1678  O1757   1.302   .     A
C1678  O1755   1.307   .     A
C1678  C1699   1.430   .     S
C1679  C1689   1.408   .     A
C1680  O1747   1.384   .     S
C1681  O1748   1.379   .     S
C1681  C815    1.390   1_556 S
C1682  H1738   1.107   .     S
C1682  O1762   1.414   .     S
C1682  H1736   1.106   .     S
C1682  H1725   1.111   .     S
C1683  H1739   1.108   .     S
C1683  H1740   1.108   .     S
C1683  O1746   1.399   .     S
C1683  H1741   1.106   .     S
C1684  C1685   1.525   .     S
C1684  H1742   1.112   .     S
C1684  H1704   1.108   .     S
C1685  H1705   1.100   .     S
C1685  H1706   1.110   .     S
C1685  H1707   1.104   .     S
C1686  O1748   1.404   .     S
C1686  H1708   1.110   .     S
C1686  H1709   1.107   .     S
C1687  H1711   1.110   .     S
C1687  H1710   1.106   .     S
C1687  H1712   1.107   .     S
C1687  C1098   1.514   1_565 S
C1688  H1715   1.111   .     S
C1688  O1749   1.407   .     S
C1688  H1125   1.108   1_565 S
C1688  H1128   1.107   1_565 S
C1689  O1749   1.383   .     S
C1689  C798    1.420   1_556 S
C1690  H1719   1.111   .     S
C1690  O1750   1.409   .     S
C1691  H1721   1.106   .     S
C1691  H1720   1.112   .     S
C1691  H1134   1.104   1_565 S
C1691  O1163   1.406   1_565 S
C1692  H1724   1.111   .     S
C1692  O1752   1.412   .     S
C1692  H1726   1.103   .     S
C1692  H1135   1.111   1_565 S
C1693  H1727   1.111   .     S
C1693  H1728   1.100   .     S
C1693  C1498   1.534   1_655 S
C1693  O1557   1.400   1_655 S
C1694  H1731   1.091   .     S
C1694  H1729   1.109   .     S
C1695  H1733   1.115   .     S
C1695  H1732   1.108   .     S
C1696  H1737   1.110   .     S
C1696  H1735   1.108   .     S
C1696  H1734   1.102   .     S
C1696  C1499   1.508   1_655 S
C1697  O1750   1.377   .     S
C1698  C1111   1.349   1_565 S
C1698  O1163   1.389   1_565 S
C1700  O1760   1.312   .     A
C1700  O1758   1.307   .     A
C1701  O1759   1.317   .     A
C1701  O1761   1.301   .     A
C1702  H1703   1.070   .     S
H1717  C1494   1.113   1_655 S
H1718  C1494   1.104   1_655 S
H1730  C1498   1.103   1_655 S
N1743  Zn1764  2.061   .     S
N1743  N1548   1.285   1_655 S
N1743  O1557   1.351   1_655 S
N1744  Zn1763  2.061   .     S
O1745  Zn1763  2.034   .     S
O1747  C1096   1.411   1_565 S
O1752  C1111   1.387   1_565 S
O1754  C1499   1.401   1_655 S
O1754  N1548   1.349   1_655 S
O1755  Zn1764  2.034   .     S
O1756  Zn1764  2.024   .     S
O1757  Zn1763  2.024   .     S
O1758  Zn1763  1.972   .     S
O1759  Zn1764  1.972   .     S
O1760  Zn1764  2.031   .     S
O1761  Zn1763  2.031   .     S
