data_str_m3_o1_o5_pcu_sym.66
_audit_creation_date              2020-01-03
_audit_creation_method            'Materials Studio'
_symmetry_space_group_name_H-M    'P1'
_symmetry_Int_Tables_number       1
_symmetry_cell_setting            triclinic
loop_
_symmetry_equiv_pos_as_xyz
  x,y,z
_cell_length_a                    32.3752
_cell_length_b                    29.6373
_cell_length_c                    26.7208
_cell_angle_alpha                 90.0009
_cell_angle_beta                  91.3493
_cell_angle_gamma                 89.9590
loop_
_atom_site_label
_atom_site_type_symbol
_atom_site_fract_x
_atom_site_fract_y
_atom_site_fract_z
_atom_site_U_iso_or_equiv
_atom_site_adp_type
_atom_site_occupancy
C1     C     0.08677   0.16669   0.17091   0.00000  Uiso   1.00
C2     C     0.02076   0.20810   0.17259   0.00000  Uiso   1.00
C3     C     0.29100   0.16661   0.15860   0.00000  Uiso   1.00
C4     C     0.04233   0.16672   0.17473   0.00000  Uiso   1.00
C5     C     0.19149   0.02393   0.19959   0.00000  Uiso   1.00
C6     C     0.14185   0.30940   0.13374   0.00000  Uiso   1.00
C7     C     0.14184   0.02397   0.13375   0.00000  Uiso   1.00
C8     C     0.19150   0.30936   0.19958   0.00000  Uiso   1.00
C9     C     0.24657   0.16665   0.16242   0.00000  Uiso   1.00
C10    C     0.16656   0.16667   0.07291   0.00000  Uiso   1.00
C11    C     0.16677   0.16667   0.26043   0.00000  Uiso   1.00
C12    C     0.16663   0.16667   0.02180   0.00000  Uiso   1.00
C13    C     0.16670   0.16667   0.31153   0.00000  Uiso   1.00
C14    C     0.02083   0.12531   0.17312   0.00000  Uiso   1.00
C15    C     0.31250   0.20802   0.16022   0.00000  Uiso   1.00
C16    C     0.31258   0.12523   0.16074   0.00000  Uiso   1.00
Cl17   Cl    0.04356   0.07293   0.19126   0.00000  Uiso   1.00
Cl18   Cl    0.28977   0.26040   0.14207   0.00000  Uiso   1.00
Cl19   Cl    0.28998   0.07263   0.14325   0.00000  Uiso   1.00
Cl20   Cl    0.04336   0.26070   0.19008   0.00000  Uiso   1.00
Cl21   Cl    0.22375   0.05296   0.24260   0.00000  Uiso   1.00
Cl22   Cl    0.10958   0.28037   0.09073   0.00000  Uiso   1.00
Cl23   Cl    0.10948   0.05305   0.09084   0.00000  Uiso   1.00
Cl24   Cl    0.22385   0.28028   0.24249   0.00000  Uiso   1.00
N25    N     0.16667   0.28573   0.16667   0.00000  Uiso   1.00
N26    N     0.16667   0.04760   0.16667   0.00000  Uiso   1.00
O27    O     0.10559   0.20487   0.16666   0.00000  Uiso   1.00
O28    O     0.22774   0.12846   0.16667   0.00000  Uiso   1.00
O29    O     0.22774   0.20487   0.16667   0.00000  Uiso   1.00
O30    O     0.10559   0.12846   0.16666   0.00000  Uiso   1.00
O31    O     0.16667   0.20488   0.09511   0.00000  Uiso   1.00
O32    O     0.16666   0.12845   0.23822   0.00000  Uiso   1.00
O33    O     0.16666   0.20488   0.23822   0.00000  Uiso   1.00
O34    O     0.16667   0.12845   0.09511   0.00000  Uiso   1.00
Zn35   Zn    0.16667   0.21771   0.16667   0.00000  Uiso   1.00
Zn36   Zn    0.16667   0.11563   0.16667   0.00000  Uiso   1.00
C37    C     0.42010   0.16669   0.17091   0.00000  Uiso   1.00
C38    C     0.35409   0.20810   0.17259   0.00000  Uiso   1.00
C39    C     0.62433   0.16661   0.15860   0.00000  Uiso   1.00
C40    C     0.37567   0.16672   0.17473   0.00000  Uiso   1.00
C41    C     0.52482   0.02393   0.19959   0.00000  Uiso   1.00
C42    C     0.47518   0.30940   0.13374   0.00000  Uiso   1.00
C43    C     0.47517   0.02397   0.13375   0.00000  Uiso   1.00
C44    C     0.52483   0.30936   0.19958   0.00000  Uiso   1.00
C45    C     0.57990   0.16665   0.16242   0.00000  Uiso   1.00
C46    C     0.49989   0.16667   0.07291   0.00000  Uiso   1.00
C47    C     0.50011   0.16667   0.26043   0.00000  Uiso   1.00
C48    C     0.49996   0.16667   0.02180   0.00000  Uiso   1.00
C49    C     0.50004   0.16667   0.31153   0.00000  Uiso   1.00
C50    C     0.35417   0.12531   0.17312   0.00000  Uiso   1.00
C51    C     0.64583   0.20802   0.16022   0.00000  Uiso   1.00
C52    C     0.64591   0.12523   0.16074   0.00000  Uiso   1.00
Cl53   Cl    0.37689   0.07293   0.19126   0.00000  Uiso   1.00
Cl54   Cl    0.62311   0.26040   0.14207   0.00000  Uiso   1.00
Cl55   Cl    0.62331   0.07263   0.14325   0.00000  Uiso   1.00
Cl56   Cl    0.37669   0.26070   0.19008   0.00000  Uiso   1.00
Cl57   Cl    0.55708   0.05296   0.24260   0.00000  Uiso   1.00
Cl58   Cl    0.44292   0.28037   0.09073   0.00000  Uiso   1.00
Cl59   Cl    0.44282   0.05305   0.09084   0.00000  Uiso   1.00
Cl60   Cl    0.55718   0.28028   0.24249   0.00000  Uiso   1.00
N61    N     0.50000   0.28573   0.16667   0.00000  Uiso   1.00
N62    N     0.50000   0.04760   0.16667   0.00000  Uiso   1.00
O63    O     0.43892   0.20487   0.16666   0.00000  Uiso   1.00
O64    O     0.56108   0.12846   0.16667   0.00000  Uiso   1.00
O65    O     0.56108   0.20487   0.16667   0.00000  Uiso   1.00
O66    O     0.43892   0.12846   0.16666   0.00000  Uiso   1.00
O67    O     0.50000   0.20488   0.09511   0.00000  Uiso   1.00
O68    O     0.50000   0.12845   0.23822   0.00000  Uiso   1.00
O69    O     0.50000   0.20488   0.23822   0.00000  Uiso   1.00
O70    O     0.50000   0.12845   0.09511   0.00000  Uiso   1.00
Zn71   Zn    0.50000   0.21771   0.16667   0.00000  Uiso   1.00
Zn72   Zn    0.50000   0.11563   0.16667   0.00000  Uiso   1.00
C73    C     0.75343   0.16669   0.17091   0.00000  Uiso   1.00
C74    C     0.68742   0.20810   0.17259   0.00000  Uiso   1.00
C75    C     0.95767   0.16661   0.15860   0.00000  Uiso   1.00
C76    C     0.70900   0.16672   0.17473   0.00000  Uiso   1.00
C77    C     0.85815   0.02393   0.19959   0.00000  Uiso   1.00
C78    C     0.80851   0.30940   0.13374   0.00000  Uiso   1.00
C79    C     0.80850   0.02397   0.13375   0.00000  Uiso   1.00
C80    C     0.85816   0.30936   0.19958   0.00000  Uiso   1.00
C81    C     0.91323   0.16665   0.16242   0.00000  Uiso   1.00
C82    C     0.83322   0.16667   0.07291   0.00000  Uiso   1.00
C83    C     0.83344   0.16667   0.26043   0.00000  Uiso   1.00
C84    C     0.83329   0.16667   0.02180   0.00000  Uiso   1.00
C85    C     0.83337   0.16667   0.31153   0.00000  Uiso   1.00
C86    C     0.68750   0.12531   0.17312   0.00000  Uiso   1.00
C87    C     0.97917   0.20802   0.16022   0.00000  Uiso   1.00
C88    C     0.97924   0.12523   0.16074   0.00000  Uiso   1.00
Cl89   Cl    0.71023   0.07293   0.19126   0.00000  Uiso   1.00
Cl90   Cl    0.95644   0.26040   0.14207   0.00000  Uiso   1.00
Cl91   Cl    0.95664   0.07263   0.14325   0.00000  Uiso   1.00
Cl92   Cl    0.71002   0.26070   0.19008   0.00000  Uiso   1.00
Cl93   Cl    0.89042   0.05296   0.24260   0.00000  Uiso   1.00
Cl94   Cl    0.77625   0.28037   0.09073   0.00000  Uiso   1.00
Cl95   Cl    0.77615   0.05305   0.09084   0.00000  Uiso   1.00
Cl96   Cl    0.89052   0.28028   0.24249   0.00000  Uiso   1.00
N97    N     0.83333   0.28573   0.16667   0.00000  Uiso   1.00
N98    N     0.83333   0.04760   0.16667   0.00000  Uiso   1.00
O99    O     0.77226   0.20487   0.16666   0.00000  Uiso   1.00
O100   O     0.89441   0.12846   0.16667   0.00000  Uiso   1.00
O101   O     0.89441   0.20487   0.16667   0.00000  Uiso   1.00
O102   O     0.77226   0.12846   0.16666   0.00000  Uiso   1.00
O103   O     0.83334   0.20488   0.09511   0.00000  Uiso   1.00
O104   O     0.83333   0.12845   0.23822   0.00000  Uiso   1.00
O105   O     0.83333   0.20488   0.23822   0.00000  Uiso   1.00
O106   O     0.83334   0.12845   0.09511   0.00000  Uiso   1.00
Zn107  Zn    0.83333   0.21771   0.16667   0.00000  Uiso   1.00
Zn108  Zn    0.83333   0.11563   0.16667   0.00000  Uiso   1.00
C109   C     0.08677   0.50002   0.17091   0.00000  Uiso   1.00
C110   C     0.02076   0.54144   0.17259   0.00000  Uiso   1.00
C111   C     0.29100   0.49995   0.15860   0.00000  Uiso   1.00
C112   C     0.04233   0.50005   0.17473   0.00000  Uiso   1.00
C113   C     0.19149   0.35726   0.19959   0.00000  Uiso   1.00
C114   C     0.14185   0.64274   0.13374   0.00000  Uiso   1.00
C115   C     0.14184   0.35730   0.13375   0.00000  Uiso   1.00
C116   C     0.19150   0.64270   0.19958   0.00000  Uiso   1.00
C117   C     0.24657   0.49998   0.16242   0.00000  Uiso   1.00
C118   C     0.16656   0.50000   0.07291   0.00000  Uiso   1.00
C119   C     0.16677   0.50000   0.26043   0.00000  Uiso   1.00
C120   C     0.16663   0.50000   0.02180   0.00000  Uiso   1.00
C121   C     0.16670   0.50000   0.31153   0.00000  Uiso   1.00
C122   C     0.02083   0.45864   0.17312   0.00000  Uiso   1.00
C123   C     0.31250   0.54136   0.16022   0.00000  Uiso   1.00
C124   C     0.31258   0.45856   0.16074   0.00000  Uiso   1.00
Cl125  Cl    0.04356   0.40627   0.19126   0.00000  Uiso   1.00
Cl126  Cl    0.28977   0.59373   0.14207   0.00000  Uiso   1.00
Cl127  Cl    0.28998   0.40596   0.14325   0.00000  Uiso   1.00
Cl128  Cl    0.04336   0.59404   0.19008   0.00000  Uiso   1.00
Cl129  Cl    0.22375   0.38629   0.24260   0.00000  Uiso   1.00
Cl130  Cl    0.10958   0.61371   0.09073   0.00000  Uiso   1.00
Cl131  Cl    0.10948   0.38638   0.09084   0.00000  Uiso   1.00
Cl132  Cl    0.22385   0.61362   0.24249   0.00000  Uiso   1.00
N133   N     0.16667   0.61907   0.16667   0.00000  Uiso   1.00
N134   N     0.16667   0.38093   0.16667   0.00000  Uiso   1.00
O135   O     0.10559   0.53821   0.16666   0.00000  Uiso   1.00
O136   O     0.22774   0.46179   0.16667   0.00000  Uiso   1.00
O137   O     0.22774   0.53821   0.16667   0.00000  Uiso   1.00
O138   O     0.10559   0.46179   0.16666   0.00000  Uiso   1.00
O139   O     0.16667   0.53821   0.09511   0.00000  Uiso   1.00
O140   O     0.16666   0.46179   0.23822   0.00000  Uiso   1.00
O141   O     0.16666   0.53821   0.23822   0.00000  Uiso   1.00
O142   O     0.16667   0.46179   0.09511   0.00000  Uiso   1.00
Zn143  Zn    0.16667   0.55104   0.16667   0.00000  Uiso   1.00
Zn144  Zn    0.16667   0.44896   0.16667   0.00000  Uiso   1.00
C145   C     0.42010   0.50002   0.17091   0.00000  Uiso   1.00
C146   C     0.35409   0.54144   0.17259   0.00000  Uiso   1.00
C147   C     0.62433   0.49995   0.15860   0.00000  Uiso   1.00
C148   C     0.37567   0.50005   0.17473   0.00000  Uiso   1.00
C149   C     0.52482   0.35726   0.19959   0.00000  Uiso   1.00
C150   C     0.47518   0.64274   0.13374   0.00000  Uiso   1.00
C151   C     0.47517   0.35730   0.13375   0.00000  Uiso   1.00
C152   C     0.52483   0.64270   0.19958   0.00000  Uiso   1.00
C153   C     0.57990   0.49998   0.16242   0.00000  Uiso   1.00
C154   C     0.49989   0.50000   0.07291   0.00000  Uiso   1.00
C155   C     0.50011   0.50000   0.26043   0.00000  Uiso   1.00
C156   C     0.49996   0.50000   0.02180   0.00000  Uiso   1.00
C157   C     0.50004   0.50000   0.31153   0.00000  Uiso   1.00
C158   C     0.35417   0.45864   0.17312   0.00000  Uiso   1.00
C159   C     0.64583   0.54136   0.16022   0.00000  Uiso   1.00
C160   C     0.64591   0.45856   0.16074   0.00000  Uiso   1.00
Cl161  Cl    0.37689   0.40627   0.19126   0.00000  Uiso   1.00
Cl162  Cl    0.62311   0.59373   0.14207   0.00000  Uiso   1.00
Cl163  Cl    0.62331   0.40596   0.14325   0.00000  Uiso   1.00
Cl164  Cl    0.37669   0.59404   0.19008   0.00000  Uiso   1.00
Cl165  Cl    0.55708   0.38629   0.24260   0.00000  Uiso   1.00
Cl166  Cl    0.44292   0.61371   0.09073   0.00000  Uiso   1.00
Cl167  Cl    0.44282   0.38638   0.09084   0.00000  Uiso   1.00
Cl168  Cl    0.55718   0.61362   0.24249   0.00000  Uiso   1.00
N169   N     0.50000   0.61907   0.16667   0.00000  Uiso   1.00
N170   N     0.50000   0.38093   0.16667   0.00000  Uiso   1.00
O171   O     0.43892   0.53821   0.16666   0.00000  Uiso   1.00
O172   O     0.56108   0.46179   0.16667   0.00000  Uiso   1.00
O173   O     0.56108   0.53821   0.16667   0.00000  Uiso   1.00
O174   O     0.43892   0.46179   0.16666   0.00000  Uiso   1.00
O175   O     0.50000   0.53821   0.09511   0.00000  Uiso   1.00
O176   O     0.50000   0.46179   0.23822   0.00000  Uiso   1.00
O177   O     0.50000   0.53821   0.23822   0.00000  Uiso   1.00
O178   O     0.50000   0.46179   0.09511   0.00000  Uiso   1.00
Zn179  Zn    0.50000   0.55104   0.16667   0.00000  Uiso   1.00
Zn180  Zn    0.50000   0.44896   0.16667   0.00000  Uiso   1.00
C181   C     0.75343   0.50002   0.17091   0.00000  Uiso   1.00
C182   C     0.68742   0.54144   0.17259   0.00000  Uiso   1.00
C183   C     0.95767   0.49995   0.15860   0.00000  Uiso   1.00
C184   C     0.70900   0.50005   0.17473   0.00000  Uiso   1.00
C185   C     0.85815   0.35726   0.19959   0.00000  Uiso   1.00
C186   C     0.80851   0.64274   0.13374   0.00000  Uiso   1.00
C187   C     0.80850   0.35730   0.13375   0.00000  Uiso   1.00
C188   C     0.85816   0.64270   0.19958   0.00000  Uiso   1.00
C189   C     0.91323   0.49998   0.16242   0.00000  Uiso   1.00
C190   C     0.83322   0.50000   0.07291   0.00000  Uiso   1.00
C191   C     0.83344   0.50000   0.26043   0.00000  Uiso   1.00
C192   C     0.83329   0.50000   0.02180   0.00000  Uiso   1.00
C193   C     0.83337   0.50000   0.31153   0.00000  Uiso   1.00
C194   C     0.68750   0.45864   0.17312   0.00000  Uiso   1.00
C195   C     0.97917   0.54136   0.16022   0.00000  Uiso   1.00
C196   C     0.97924   0.45856   0.16074   0.00000  Uiso   1.00
Cl197  Cl    0.71023   0.40627   0.19126   0.00000  Uiso   1.00
Cl198  Cl    0.95644   0.59373   0.14207   0.00000  Uiso   1.00
Cl199  Cl    0.95664   0.40596   0.14325   0.00000  Uiso   1.00
Cl200  Cl    0.71002   0.59404   0.19008   0.00000  Uiso   1.00
Cl201  Cl    0.89042   0.38629   0.24260   0.00000  Uiso   1.00
Cl202  Cl    0.77625   0.61371   0.09073   0.00000  Uiso   1.00
Cl203  Cl    0.77615   0.38638   0.09084   0.00000  Uiso   1.00
Cl204  Cl    0.89052   0.61362   0.24249   0.00000  Uiso   1.00
N205   N     0.83333   0.61907   0.16667   0.00000  Uiso   1.00
N206   N     0.83333   0.38093   0.16667   0.00000  Uiso   1.00
O207   O     0.77226   0.53821   0.16666   0.00000  Uiso   1.00
O208   O     0.89441   0.46179   0.16667   0.00000  Uiso   1.00
O209   O     0.89441   0.53821   0.16667   0.00000  Uiso   1.00
O210   O     0.77226   0.46179   0.16666   0.00000  Uiso   1.00
O211   O     0.83334   0.53821   0.09511   0.00000  Uiso   1.00
O212   O     0.83333   0.46179   0.23822   0.00000  Uiso   1.00
O213   O     0.83333   0.53821   0.23822   0.00000  Uiso   1.00
O214   O     0.83334   0.46179   0.09511   0.00000  Uiso   1.00
Zn215  Zn    0.83333   0.55104   0.16667   0.00000  Uiso   1.00
Zn216  Zn    0.83333   0.44896   0.16667   0.00000  Uiso   1.00
C217   C     0.08677   0.83335   0.17091   0.00000  Uiso   1.00
C218   C     0.02076   0.87477   0.17259   0.00000  Uiso   1.00
C219   C     0.29100   0.83328   0.15860   0.00000  Uiso   1.00
C220   C     0.04233   0.83339   0.17473   0.00000  Uiso   1.00
C221   C     0.19149   0.69060   0.19959   0.00000  Uiso   1.00
C222   C     0.14185   0.97607   0.13374   0.00000  Uiso   1.00
C223   C     0.14184   0.69064   0.13375   0.00000  Uiso   1.00
C224   C     0.19150   0.97603   0.19958   0.00000  Uiso   1.00
C225   C     0.24657   0.83331   0.16242   0.00000  Uiso   1.00
C226   C     0.16656   0.83333   0.07291   0.00000  Uiso   1.00
C227   C     0.16677   0.83333   0.26043   0.00000  Uiso   1.00
C228   C     0.16663   0.83333   0.02180   0.00000  Uiso   1.00
C229   C     0.16670   0.83333   0.31153   0.00000  Uiso   1.00
C230   C     0.02083   0.79198   0.17312   0.00000  Uiso   1.00
C231   C     0.31250   0.87469   0.16022   0.00000  Uiso   1.00
C232   C     0.31258   0.79190   0.16074   0.00000  Uiso   1.00
Cl233  Cl    0.04356   0.73960   0.19126   0.00000  Uiso   1.00
Cl234  Cl    0.28977   0.92707   0.14207   0.00000  Uiso   1.00
Cl235  Cl    0.28998   0.73930   0.14325   0.00000  Uiso   1.00
Cl236  Cl    0.04336   0.92737   0.19008   0.00000  Uiso   1.00
Cl237  Cl    0.22375   0.71963   0.24260   0.00000  Uiso   1.00
Cl238  Cl    0.10958   0.94704   0.09073   0.00000  Uiso   1.00
Cl239  Cl    0.10948   0.71972   0.09084   0.00000  Uiso   1.00
Cl240  Cl    0.22385   0.94695   0.24249   0.00000  Uiso   1.00
N241   N     0.16667   0.95240   0.16667   0.00000  Uiso   1.00
N242   N     0.16667   0.71427   0.16667   0.00000  Uiso   1.00
O243   O     0.10559   0.87154   0.16666   0.00000  Uiso   1.00
O244   O     0.22774   0.79513   0.16667   0.00000  Uiso   1.00
O245   O     0.22774   0.87154   0.16667   0.00000  Uiso   1.00
O246   O     0.10559   0.79513   0.16666   0.00000  Uiso   1.00
O247   O     0.16667   0.87155   0.09511   0.00000  Uiso   1.00
O248   O     0.16666   0.79512   0.23822   0.00000  Uiso   1.00
O249   O     0.16666   0.87155   0.23822   0.00000  Uiso   1.00
O250   O     0.16667   0.79512   0.09511   0.00000  Uiso   1.00
Zn251  Zn    0.16667   0.88437   0.16667   0.00000  Uiso   1.00
Zn252  Zn    0.16667   0.78229   0.16667   0.00000  Uiso   1.00
C253   C     0.42010   0.83335   0.17091   0.00000  Uiso   1.00
C254   C     0.35409   0.87477   0.17259   0.00000  Uiso   1.00
C255   C     0.62433   0.83328   0.15860   0.00000  Uiso   1.00
C256   C     0.37567   0.83339   0.17473   0.00000  Uiso   1.00
C257   C     0.52482   0.69060   0.19959   0.00000  Uiso   1.00
C258   C     0.47518   0.97607   0.13374   0.00000  Uiso   1.00
C259   C     0.47517   0.69064   0.13375   0.00000  Uiso   1.00
C260   C     0.52483   0.97603   0.19958   0.00000  Uiso   1.00
C261   C     0.57990   0.83331   0.16242   0.00000  Uiso   1.00
C262   C     0.49989   0.83333   0.07291   0.00000  Uiso   1.00
C263   C     0.50011   0.83333   0.26043   0.00000  Uiso   1.00
C264   C     0.49996   0.83333   0.02180   0.00000  Uiso   1.00
C265   C     0.50004   0.83333   0.31153   0.00000  Uiso   1.00
C266   C     0.35417   0.79198   0.17312   0.00000  Uiso   1.00
C267   C     0.64583   0.87469   0.16022   0.00000  Uiso   1.00
C268   C     0.64591   0.79190   0.16074   0.00000  Uiso   1.00
Cl269  Cl    0.37689   0.73960   0.19126   0.00000  Uiso   1.00
Cl270  Cl    0.62311   0.92707   0.14207   0.00000  Uiso   1.00
Cl271  Cl    0.62331   0.73930   0.14325   0.00000  Uiso   1.00
Cl272  Cl    0.37669   0.92737   0.19008   0.00000  Uiso   1.00
Cl273  Cl    0.55708   0.71963   0.24260   0.00000  Uiso   1.00
Cl274  Cl    0.44292   0.94704   0.09073   0.00000  Uiso   1.00
Cl275  Cl    0.44282   0.71972   0.09084   0.00000  Uiso   1.00
Cl276  Cl    0.55718   0.94695   0.24249   0.00000  Uiso   1.00
N277   N     0.50000   0.95240   0.16667   0.00000  Uiso   1.00
N278   N     0.50000   0.71427   0.16667   0.00000  Uiso   1.00
O279   O     0.43892   0.87154   0.16666   0.00000  Uiso   1.00
O280   O     0.56108   0.79513   0.16667   0.00000  Uiso   1.00
O281   O     0.56108   0.87154   0.16667   0.00000  Uiso   1.00
O282   O     0.43892   0.79513   0.16666   0.00000  Uiso   1.00
O283   O     0.50000   0.87155   0.09511   0.00000  Uiso   1.00
O284   O     0.50000   0.79512   0.23822   0.00000  Uiso   1.00
O285   O     0.50000   0.87155   0.23822   0.00000  Uiso   1.00
O286   O     0.50000   0.79512   0.09511   0.00000  Uiso   1.00
Zn287  Zn    0.50000   0.88437   0.16667   0.00000  Uiso   1.00
Zn288  Zn    0.50000   0.78229   0.16667   0.00000  Uiso   1.00
C289   C     0.75343   0.83335   0.17091   0.00000  Uiso   1.00
C290   C     0.68742   0.87477   0.17259   0.00000  Uiso   1.00
C291   C     0.95767   0.83328   0.15860   0.00000  Uiso   1.00
C292   C     0.70900   0.83339   0.17473   0.00000  Uiso   1.00
C293   C     0.85815   0.69060   0.19959   0.00000  Uiso   1.00
C294   C     0.80851   0.97607   0.13374   0.00000  Uiso   1.00
C295   C     0.80850   0.69064   0.13375   0.00000  Uiso   1.00
C296   C     0.85816   0.97603   0.19958   0.00000  Uiso   1.00
C297   C     0.91323   0.83331   0.16242   0.00000  Uiso   1.00
C298   C     0.83322   0.83333   0.07291   0.00000  Uiso   1.00
C299   C     0.83344   0.83333   0.26043   0.00000  Uiso   1.00
C300   C     0.83329   0.83333   0.02180   0.00000  Uiso   1.00
C301   C     0.83337   0.83333   0.31153   0.00000  Uiso   1.00
C302   C     0.68750   0.79198   0.17312   0.00000  Uiso   1.00
C303   C     0.97917   0.87469   0.16022   0.00000  Uiso   1.00
C304   C     0.97924   0.79190   0.16074   0.00000  Uiso   1.00
Cl305  Cl    0.71023   0.73960   0.19126   0.00000  Uiso   1.00
Cl306  Cl    0.95644   0.92707   0.14207   0.00000  Uiso   1.00
Cl307  Cl    0.95664   0.73930   0.14325   0.00000  Uiso   1.00
Cl308  Cl    0.71002   0.92737   0.19008   0.00000  Uiso   1.00
Cl309  Cl    0.89042   0.71963   0.24260   0.00000  Uiso   1.00
Cl310  Cl    0.77625   0.94704   0.09073   0.00000  Uiso   1.00
Cl311  Cl    0.77615   0.71972   0.09084   0.00000  Uiso   1.00
Cl312  Cl    0.89052   0.94695   0.24249   0.00000  Uiso   1.00
N313   N     0.83333   0.95240   0.16667   0.00000  Uiso   1.00
N314   N     0.83333   0.71427   0.16667   0.00000  Uiso   1.00
O315   O     0.77226   0.87154   0.16666   0.00000  Uiso   1.00
O316   O     0.89441   0.79513   0.16667   0.00000  Uiso   1.00
O317   O     0.89441   0.87154   0.16667   0.00000  Uiso   1.00
O318   O     0.77226   0.79513   0.16666   0.00000  Uiso   1.00
O319   O     0.83334   0.87155   0.09511   0.00000  Uiso   1.00
O320   O     0.83333   0.79512   0.23822   0.00000  Uiso   1.00
O321   O     0.83333   0.87155   0.23822   0.00000  Uiso   1.00
O322   O     0.83334   0.79512   0.09511   0.00000  Uiso   1.00
Zn323  Zn    0.83333   0.88437   0.16667   0.00000  Uiso   1.00
Zn324  Zn    0.83333   0.78229   0.16667   0.00000  Uiso   1.00
C325   C     0.08677   0.16669   0.50424   0.00000  Uiso   1.00
C326   C     0.02076   0.20810   0.50592   0.00000  Uiso   1.00
C327   C     0.29100   0.16661   0.49193   0.00000  Uiso   1.00
C328   C     0.04233   0.16672   0.50807   0.00000  Uiso   1.00
C329   C     0.19149   0.02393   0.53292   0.00000  Uiso   1.00
C330   C     0.14185   0.30940   0.46708   0.00000  Uiso   1.00
C331   C     0.14184   0.02397   0.46709   0.00000  Uiso   1.00
C332   C     0.19150   0.30936   0.53291   0.00000  Uiso   1.00
C333   C     0.24657   0.16665   0.49576   0.00000  Uiso   1.00
C334   C     0.16656   0.16667   0.40624   0.00000  Uiso   1.00
C335   C     0.16677   0.16667   0.59376   0.00000  Uiso   1.00
C336   C     0.16663   0.16667   0.35513   0.00000  Uiso   1.00
C337   C     0.16670   0.16667   0.64487   0.00000  Uiso   1.00
C338   C     0.02083   0.12531   0.50645   0.00000  Uiso   1.00
C339   C     0.31250   0.20802   0.49355   0.00000  Uiso   1.00
C340   C     0.31258   0.12523   0.49408   0.00000  Uiso   1.00
Cl341  Cl    0.04356   0.07293   0.52459   0.00000  Uiso   1.00
Cl342  Cl    0.28977   0.26040   0.47541   0.00000  Uiso   1.00
Cl343  Cl    0.28998   0.07263   0.47658   0.00000  Uiso   1.00
Cl344  Cl    0.04336   0.26070   0.52342   0.00000  Uiso   1.00
Cl345  Cl    0.22375   0.05296   0.57593   0.00000  Uiso   1.00
Cl346  Cl    0.10958   0.28037   0.42407   0.00000  Uiso   1.00
Cl347  Cl    0.10948   0.05305   0.42418   0.00000  Uiso   1.00
Cl348  Cl    0.22385   0.28028   0.57582   0.00000  Uiso   1.00
N349   N     0.16667   0.28573   0.50000   0.00000  Uiso   1.00
N350   N     0.16667   0.04760   0.50000   0.00000  Uiso   1.00
O351   O     0.10559   0.20487   0.50000   0.00000  Uiso   1.00
O352   O     0.22774   0.12846   0.50000   0.00000  Uiso   1.00
O353   O     0.22774   0.20487   0.50000   0.00000  Uiso   1.00
O354   O     0.10559   0.12846   0.50000   0.00000  Uiso   1.00
O355   O     0.16667   0.20488   0.42845   0.00000  Uiso   1.00
O356   O     0.16666   0.12845   0.57155   0.00000  Uiso   1.00
O357   O     0.16666   0.20488   0.57155   0.00000  Uiso   1.00
O358   O     0.16667   0.12845   0.42845   0.00000  Uiso   1.00
Zn359  Zn    0.16667   0.21771   0.50000   0.00000  Uiso   1.00
Zn360  Zn    0.16667   0.11563   0.50000   0.00000  Uiso   1.00
C361   C     0.42010   0.16669   0.50424   0.00000  Uiso   1.00
C362   C     0.35409   0.20810   0.50592   0.00000  Uiso   1.00
C363   C     0.62433   0.16661   0.49193   0.00000  Uiso   1.00
C364   C     0.37567   0.16672   0.50807   0.00000  Uiso   1.00
C365   C     0.52482   0.02393   0.53292   0.00000  Uiso   1.00
C366   C     0.47518   0.30940   0.46708   0.00000  Uiso   1.00
C367   C     0.47517   0.02397   0.46709   0.00000  Uiso   1.00
C368   C     0.52483   0.30936   0.53291   0.00000  Uiso   1.00
C369   C     0.57990   0.16665   0.49576   0.00000  Uiso   1.00
C370   C     0.49989   0.16667   0.40624   0.00000  Uiso   1.00
C371   C     0.50011   0.16667   0.59376   0.00000  Uiso   1.00
C372   C     0.49996   0.16667   0.35513   0.00000  Uiso   1.00
C373   C     0.50004   0.16667   0.64487   0.00000  Uiso   1.00
C374   C     0.35417   0.12531   0.50645   0.00000  Uiso   1.00
C375   C     0.64583   0.20802   0.49355   0.00000  Uiso   1.00
C376   C     0.64591   0.12523   0.49408   0.00000  Uiso   1.00
Cl377  Cl    0.37689   0.07293   0.52459   0.00000  Uiso   1.00
Cl378  Cl    0.62311   0.26040   0.47541   0.00000  Uiso   1.00
Cl379  Cl    0.62331   0.07263   0.47658   0.00000  Uiso   1.00
Cl380  Cl    0.37669   0.26070   0.52342   0.00000  Uiso   1.00
Cl381  Cl    0.55708   0.05296   0.57593   0.00000  Uiso   1.00
Cl382  Cl    0.44292   0.28037   0.42407   0.00000  Uiso   1.00
Cl383  Cl    0.44282   0.05305   0.42418   0.00000  Uiso   1.00
Cl384  Cl    0.55718   0.28028   0.57582   0.00000  Uiso   1.00
N385   N     0.50000   0.28573   0.50000   0.00000  Uiso   1.00
N386   N     0.50000   0.04760   0.50000   0.00000  Uiso   1.00
O387   O     0.43892   0.20487   0.50000   0.00000  Uiso   1.00
O388   O     0.56108   0.12846   0.50000   0.00000  Uiso   1.00
O389   O     0.56108   0.20487   0.50000   0.00000  Uiso   1.00
O390   O     0.43892   0.12846   0.50000   0.00000  Uiso   1.00
O391   O     0.50000   0.20488   0.42845   0.00000  Uiso   1.00
O392   O     0.50000   0.12845   0.57155   0.00000  Uiso   1.00
O393   O     0.50000   0.20488   0.57155   0.00000  Uiso   1.00
O394   O     0.50000   0.12845   0.42845   0.00000  Uiso   1.00
Zn395  Zn    0.50000   0.21771   0.50000   0.00000  Uiso   1.00
Zn396  Zn    0.50000   0.11563   0.50000   0.00000  Uiso   1.00
C397   C     0.75343   0.16669   0.50424   0.00000  Uiso   1.00
C398   C     0.68742   0.20810   0.50592   0.00000  Uiso   1.00
C399   C     0.95767   0.16661   0.49193   0.00000  Uiso   1.00
C400   C     0.70900   0.16672   0.50807   0.00000  Uiso   1.00
C401   C     0.85815   0.02393   0.53292   0.00000  Uiso   1.00
C402   C     0.80851   0.30940   0.46708   0.00000  Uiso   1.00
C403   C     0.80850   0.02397   0.46709   0.00000  Uiso   1.00
C404   C     0.85816   0.30936   0.53291   0.00000  Uiso   1.00
C405   C     0.91323   0.16665   0.49576   0.00000  Uiso   1.00
C406   C     0.83322   0.16667   0.40624   0.00000  Uiso   1.00
C407   C     0.83344   0.16667   0.59376   0.00000  Uiso   1.00
C408   C     0.83329   0.16667   0.35513   0.00000  Uiso   1.00
C409   C     0.83337   0.16667   0.64487   0.00000  Uiso   1.00
C410   C     0.68750   0.12531   0.50645   0.00000  Uiso   1.00
C411   C     0.97917   0.20802   0.49355   0.00000  Uiso   1.00
C412   C     0.97924   0.12523   0.49408   0.00000  Uiso   1.00
Cl413  Cl    0.71023   0.07293   0.52459   0.00000  Uiso   1.00
Cl414  Cl    0.95644   0.26040   0.47541   0.00000  Uiso   1.00
Cl415  Cl    0.95664   0.07263   0.47658   0.00000  Uiso   1.00
Cl416  Cl    0.71002   0.26070   0.52342   0.00000  Uiso   1.00
Cl417  Cl    0.89042   0.05296   0.57593   0.00000  Uiso   1.00
Cl418  Cl    0.77625   0.28037   0.42407   0.00000  Uiso   1.00
Cl419  Cl    0.77615   0.05305   0.42418   0.00000  Uiso   1.00
Cl420  Cl    0.89052   0.28028   0.57582   0.00000  Uiso   1.00
N421   N     0.83333   0.28573   0.50000   0.00000  Uiso   1.00
N422   N     0.83333   0.04760   0.50000   0.00000  Uiso   1.00
O423   O     0.77226   0.20487   0.50000   0.00000  Uiso   1.00
O424   O     0.89441   0.12846   0.50000   0.00000  Uiso   1.00
O425   O     0.89441   0.20487   0.50000   0.00000  Uiso   1.00
O426   O     0.77226   0.12846   0.50000   0.00000  Uiso   1.00
O427   O     0.83334   0.20488   0.42845   0.00000  Uiso   1.00
O428   O     0.83333   0.12845   0.57155   0.00000  Uiso   1.00
O429   O     0.83333   0.20488   0.57155   0.00000  Uiso   1.00
O430   O     0.83334   0.12845   0.42845   0.00000  Uiso   1.00
Zn431  Zn    0.83333   0.21771   0.50000   0.00000  Uiso   1.00
Zn432  Zn    0.83333   0.11563   0.50000   0.00000  Uiso   1.00
C433   C     0.08677   0.50002   0.50424   0.00000  Uiso   1.00
C434   C     0.02076   0.54144   0.50592   0.00000  Uiso   1.00
C435   C     0.29100   0.49995   0.49193   0.00000  Uiso   1.00
C436   C     0.04233   0.50005   0.50807   0.00000  Uiso   1.00
C437   C     0.19149   0.35726   0.53292   0.00000  Uiso   1.00
C438   C     0.14185   0.64274   0.46708   0.00000  Uiso   1.00
C439   C     0.14184   0.35730   0.46709   0.00000  Uiso   1.00
C440   C     0.19150   0.64270   0.53291   0.00000  Uiso   1.00
C441   C     0.24657   0.49998   0.49576   0.00000  Uiso   1.00
C442   C     0.16656   0.50000   0.40624   0.00000  Uiso   1.00
C443   C     0.16677   0.50000   0.59376   0.00000  Uiso   1.00
C444   C     0.16663   0.50000   0.35513   0.00000  Uiso   1.00
C445   C     0.16670   0.50000   0.64487   0.00000  Uiso   1.00
C446   C     0.02083   0.45864   0.50645   0.00000  Uiso   1.00
C447   C     0.31250   0.54136   0.49355   0.00000  Uiso   1.00
C448   C     0.31258   0.45856   0.49408   0.00000  Uiso   1.00
Cl449  Cl    0.04356   0.40627   0.52459   0.00000  Uiso   1.00
Cl450  Cl    0.28977   0.59373   0.47541   0.00000  Uiso   1.00
Cl451  Cl    0.28998   0.40596   0.47658   0.00000  Uiso   1.00
Cl452  Cl    0.04336   0.59404   0.52342   0.00000  Uiso   1.00
Cl453  Cl    0.22375   0.38629   0.57593   0.00000  Uiso   1.00
Cl454  Cl    0.10958   0.61371   0.42407   0.00000  Uiso   1.00
Cl455  Cl    0.10948   0.38638   0.42418   0.00000  Uiso   1.00
Cl456  Cl    0.22385   0.61362   0.57582   0.00000  Uiso   1.00
N457   N     0.16667   0.61907   0.50000   0.00000  Uiso   1.00
N458   N     0.16667   0.38093   0.50000   0.00000  Uiso   1.00
O459   O     0.10559   0.53821   0.50000   0.00000  Uiso   1.00
O460   O     0.22774   0.46179   0.50000   0.00000  Uiso   1.00
O461   O     0.22774   0.53821   0.50000   0.00000  Uiso   1.00
O462   O     0.10559   0.46179   0.50000   0.00000  Uiso   1.00
O463   O     0.16667   0.53821   0.42845   0.00000  Uiso   1.00
O464   O     0.16666   0.46179   0.57155   0.00000  Uiso   1.00
O465   O     0.16666   0.53821   0.57155   0.00000  Uiso   1.00
O466   O     0.16667   0.46179   0.42845   0.00000  Uiso   1.00
Zn467  Zn    0.16667   0.55104   0.50000   0.00000  Uiso   1.00
Zn468  Zn    0.16667   0.44896   0.50000   0.00000  Uiso   1.00
C469   C     0.42010   0.50002   0.50424   0.00000  Uiso   1.00
C470   C     0.35409   0.54144   0.50592   0.00000  Uiso   1.00
C471   C     0.62433   0.49995   0.49193   0.00000  Uiso   1.00
C472   C     0.37567   0.50005   0.50807   0.00000  Uiso   1.00
C473   C     0.52482   0.35726   0.53292   0.00000  Uiso   1.00
C474   C     0.47518   0.64274   0.46708   0.00000  Uiso   1.00
C475   C     0.47517   0.35730   0.46709   0.00000  Uiso   1.00
C476   C     0.52483   0.64270   0.53291   0.00000  Uiso   1.00
C477   C     0.57990   0.49998   0.49576   0.00000  Uiso   1.00
C478   C     0.49989   0.50000   0.40624   0.00000  Uiso   1.00
C479   C     0.50011   0.50000   0.59376   0.00000  Uiso   1.00
C480   C     0.49996   0.50000   0.35513   0.00000  Uiso   1.00
C481   C     0.50004   0.50000   0.64487   0.00000  Uiso   1.00
C482   C     0.35417   0.45864   0.50645   0.00000  Uiso   1.00
C483   C     0.64583   0.54136   0.49355   0.00000  Uiso   1.00
C484   C     0.64591   0.45856   0.49408   0.00000  Uiso   1.00
Cl485  Cl    0.37689   0.40627   0.52459   0.00000  Uiso   1.00
Cl486  Cl    0.62311   0.59373   0.47541   0.00000  Uiso   1.00
Cl487  Cl    0.62331   0.40596   0.47658   0.00000  Uiso   1.00
Cl488  Cl    0.37669   0.59404   0.52342   0.00000  Uiso   1.00
Cl489  Cl    0.55708   0.38629   0.57593   0.00000  Uiso   1.00
Cl490  Cl    0.44292   0.61371   0.42407   0.00000  Uiso   1.00
Cl491  Cl    0.44282   0.38638   0.42418   0.00000  Uiso   1.00
Cl492  Cl    0.55718   0.61362   0.57582   0.00000  Uiso   1.00
N493   N     0.50000   0.61907   0.50000   0.00000  Uiso   1.00
N494   N     0.50000   0.38093   0.50000   0.00000  Uiso   1.00
O495   O     0.43892   0.53821   0.50000   0.00000  Uiso   1.00
O496   O     0.56108   0.46179   0.50000   0.00000  Uiso   1.00
O497   O     0.56108   0.53821   0.50000   0.00000  Uiso   1.00
O498   O     0.43892   0.46179   0.50000   0.00000  Uiso   1.00
O499   O     0.50000   0.53821   0.42845   0.00000  Uiso   1.00
O500   O     0.50000   0.46179   0.57155   0.00000  Uiso   1.00
O501   O     0.50000   0.53821   0.57155   0.00000  Uiso   1.00
O502   O     0.50000   0.46179   0.42845   0.00000  Uiso   1.00
Zn503  Zn    0.50000   0.55104   0.50000   0.00000  Uiso   1.00
Zn504  Zn    0.50000   0.44896   0.50000   0.00000  Uiso   1.00
C505   C     0.75343   0.50002   0.50424   0.00000  Uiso   1.00
C506   C     0.68742   0.54144   0.50592   0.00000  Uiso   1.00
C507   C     0.95767   0.49995   0.49193   0.00000  Uiso   1.00
C508   C     0.70900   0.50005   0.50807   0.00000  Uiso   1.00
C509   C     0.85815   0.35726   0.53292   0.00000  Uiso   1.00
C510   C     0.80851   0.64274   0.46708   0.00000  Uiso   1.00
C511   C     0.80850   0.35730   0.46709   0.00000  Uiso   1.00
C512   C     0.85816   0.64270   0.53291   0.00000  Uiso   1.00
C513   C     0.91323   0.49998   0.49576   0.00000  Uiso   1.00
C514   C     0.83322   0.50000   0.40624   0.00000  Uiso   1.00
C515   C     0.83344   0.50000   0.59376   0.00000  Uiso   1.00
C516   C     0.83329   0.50000   0.35513   0.00000  Uiso   1.00
C517   C     0.83337   0.50000   0.64487   0.00000  Uiso   1.00
C518   C     0.68750   0.45864   0.50645   0.00000  Uiso   1.00
C519   C     0.97917   0.54136   0.49355   0.00000  Uiso   1.00
C520   C     0.97924   0.45856   0.49408   0.00000  Uiso   1.00
Cl521  Cl    0.71023   0.40627   0.52459   0.00000  Uiso   1.00
Cl522  Cl    0.95644   0.59373   0.47541   0.00000  Uiso   1.00
Cl523  Cl    0.95664   0.40596   0.47658   0.00000  Uiso   1.00
Cl524  Cl    0.71002   0.59404   0.52342   0.00000  Uiso   1.00
Cl525  Cl    0.89042   0.38629   0.57593   0.00000  Uiso   1.00
Cl526  Cl    0.77625   0.61371   0.42407   0.00000  Uiso   1.00
Cl527  Cl    0.77615   0.38638   0.42418   0.00000  Uiso   1.00
Cl528  Cl    0.89052   0.61362   0.57582   0.00000  Uiso   1.00
N529   N     0.83333   0.61907   0.50000   0.00000  Uiso   1.00
N530   N     0.83333   0.38093   0.50000   0.00000  Uiso   1.00
O531   O     0.77226   0.53821   0.50000   0.00000  Uiso   1.00
O532   O     0.89441   0.46179   0.50000   0.00000  Uiso   1.00
O533   O     0.89441   0.53821   0.50000   0.00000  Uiso   1.00
O534   O     0.77226   0.46179   0.50000   0.00000  Uiso   1.00
O535   O     0.83334   0.53821   0.42845   0.00000  Uiso   1.00
O536   O     0.83333   0.46179   0.57155   0.00000  Uiso   1.00
O537   O     0.83333   0.53821   0.57155   0.00000  Uiso   1.00
O538   O     0.83334   0.46179   0.42845   0.00000  Uiso   1.00
Zn539  Zn    0.83333   0.55104   0.50000   0.00000  Uiso   1.00
Zn540  Zn    0.83333   0.44896   0.50000   0.00000  Uiso   1.00
C541   C     0.08677   0.83335   0.50424   0.00000  Uiso   1.00
C542   C     0.02076   0.87477   0.50592   0.00000  Uiso   1.00
C543   C     0.29100   0.83328   0.49193   0.00000  Uiso   1.00
C544   C     0.04233   0.83339   0.50807   0.00000  Uiso   1.00
C545   C     0.19149   0.69060   0.53292   0.00000  Uiso   1.00
C546   C     0.14185   0.97607   0.46708   0.00000  Uiso   1.00
C547   C     0.14184   0.69064   0.46709   0.00000  Uiso   1.00
C548   C     0.19150   0.97603   0.53291   0.00000  Uiso   1.00
C549   C     0.24657   0.83331   0.49576   0.00000  Uiso   1.00
C550   C     0.16656   0.83333   0.40624   0.00000  Uiso   1.00
C551   C     0.16677   0.83333   0.59376   0.00000  Uiso   1.00
C552   C     0.16663   0.83333   0.35513   0.00000  Uiso   1.00
C553   C     0.16670   0.83333   0.64487   0.00000  Uiso   1.00
C554   C     0.02083   0.79198   0.50645   0.00000  Uiso   1.00
C555   C     0.31250   0.87469   0.49355   0.00000  Uiso   1.00
C556   C     0.31258   0.79190   0.49408   0.00000  Uiso   1.00
Cl557  Cl    0.04356   0.73960   0.52459   0.00000  Uiso   1.00
Cl558  Cl    0.28977   0.92707   0.47541   0.00000  Uiso   1.00
Cl559  Cl    0.28998   0.73930   0.47658   0.00000  Uiso   1.00
Cl560  Cl    0.04336   0.92737   0.52342   0.00000  Uiso   1.00
Cl561  Cl    0.22375   0.71963   0.57593   0.00000  Uiso   1.00
Cl562  Cl    0.10958   0.94704   0.42407   0.00000  Uiso   1.00
Cl563  Cl    0.10948   0.71972   0.42418   0.00000  Uiso   1.00
Cl564  Cl    0.22385   0.94695   0.57582   0.00000  Uiso   1.00
N565   N     0.16667   0.95240   0.50000   0.00000  Uiso   1.00
N566   N     0.16667   0.71427   0.50000   0.00000  Uiso   1.00
O567   O     0.10559   0.87154   0.50000   0.00000  Uiso   1.00
O568   O     0.22774   0.79513   0.50000   0.00000  Uiso   1.00
O569   O     0.22774   0.87154   0.50000   0.00000  Uiso   1.00
O570   O     0.10559   0.79513   0.50000   0.00000  Uiso   1.00
O571   O     0.16667   0.87155   0.42845   0.00000  Uiso   1.00
O572   O     0.16666   0.79512   0.57155   0.00000  Uiso   1.00
O573   O     0.16666   0.87155   0.57155   0.00000  Uiso   1.00
O574   O     0.16667   0.79512   0.42845   0.00000  Uiso   1.00
Zn575  Zn    0.16667   0.88437   0.50000   0.00000  Uiso   1.00
Zn576  Zn    0.16667   0.78229   0.50000   0.00000  Uiso   1.00
C577   C     0.42010   0.83335   0.50424   0.00000  Uiso   1.00
C578   C     0.35409   0.87477   0.50592   0.00000  Uiso   1.00
C579   C     0.62433   0.83328   0.49193   0.00000  Uiso   1.00
C580   C     0.37567   0.83339   0.50807   0.00000  Uiso   1.00
C581   C     0.52482   0.69060   0.53292   0.00000  Uiso   1.00
C582   C     0.47518   0.97607   0.46708   0.00000  Uiso   1.00
C583   C     0.47517   0.69064   0.46709   0.00000  Uiso   1.00
C584   C     0.52483   0.97603   0.53291   0.00000  Uiso   1.00
C585   C     0.57990   0.83331   0.49576   0.00000  Uiso   1.00
C586   C     0.49989   0.83333   0.40624   0.00000  Uiso   1.00
C587   C     0.50011   0.83333   0.59376   0.00000  Uiso   1.00
C588   C     0.49996   0.83333   0.35513   0.00000  Uiso   1.00
C589   C     0.50004   0.83333   0.64487   0.00000  Uiso   1.00
C590   C     0.35417   0.79198   0.50645   0.00000  Uiso   1.00
C591   C     0.64583   0.87469   0.49355   0.00000  Uiso   1.00
C592   C     0.64591   0.79190   0.49408   0.00000  Uiso   1.00
Cl593  Cl    0.37689   0.73960   0.52459   0.00000  Uiso   1.00
Cl594  Cl    0.62311   0.92707   0.47541   0.00000  Uiso   1.00
Cl595  Cl    0.62331   0.73930   0.47658   0.00000  Uiso   1.00
Cl596  Cl    0.37669   0.92737   0.52342   0.00000  Uiso   1.00
Cl597  Cl    0.55708   0.71963   0.57593   0.00000  Uiso   1.00
Cl598  Cl    0.44292   0.94704   0.42407   0.00000  Uiso   1.00
Cl599  Cl    0.44282   0.71972   0.42418   0.00000  Uiso   1.00
Cl600  Cl    0.55718   0.94695   0.57582   0.00000  Uiso   1.00
N601   N     0.50000   0.95240   0.50000   0.00000  Uiso   1.00
N602   N     0.50000   0.71427   0.50000   0.00000  Uiso   1.00
O603   O     0.43892   0.87154   0.50000   0.00000  Uiso   1.00
O604   O     0.56108   0.79513   0.50000   0.00000  Uiso   1.00
O605   O     0.56108   0.87154   0.50000   0.00000  Uiso   1.00
O606   O     0.43892   0.79513   0.50000   0.00000  Uiso   1.00
O607   O     0.50000   0.87155   0.42845   0.00000  Uiso   1.00
O608   O     0.50000   0.79512   0.57155   0.00000  Uiso   1.00
O609   O     0.50000   0.87155   0.57155   0.00000  Uiso   1.00
O610   O     0.50000   0.79512   0.42845   0.00000  Uiso   1.00
Zn611  Zn    0.50000   0.88437   0.50000   0.00000  Uiso   1.00
Zn612  Zn    0.50000   0.78229   0.50000   0.00000  Uiso   1.00
C613   C     0.75343   0.83335   0.50424   0.00000  Uiso   1.00
C614   C     0.68742   0.87477   0.50592   0.00000  Uiso   1.00
C615   C     0.95767   0.83328   0.49193   0.00000  Uiso   1.00
C616   C     0.70900   0.83339   0.50807   0.00000  Uiso   1.00
C617   C     0.85815   0.69060   0.53292   0.00000  Uiso   1.00
C618   C     0.80851   0.97607   0.46708   0.00000  Uiso   1.00
C619   C     0.80850   0.69064   0.46709   0.00000  Uiso   1.00
C620   C     0.85816   0.97603   0.53291   0.00000  Uiso   1.00
C621   C     0.91323   0.83331   0.49576   0.00000  Uiso   1.00
C622   C     0.83322   0.83333   0.40624   0.00000  Uiso   1.00
C623   C     0.83344   0.83333   0.59376   0.00000  Uiso   1.00
C624   C     0.83329   0.83333   0.35513   0.00000  Uiso   1.00
C625   C     0.83337   0.83333   0.64487   0.00000  Uiso   1.00
C626   C     0.68750   0.79198   0.50645   0.00000  Uiso   1.00
C627   C     0.97917   0.87469   0.49355   0.00000  Uiso   1.00
C628   C     0.97924   0.79190   0.49408   0.00000  Uiso   1.00
Cl629  Cl    0.71023   0.73960   0.52459   0.00000  Uiso   1.00
Cl630  Cl    0.95644   0.92707   0.47541   0.00000  Uiso   1.00
Cl631  Cl    0.95664   0.73930   0.47658   0.00000  Uiso   1.00
Cl632  Cl    0.71002   0.92737   0.52342   0.00000  Uiso   1.00
Cl633  Cl    0.89042   0.71963   0.57593   0.00000  Uiso   1.00
Cl634  Cl    0.77625   0.94704   0.42407   0.00000  Uiso   1.00
Cl635  Cl    0.77615   0.71972   0.42418   0.00000  Uiso   1.00
Cl636  Cl    0.89052   0.94695   0.57582   0.00000  Uiso   1.00
N637   N     0.83333   0.95240   0.50000   0.00000  Uiso   1.00
N638   N     0.83333   0.71427   0.50000   0.00000  Uiso   1.00
O639   O     0.77226   0.87154   0.50000   0.00000  Uiso   1.00
O640   O     0.89441   0.79513   0.50000   0.00000  Uiso   1.00
O641   O     0.89441   0.87154   0.50000   0.00000  Uiso   1.00
O642   O     0.77226   0.79513   0.50000   0.00000  Uiso   1.00
O643   O     0.83334   0.87155   0.42845   0.00000  Uiso   1.00
O644   O     0.83333   0.79512   0.57155   0.00000  Uiso   1.00
O645   O     0.83333   0.87155   0.57155   0.00000  Uiso   1.00
O646   O     0.83334   0.79512   0.42845   0.00000  Uiso   1.00
Zn647  Zn    0.83333   0.88437   0.50000   0.00000  Uiso   1.00
Zn648  Zn    0.83333   0.78229   0.50000   0.00000  Uiso   1.00
C649   C     0.08677   0.16669   0.83758   0.00000  Uiso   1.00
C650   C     0.02076   0.20810   0.83926   0.00000  Uiso   1.00
C651   C     0.29100   0.16661   0.82527   0.00000  Uiso   1.00
C652   C     0.04233   0.16672   0.84140   0.00000  Uiso   1.00
C653   C     0.19149   0.02393   0.86626   0.00000  Uiso   1.00
C654   C     0.14185   0.30940   0.80041   0.00000  Uiso   1.00
C655   C     0.14184   0.02397   0.80042   0.00000  Uiso   1.00
C656   C     0.19150   0.30936   0.86625   0.00000  Uiso   1.00
C657   C     0.24657   0.16665   0.82909   0.00000  Uiso   1.00
C658   C     0.16656   0.16667   0.73958   0.00000  Uiso   1.00
C659   C     0.16677   0.16667   0.92709   0.00000  Uiso   1.00
C660   C     0.16663   0.16667   0.68847   0.00000  Uiso   1.00
C661   C     0.16670   0.16667   0.97820   0.00000  Uiso   1.00
C662   C     0.02083   0.12531   0.83978   0.00000  Uiso   1.00
C663   C     0.31250   0.20802   0.82688   0.00000  Uiso   1.00
C664   C     0.31258   0.12523   0.82741   0.00000  Uiso   1.00
Cl665  Cl    0.04356   0.07293   0.85793   0.00000  Uiso   1.00
Cl666  Cl    0.28977   0.26040   0.80874   0.00000  Uiso   1.00
Cl667  Cl    0.28998   0.07263   0.80992   0.00000  Uiso   1.00
Cl668  Cl    0.04336   0.26070   0.85675   0.00000  Uiso   1.00
Cl669  Cl    0.22375   0.05296   0.90927   0.00000  Uiso   1.00
Cl670  Cl    0.10958   0.28037   0.75740   0.00000  Uiso   1.00
Cl671  Cl    0.10948   0.05305   0.75751   0.00000  Uiso   1.00
Cl672  Cl    0.22385   0.28028   0.90916   0.00000  Uiso   1.00
N673   N     0.16667   0.28573   0.83333   0.00000  Uiso   1.00
N674   N     0.16667   0.04760   0.83333   0.00000  Uiso   1.00
O675   O     0.10559   0.20487   0.83333   0.00000  Uiso   1.00
O676   O     0.22774   0.12846   0.83334   0.00000  Uiso   1.00
O677   O     0.22774   0.20487   0.83334   0.00000  Uiso   1.00
O678   O     0.10559   0.12846   0.83333   0.00000  Uiso   1.00
O679   O     0.16667   0.20488   0.76178   0.00000  Uiso   1.00
O680   O     0.16666   0.12845   0.90489   0.00000  Uiso   1.00
O681   O     0.16666   0.20488   0.90489   0.00000  Uiso   1.00
O682   O     0.16667   0.12845   0.76178   0.00000  Uiso   1.00
Zn683  Zn    0.16667   0.21771   0.83333   0.00000  Uiso   1.00
Zn684  Zn    0.16667   0.11563   0.83333   0.00000  Uiso   1.00
C685   C     0.42010   0.16669   0.83758   0.00000  Uiso   1.00
C686   C     0.35409   0.20810   0.83926   0.00000  Uiso   1.00
C687   C     0.62433   0.16661   0.82527   0.00000  Uiso   1.00
C688   C     0.37567   0.16672   0.84140   0.00000  Uiso   1.00
C689   C     0.52482   0.02393   0.86626   0.00000  Uiso   1.00
C690   C     0.47518   0.30940   0.80041   0.00000  Uiso   1.00
C691   C     0.47517   0.02397   0.80042   0.00000  Uiso   1.00
C692   C     0.52483   0.30936   0.86625   0.00000  Uiso   1.00
C693   C     0.57990   0.16665   0.82909   0.00000  Uiso   1.00
C694   C     0.49989   0.16667   0.73958   0.00000  Uiso   1.00
C695   C     0.50011   0.16667   0.92709   0.00000  Uiso   1.00
C696   C     0.49996   0.16667   0.68847   0.00000  Uiso   1.00
C697   C     0.50004   0.16667   0.97820   0.00000  Uiso   1.00
C698   C     0.35417   0.12531   0.83978   0.00000  Uiso   1.00
C699   C     0.64583   0.20802   0.82688   0.00000  Uiso   1.00
C700   C     0.64591   0.12523   0.82741   0.00000  Uiso   1.00
Cl701  Cl    0.37689   0.07293   0.85793   0.00000  Uiso   1.00
Cl702  Cl    0.62311   0.26040   0.80874   0.00000  Uiso   1.00
Cl703  Cl    0.62331   0.07263   0.80992   0.00000  Uiso   1.00
Cl704  Cl    0.37669   0.26070   0.85675   0.00000  Uiso   1.00
Cl705  Cl    0.55708   0.05296   0.90927   0.00000  Uiso   1.00
Cl706  Cl    0.44292   0.28037   0.75740   0.00000  Uiso   1.00
Cl707  Cl    0.44282   0.05305   0.75751   0.00000  Uiso   1.00
Cl708  Cl    0.55718   0.28028   0.90916   0.00000  Uiso   1.00
N709   N     0.50000   0.28573   0.83333   0.00000  Uiso   1.00
N710   N     0.50000   0.04760   0.83333   0.00000  Uiso   1.00
O711   O     0.43892   0.20487   0.83333   0.00000  Uiso   1.00
O712   O     0.56108   0.12846   0.83334   0.00000  Uiso   1.00
O713   O     0.56108   0.20487   0.83334   0.00000  Uiso   1.00
O714   O     0.43892   0.12846   0.83333   0.00000  Uiso   1.00
O715   O     0.50000   0.20488   0.76178   0.00000  Uiso   1.00
O716   O     0.50000   0.12845   0.90489   0.00000  Uiso   1.00
O717   O     0.50000   0.20488   0.90489   0.00000  Uiso   1.00
O718   O     0.50000   0.12845   0.76178   0.00000  Uiso   1.00
Zn719  Zn    0.50000   0.21771   0.83333   0.00000  Uiso   1.00
Zn720  Zn    0.50000   0.11563   0.83333   0.00000  Uiso   1.00
C721   C     0.75343   0.16669   0.83758   0.00000  Uiso   1.00
C722   C     0.68742   0.20810   0.83926   0.00000  Uiso   1.00
C723   C     0.95767   0.16661   0.82527   0.00000  Uiso   1.00
C724   C     0.70900   0.16672   0.84140   0.00000  Uiso   1.00
C725   C     0.85815   0.02393   0.86626   0.00000  Uiso   1.00
C726   C     0.80851   0.30940   0.80041   0.00000  Uiso   1.00
C727   C     0.80850   0.02397   0.80042   0.00000  Uiso   1.00
C728   C     0.85816   0.30936   0.86625   0.00000  Uiso   1.00
C729   C     0.91323   0.16665   0.82909   0.00000  Uiso   1.00
C730   C     0.83322   0.16667   0.73958   0.00000  Uiso   1.00
C731   C     0.83344   0.16667   0.92709   0.00000  Uiso   1.00
C732   C     0.83329   0.16667   0.68847   0.00000  Uiso   1.00
C733   C     0.83337   0.16667   0.97820   0.00000  Uiso   1.00
C734   C     0.68750   0.12531   0.83978   0.00000  Uiso   1.00
C735   C     0.97917   0.20802   0.82688   0.00000  Uiso   1.00
C736   C     0.97924   0.12523   0.82741   0.00000  Uiso   1.00
Cl737  Cl    0.71023   0.07293   0.85793   0.00000  Uiso   1.00
Cl738  Cl    0.95644   0.26040   0.80874   0.00000  Uiso   1.00
Cl739  Cl    0.95664   0.07263   0.80992   0.00000  Uiso   1.00
Cl740  Cl    0.71002   0.26070   0.85675   0.00000  Uiso   1.00
Cl741  Cl    0.89042   0.05296   0.90927   0.00000  Uiso   1.00
Cl742  Cl    0.77625   0.28037   0.75740   0.00000  Uiso   1.00
Cl743  Cl    0.77615   0.05305   0.75751   0.00000  Uiso   1.00
Cl744  Cl    0.89052   0.28028   0.90916   0.00000  Uiso   1.00
N745   N     0.83333   0.28573   0.83333   0.00000  Uiso   1.00
N746   N     0.83333   0.04760   0.83333   0.00000  Uiso   1.00
O747   O     0.77226   0.20487   0.83333   0.00000  Uiso   1.00
O748   O     0.89441   0.12846   0.83334   0.00000  Uiso   1.00
O749   O     0.89441   0.20487   0.83334   0.00000  Uiso   1.00
O750   O     0.77226   0.12846   0.83333   0.00000  Uiso   1.00
O751   O     0.83334   0.20488   0.76178   0.00000  Uiso   1.00
O752   O     0.83333   0.12845   0.90489   0.00000  Uiso   1.00
O753   O     0.83333   0.20488   0.90489   0.00000  Uiso   1.00
O754   O     0.83334   0.12845   0.76178   0.00000  Uiso   1.00
Zn755  Zn    0.83333   0.21771   0.83333   0.00000  Uiso   1.00
Zn756  Zn    0.83333   0.11563   0.83333   0.00000  Uiso   1.00
C757   C     0.08677   0.50002   0.83758   0.00000  Uiso   1.00
C758   C     0.02076   0.54144   0.83926   0.00000  Uiso   1.00
C759   C     0.29100   0.49995   0.82527   0.00000  Uiso   1.00
C760   C     0.04233   0.50005   0.84140   0.00000  Uiso   1.00
C761   C     0.19149   0.35726   0.86626   0.00000  Uiso   1.00
C762   C     0.14185   0.64274   0.80041   0.00000  Uiso   1.00
C763   C     0.14184   0.35730   0.80042   0.00000  Uiso   1.00
C764   C     0.19150   0.64270   0.86625   0.00000  Uiso   1.00
C765   C     0.24657   0.49998   0.82909   0.00000  Uiso   1.00
C766   C     0.16656   0.50000   0.73958   0.00000  Uiso   1.00
C767   C     0.16677   0.50000   0.92709   0.00000  Uiso   1.00
C768   C     0.16663   0.50000   0.68847   0.00000  Uiso   1.00
C769   C     0.16670   0.50000   0.97820   0.00000  Uiso   1.00
C770   C     0.02083   0.45864   0.83978   0.00000  Uiso   1.00
C771   C     0.31250   0.54136   0.82688   0.00000  Uiso   1.00
C772   C     0.31258   0.45856   0.82741   0.00000  Uiso   1.00
Cl773  Cl    0.04356   0.40627   0.85793   0.00000  Uiso   1.00
Cl774  Cl    0.28977   0.59373   0.80874   0.00000  Uiso   1.00
Cl775  Cl    0.28998   0.40596   0.80992   0.00000  Uiso   1.00
Cl776  Cl    0.04336   0.59404   0.85675   0.00000  Uiso   1.00
Cl777  Cl    0.22375   0.38629   0.90927   0.00000  Uiso   1.00
Cl778  Cl    0.10958   0.61371   0.75740   0.00000  Uiso   1.00
Cl779  Cl    0.10948   0.38638   0.75751   0.00000  Uiso   1.00
Cl780  Cl    0.22385   0.61362   0.90916   0.00000  Uiso   1.00
N781   N     0.16667   0.61907   0.83333   0.00000  Uiso   1.00
N782   N     0.16667   0.38093   0.83333   0.00000  Uiso   1.00
O783   O     0.10559   0.53821   0.83333   0.00000  Uiso   1.00
O784   O     0.22774   0.46179   0.83334   0.00000  Uiso   1.00
O785   O     0.22774   0.53821   0.83334   0.00000  Uiso   1.00
O786   O     0.10559   0.46179   0.83333   0.00000  Uiso   1.00
O787   O     0.16667   0.53821   0.76178   0.00000  Uiso   1.00
O788   O     0.16666   0.46179   0.90489   0.00000  Uiso   1.00
O789   O     0.16666   0.53821   0.90489   0.00000  Uiso   1.00
O790   O     0.16667   0.46179   0.76178   0.00000  Uiso   1.00
Zn791  Zn    0.16667   0.55104   0.83333   0.00000  Uiso   1.00
Zn792  Zn    0.16667   0.44896   0.83333   0.00000  Uiso   1.00
C793   C     0.42010   0.50002   0.83758   0.00000  Uiso   1.00
C794   C     0.35409   0.54144   0.83926   0.00000  Uiso   1.00
C795   C     0.62433   0.49995   0.82527   0.00000  Uiso   1.00
C796   C     0.37567   0.50005   0.84140   0.00000  Uiso   1.00
C797   C     0.52482   0.35726   0.86626   0.00000  Uiso   1.00
C798   C     0.47518   0.64274   0.80041   0.00000  Uiso   1.00
C799   C     0.47517   0.35730   0.80042   0.00000  Uiso   1.00
C800   C     0.52483   0.64270   0.86625   0.00000  Uiso   1.00
C801   C     0.57990   0.49998   0.82909   0.00000  Uiso   1.00
C802   C     0.49989   0.50000   0.73958   0.00000  Uiso   1.00
C803   C     0.50011   0.50000   0.92709   0.00000  Uiso   1.00
C804   C     0.49996   0.50000   0.68847   0.00000  Uiso   1.00
C805   C     0.50004   0.50000   0.97820   0.00000  Uiso   1.00
C806   C     0.35417   0.45864   0.83978   0.00000  Uiso   1.00
C807   C     0.64583   0.54136   0.82688   0.00000  Uiso   1.00
C808   C     0.64591   0.45856   0.82741   0.00000  Uiso   1.00
Cl809  Cl    0.37689   0.40627   0.85793   0.00000  Uiso   1.00
Cl810  Cl    0.62311   0.59373   0.80874   0.00000  Uiso   1.00
Cl811  Cl    0.62331   0.40596   0.80992   0.00000  Uiso   1.00
Cl812  Cl    0.37669   0.59404   0.85675   0.00000  Uiso   1.00
Cl813  Cl    0.55708   0.38629   0.90927   0.00000  Uiso   1.00
Cl814  Cl    0.44292   0.61371   0.75740   0.00000  Uiso   1.00
Cl815  Cl    0.44282   0.38638   0.75751   0.00000  Uiso   1.00
Cl816  Cl    0.55718   0.61362   0.90916   0.00000  Uiso   1.00
N817   N     0.50000   0.61907   0.83333   0.00000  Uiso   1.00
N818   N     0.50000   0.38093   0.83333   0.00000  Uiso   1.00
O819   O     0.43892   0.53821   0.83333   0.00000  Uiso   1.00
O820   O     0.56108   0.46179   0.83334   0.00000  Uiso   1.00
O821   O     0.56108   0.53821   0.83334   0.00000  Uiso   1.00
O822   O     0.43892   0.46179   0.83333   0.00000  Uiso   1.00
O823   O     0.50000   0.53821   0.76178   0.00000  Uiso   1.00
O824   O     0.50000   0.46179   0.90489   0.00000  Uiso   1.00
O825   O     0.50000   0.53821   0.90489   0.00000  Uiso   1.00
O826   O     0.50000   0.46179   0.76178   0.00000  Uiso   1.00
Zn827  Zn    0.50000   0.55104   0.83333   0.00000  Uiso   1.00
Zn828  Zn    0.50000   0.44896   0.83333   0.00000  Uiso   1.00
C829   C     0.75343   0.50002   0.83758   0.00000  Uiso   1.00
C830   C     0.68742   0.54144   0.83926   0.00000  Uiso   1.00
C831   C     0.95767   0.49995   0.82527   0.00000  Uiso   1.00
C832   C     0.70900   0.50005   0.84140   0.00000  Uiso   1.00
C833   C     0.85815   0.35726   0.86626   0.00000  Uiso   1.00
C834   C     0.80851   0.64274   0.80041   0.00000  Uiso   1.00
C835   C     0.80850   0.35730   0.80042   0.00000  Uiso   1.00
C836   C     0.85816   0.64270   0.86625   0.00000  Uiso   1.00
C837   C     0.91323   0.49998   0.82909   0.00000  Uiso   1.00
C838   C     0.83322   0.50000   0.73958   0.00000  Uiso   1.00
C839   C     0.83344   0.50000   0.92709   0.00000  Uiso   1.00
C840   C     0.83329   0.50000   0.68847   0.00000  Uiso   1.00
C841   C     0.83337   0.50000   0.97820   0.00000  Uiso   1.00
C842   C     0.68750   0.45864   0.83978   0.00000  Uiso   1.00
C843   C     0.97917   0.54136   0.82688   0.00000  Uiso   1.00
C844   C     0.97924   0.45856   0.82741   0.00000  Uiso   1.00
Cl845  Cl    0.71023   0.40627   0.85793   0.00000  Uiso   1.00
Cl846  Cl    0.95644   0.59373   0.80874   0.00000  Uiso   1.00
Cl847  Cl    0.95664   0.40596   0.80992   0.00000  Uiso   1.00
Cl848  Cl    0.71002   0.59404   0.85675   0.00000  Uiso   1.00
Cl849  Cl    0.89042   0.38629   0.90927   0.00000  Uiso   1.00
Cl850  Cl    0.77625   0.61371   0.75740   0.00000  Uiso   1.00
Cl851  Cl    0.77615   0.38638   0.75751   0.00000  Uiso   1.00
Cl852  Cl    0.89052   0.61362   0.90916   0.00000  Uiso   1.00
N853   N     0.83333   0.61907   0.83333   0.00000  Uiso   1.00
N854   N     0.83333   0.38093   0.83333   0.00000  Uiso   1.00
O855   O     0.77226   0.53821   0.83333   0.00000  Uiso   1.00
O856   O     0.89441   0.46179   0.83334   0.00000  Uiso   1.00
O857   O     0.89441   0.53821   0.83334   0.00000  Uiso   1.00
O858   O     0.77226   0.46179   0.83333   0.00000  Uiso   1.00
O859   O     0.83334   0.53821   0.76178   0.00000  Uiso   1.00
O860   O     0.83333   0.46179   0.90489   0.00000  Uiso   1.00
O861   O     0.83333   0.53821   0.90489   0.00000  Uiso   1.00
O862   O     0.83334   0.46179   0.76178   0.00000  Uiso   1.00
Zn863  Zn    0.83333   0.55104   0.83333   0.00000  Uiso   1.00
Zn864  Zn    0.83333   0.44896   0.83333   0.00000  Uiso   1.00
C865   C     0.08677   0.83335   0.83758   0.00000  Uiso   1.00
C866   C     0.02076   0.87477   0.83926   0.00000  Uiso   1.00
C867   C     0.29100   0.83328   0.82527   0.00000  Uiso   1.00
C868   C     0.04233   0.83339   0.84140   0.00000  Uiso   1.00
C869   C     0.19149   0.69060   0.86626   0.00000  Uiso   1.00
C870   C     0.14185   0.97607   0.80041   0.00000  Uiso   1.00
C871   C     0.14184   0.69064   0.80042   0.00000  Uiso   1.00
C872   C     0.19150   0.97603   0.86625   0.00000  Uiso   1.00
C873   C     0.24657   0.83331   0.82909   0.00000  Uiso   1.00
C874   C     0.16656   0.83333   0.73958   0.00000  Uiso   1.00
C875   C     0.16677   0.83333   0.92709   0.00000  Uiso   1.00
C876   C     0.16663   0.83333   0.68847   0.00000  Uiso   1.00
C877   C     0.16670   0.83333   0.97820   0.00000  Uiso   1.00
C878   C     0.02083   0.79198   0.83978   0.00000  Uiso   1.00
C879   C     0.31250   0.87469   0.82688   0.00000  Uiso   1.00
C880   C     0.31258   0.79190   0.82741   0.00000  Uiso   1.00
Cl881  Cl    0.04356   0.73960   0.85793   0.00000  Uiso   1.00
Cl882  Cl    0.28977   0.92707   0.80874   0.00000  Uiso   1.00
Cl883  Cl    0.28998   0.73930   0.80992   0.00000  Uiso   1.00
Cl884  Cl    0.04336   0.92737   0.85675   0.00000  Uiso   1.00
Cl885  Cl    0.22375   0.71963   0.90927   0.00000  Uiso   1.00
Cl886  Cl    0.10958   0.94704   0.75740   0.00000  Uiso   1.00
Cl887  Cl    0.10948   0.71972   0.75751   0.00000  Uiso   1.00
Cl888  Cl    0.22385   0.94695   0.90916   0.00000  Uiso   1.00
N889   N     0.16667   0.95240   0.83333   0.00000  Uiso   1.00
N890   N     0.16667   0.71427   0.83333   0.00000  Uiso   1.00
O891   O     0.10559   0.87154   0.83333   0.00000  Uiso   1.00
O892   O     0.22774   0.79513   0.83334   0.00000  Uiso   1.00
O893   O     0.22774   0.87154   0.83334   0.00000  Uiso   1.00
O894   O     0.10559   0.79513   0.83333   0.00000  Uiso   1.00
O895   O     0.16667   0.87155   0.76178   0.00000  Uiso   1.00
O896   O     0.16666   0.79512   0.90489   0.00000  Uiso   1.00
O897   O     0.16666   0.87155   0.90489   0.00000  Uiso   1.00
O898   O     0.16667   0.79512   0.76178   0.00000  Uiso   1.00
Zn899  Zn    0.16667   0.88437   0.83333   0.00000  Uiso   1.00
Zn900  Zn    0.16667   0.78229   0.83333   0.00000  Uiso   1.00
C901   C     0.42010   0.83335   0.83758   0.00000  Uiso   1.00
C902   C     0.35409   0.87477   0.83926   0.00000  Uiso   1.00
C903   C     0.62433   0.83328   0.82527   0.00000  Uiso   1.00
C904   C     0.37567   0.83339   0.84140   0.00000  Uiso   1.00
C905   C     0.52482   0.69060   0.86626   0.00000  Uiso   1.00
C906   C     0.47518   0.97607   0.80041   0.00000  Uiso   1.00
C907   C     0.47517   0.69064   0.80042   0.00000  Uiso   1.00
C908   C     0.52483   0.97603   0.86625   0.00000  Uiso   1.00
C909   C     0.57990   0.83331   0.82909   0.00000  Uiso   1.00
C910   C     0.49989   0.83333   0.73958   0.00000  Uiso   1.00
C911   C     0.50011   0.83333   0.92709   0.00000  Uiso   1.00
C912   C     0.49996   0.83333   0.68847   0.00000  Uiso   1.00
C913   C     0.50004   0.83333   0.97820   0.00000  Uiso   1.00
C914   C     0.35417   0.79198   0.83978   0.00000  Uiso   1.00
C915   C     0.64583   0.87469   0.82688   0.00000  Uiso   1.00
C916   C     0.64591   0.79190   0.82741   0.00000  Uiso   1.00
Cl917  Cl    0.37689   0.73960   0.85793   0.00000  Uiso   1.00
Cl918  Cl    0.62311   0.92707   0.80874   0.00000  Uiso   1.00
Cl919  Cl    0.62331   0.73930   0.80992   0.00000  Uiso   1.00
Cl920  Cl    0.37669   0.92737   0.85675   0.00000  Uiso   1.00
Cl921  Cl    0.55708   0.71963   0.90927   0.00000  Uiso   1.00
Cl922  Cl    0.44292   0.94704   0.75740   0.00000  Uiso   1.00
Cl923  Cl    0.44282   0.71972   0.75751   0.00000  Uiso   1.00
Cl924  Cl    0.55718   0.94695   0.90916   0.00000  Uiso   1.00
N925   N     0.50000   0.95240   0.83333   0.00000  Uiso   1.00
N926   N     0.50000   0.71427   0.83333   0.00000  Uiso   1.00
O927   O     0.43892   0.87154   0.83333   0.00000  Uiso   1.00
O928   O     0.56108   0.79513   0.83334   0.00000  Uiso   1.00
O929   O     0.56108   0.87154   0.83334   0.00000  Uiso   1.00
O930   O     0.43892   0.79513   0.83333   0.00000  Uiso   1.00
O931   O     0.50000   0.87155   0.76178   0.00000  Uiso   1.00
O932   O     0.50000   0.79512   0.90489   0.00000  Uiso   1.00
O933   O     0.50000   0.87155   0.90489   0.00000  Uiso   1.00
O934   O     0.50000   0.79512   0.76178   0.00000  Uiso   1.00
Zn935  Zn    0.50000   0.88437   0.83333   0.00000  Uiso   1.00
Zn936  Zn    0.50000   0.78229   0.83333   0.00000  Uiso   1.00
C937   C     0.75343   0.83335   0.83758   0.00000  Uiso   1.00
C938   C     0.68742   0.87477   0.83926   0.00000  Uiso   1.00
C939   C     0.95767   0.83328   0.82527   0.00000  Uiso   1.00
C940   C     0.70900   0.83339   0.84140   0.00000  Uiso   1.00
C941   C     0.85815   0.69060   0.86626   0.00000  Uiso   1.00
C942   C     0.80851   0.97607   0.80041   0.00000  Uiso   1.00
C943   C     0.80850   0.69064   0.80042   0.00000  Uiso   1.00
C944   C     0.85816   0.97603   0.86625   0.00000  Uiso   1.00
C945   C     0.91323   0.83331   0.82909   0.00000  Uiso   1.00
C946   C     0.83322   0.83333   0.73958   0.00000  Uiso   1.00
C947   C     0.83344   0.83333   0.92709   0.00000  Uiso   1.00
C948   C     0.83329   0.83333   0.68847   0.00000  Uiso   1.00
C949   C     0.83337   0.83333   0.97820   0.00000  Uiso   1.00
C950   C     0.68750   0.79198   0.83978   0.00000  Uiso   1.00
C951   C     0.97917   0.87469   0.82688   0.00000  Uiso   1.00
C952   C     0.97924   0.79190   0.82741   0.00000  Uiso   1.00
Cl953  Cl    0.71023   0.73960   0.85793   0.00000  Uiso   1.00
Cl954  Cl    0.95644   0.92707   0.80874   0.00000  Uiso   1.00
Cl955  Cl    0.95664   0.73930   0.80992   0.00000  Uiso   1.00
Cl956  Cl    0.71002   0.92737   0.85675   0.00000  Uiso   1.00
Cl957  Cl    0.89042   0.71963   0.90927   0.00000  Uiso   1.00
Cl958  Cl    0.77625   0.94704   0.75740   0.00000  Uiso   1.00
Cl959  Cl    0.77615   0.71972   0.75751   0.00000  Uiso   1.00
Cl960  Cl    0.89052   0.94695   0.90916   0.00000  Uiso   1.00
N961   N     0.83333   0.95240   0.83333   0.00000  Uiso   1.00
N962   N     0.83333   0.71427   0.83333   0.00000  Uiso   1.00
O963   O     0.77226   0.87154   0.83333   0.00000  Uiso   1.00
O964   O     0.89441   0.79513   0.83334   0.00000  Uiso   1.00
O965   O     0.89441   0.87154   0.83334   0.00000  Uiso   1.00
O966   O     0.77226   0.79513   0.83333   0.00000  Uiso   1.00
O967   O     0.83334   0.87155   0.76178   0.00000  Uiso   1.00
O968   O     0.83333   0.79512   0.90489   0.00000  Uiso   1.00
O969   O     0.83333   0.87155   0.90489   0.00000  Uiso   1.00
O970   O     0.83334   0.79512   0.76178   0.00000  Uiso   1.00
Zn971  Zn    0.83333   0.88437   0.83333   0.00000  Uiso   1.00
Zn972  Zn    0.83333   0.78229   0.83333   0.00000  Uiso   1.00
loop_
_geom_bond_atom_site_label_1
_geom_bond_atom_site_label_2
_geom_bond_distance
_geom_bond_site_symmetry_2
_ccdc_geom_bond_type
C1     C4      1.445   .     S
C1     O30     1.292   .     A
C1     O27     1.292   .     A
C2     C4      1.412   .     A
C2     Cl20    1.780   .     S
C2     C87     1.379   1_455 S
C3     C9      1.445   .     S
C3     C15     1.412   .     A
C3     C16     1.412   .     A
C4     C14     1.412   .     A
C5     Cl21    1.760   .     S
C5     N26     1.370   .     A
C5     C224    1.420   1_545 S
C6     N25     1.370   .     A
C6     Cl22    1.760   .     S
C6     C115    1.420   .     S
C7     N26     1.370   .     A
C7     Cl23    1.760   .     S
C7     C222    1.420   1_545 S
C8     N25     1.370   .     A
C8     Cl24    1.760   .     S
C8     C113    1.420   .     S
C9     O29     1.292   .     A
C9     O28     1.292   .     A
C10    O34     1.279   .     A
C10    C12     1.366   .     S
C10    O31     1.279   .     A
C11    C13     1.366   .     S
C11    O32     1.279   .     A
C11    O33     1.279   .     A
C12    C661    1.165   1_554 S
C13    C336    1.165   .     S
C14    Cl17    1.780   .     S
C14    C88     1.379   1_455 S
C15    Cl18    1.780   .     S
C15    C38     1.379   .     S
C16    Cl19    1.780   .     S
C16    C50     1.379   .     S
N25    Zn35    2.016   .     S
N26    Zn36    2.016   .     S
O27    Zn35    2.014   .     S
O28    Zn36    2.014   .     S
O29    Zn35    2.013   .     S
O30    Zn36    2.013   .     S
O31    Zn35    1.949   .     S
O32    Zn36    1.949   .     S
O33    Zn35    1.949   .     S
O34    Zn36    1.949   .     S
C37    C40     1.445   .     S
C37    O66     1.292   .     A
C37    O63     1.292   .     A
C38    C40     1.412   .     A
C38    Cl56    1.780   .     S
C39    C45     1.445   .     S
C39    C51     1.412   .     A
C39    C52     1.412   .     A
C40    C50     1.412   .     A
C41    Cl57    1.760   .     S
C41    N62     1.370   .     A
C41    C260    1.420   1_545 S
C42    N61     1.370   .     A
C42    Cl58    1.760   .     S
C42    C151    1.420   .     S
C43    N62     1.370   .     A
C43    Cl59    1.760   .     S
C43    C258    1.420   1_545 S
C44    N61     1.370   .     A
C44    Cl60    1.760   .     S
C44    C149    1.420   .     S
C45    O65     1.292   .     A
C45    O64     1.292   .     A
C46    O70     1.279   .     A
C46    C48     1.366   .     S
C46    O67     1.279   .     A
C47    C49     1.366   .     S
C47    O68     1.279   .     A
C47    O69     1.279   .     A
C48    C697    1.165   1_554 S
C49    C372    1.165   .     S
C50    Cl53    1.780   .     S
C51    Cl54    1.780   .     S
C51    C74     1.379   .     S
C52    Cl55    1.780   .     S
C52    C86     1.379   .     S
N61    Zn71    2.016   .     S
N62    Zn72    2.016   .     S
O63    Zn71    2.014   .     S
O64    Zn72    2.014   .     S
O65    Zn71    2.013   .     S
O66    Zn72    2.013   .     S
O67    Zn71    1.949   .     S
O68    Zn72    1.949   .     S
O69    Zn71    1.949   .     S
O70    Zn72    1.949   .     S
C73    C76     1.445   .     S
C73    O102    1.292   .     A
C73    O99     1.292   .     A
C74    C76     1.412   .     A
C74    Cl92    1.780   .     S
C75    C81     1.445   .     S
C75    C87     1.412   .     A
C75    C88     1.412   .     A
C76    C86     1.412   .     A
C77    Cl93    1.760   .     S
C77    N98     1.370   .     A
C77    C296    1.420   1_545 S
C78    N97     1.370   .     A
C78    Cl94    1.760   .     S
C78    C187    1.420   .     S
C79    N98     1.370   .     A
C79    Cl95    1.760   .     S
C79    C294    1.420   1_545 S
C80    N97     1.370   .     A
C80    Cl96    1.760   .     S
C80    C185    1.420   .     S
C81    O101    1.292   .     A
C81    O100    1.292   .     A
C82    O106    1.279   .     A
C82    C84     1.366   .     S
C82    O103    1.279   .     A
C83    C85     1.366   .     S
C83    O104    1.279   .     A
C83    O105    1.279   .     A
C84    C733    1.165   1_554 S
C85    C408    1.165   .     S
C86    Cl89    1.780   .     S
C87    Cl90    1.780   .     S
C87    C2      1.379   1_655 S
C88    Cl91    1.780   .     S
C88    C14     1.379   1_655 S
N97    Zn107   2.016   .     S
N98    Zn108   2.016   .     S
O99    Zn107   2.014   .     S
O100   Zn108   2.014   .     S
O101   Zn107   2.013   .     S
O102   Zn108   2.013   .     S
O103   Zn107   1.949   .     S
O104   Zn108   1.949   .     S
O105   Zn107   1.949   .     S
O106   Zn108   1.949   .     S
C109   C112    1.445   .     S
C109   O138    1.292   .     A
C109   O135    1.292   .     A
C110   C112    1.412   .     A
C110   Cl128   1.780   .     S
C110   C195    1.379   1_455 S
C111   C117    1.445   .     S
C111   C123    1.412   .     A
C111   C124    1.412   .     A
C112   C122    1.412   .     A
C113   Cl129   1.760   .     S
C113   N134    1.370   .     A
C114   N133    1.370   .     A
C114   Cl130   1.760   .     S
C114   C223    1.420   .     S
C115   N134    1.370   .     A
C115   Cl131   1.760   .     S
C116   N133    1.370   .     A
C116   Cl132   1.760   .     S
C116   C221    1.420   .     S
C117   O137    1.292   .     A
C117   O136    1.292   .     A
C118   O142    1.279   .     A
C118   C120    1.366   .     S
C118   O139    1.279   .     A
C119   C121    1.366   .     S
C119   O140    1.279   .     A
C119   O141    1.279   .     A
C120   C769    1.165   1_554 S
C121   C444    1.165   .     S
C122   Cl125   1.780   .     S
C122   C196    1.379   1_455 S
C123   Cl126   1.780   .     S
C123   C146    1.379   .     S
C124   Cl127   1.780   .     S
C124   C158    1.379   .     S
N133   Zn143   2.016   .     S
N134   Zn144   2.016   .     S
O135   Zn143   2.014   .     S
O136   Zn144   2.014   .     S
O137   Zn143   2.013   .     S
O138   Zn144   2.013   .     S
O139   Zn143   1.949   .     S
O140   Zn144   1.949   .     S
O141   Zn143   1.949   .     S
O142   Zn144   1.949   .     S
C145   C148    1.445   .     S
C145   O174    1.292   .     A
C145   O171    1.292   .     A
C146   C148    1.412   .     A
C146   Cl164   1.780   .     S
C147   C153    1.445   .     S
C147   C159    1.412   .     A
C147   C160    1.412   .     A
C148   C158    1.412   .     A
C149   Cl165   1.760   .     S
C149   N170    1.370   .     A
C150   N169    1.370   .     A
C150   Cl166   1.760   .     S
C150   C259    1.420   .     S
C151   N170    1.370   .     A
C151   Cl167   1.760   .     S
C152   N169    1.370   .     A
C152   Cl168   1.760   .     S
C152   C257    1.420   .     S
C153   O173    1.292   .     A
C153   O172    1.292   .     A
C154   O178    1.279   .     A
C154   C156    1.366   .     S
C154   O175    1.279   .     A
C155   C157    1.366   .     S
C155   O176    1.279   .     A
C155   O177    1.279   .     A
C156   C805    1.165   1_554 S
C157   C480    1.165   .     S
C158   Cl161   1.780   .     S
C159   Cl162   1.780   .     S
C159   C182    1.379   .     S
C160   Cl163   1.780   .     S
C160   C194    1.379   .     S
N169   Zn179   2.016   .     S
N170   Zn180   2.016   .     S
O171   Zn179   2.014   .     S
O172   Zn180   2.014   .     S
O173   Zn179   2.013   .     S
O174   Zn180   2.013   .     S
O175   Zn179   1.949   .     S
O176   Zn180   1.949   .     S
O177   Zn179   1.949   .     S
O178   Zn180   1.949   .     S
C181   C184    1.445   .     S
C181   O210    1.292   .     A
C181   O207    1.292   .     A
C182   C184    1.412   .     A
C182   Cl200   1.780   .     S
C183   C189    1.445   .     S
C183   C195    1.412   .     A
C183   C196    1.412   .     A
C184   C194    1.412   .     A
C185   Cl201   1.760   .     S
C185   N206    1.370   .     A
C186   N205    1.370   .     A
C186   Cl202   1.760   .     S
C186   C295    1.420   .     S
C187   N206    1.370   .     A
C187   Cl203   1.760   .     S
C188   N205    1.370   .     A
C188   Cl204   1.760   .     S
C188   C293    1.420   .     S
C189   O209    1.292   .     A
C189   O208    1.292   .     A
C190   O214    1.279   .     A
C190   C192    1.366   .     S
C190   O211    1.279   .     A
C191   C193    1.366   .     S
C191   O212    1.279   .     A
C191   O213    1.279   .     A
C192   C841    1.165   1_554 S
C193   C516    1.165   .     S
C194   Cl197   1.780   .     S
C195   Cl198   1.780   .     S
C195   C110    1.379   1_655 S
C196   Cl199   1.780   .     S
C196   C122    1.379   1_655 S
N205   Zn215   2.016   .     S
N206   Zn216   2.016   .     S
O207   Zn215   2.014   .     S
O208   Zn216   2.014   .     S
O209   Zn215   2.013   .     S
O210   Zn216   2.013   .     S
O211   Zn215   1.949   .     S
O212   Zn216   1.949   .     S
O213   Zn215   1.949   .     S
O214   Zn216   1.949   .     S
C217   C220    1.445   .     S
C217   O246    1.292   .     A
C217   O243    1.292   .     A
C218   C220    1.412   .     A
C218   Cl236   1.780   .     S
C218   C303    1.379   1_455 S
C219   C225    1.445   .     S
C219   C231    1.412   .     A
C219   C232    1.412   .     A
C220   C230    1.412   .     A
C221   Cl237   1.760   .     S
C221   N242    1.370   .     A
C222   N241    1.370   .     A
C222   Cl238   1.760   .     S
C222   C7      1.420   1_565 S
C223   N242    1.370   .     A
C223   Cl239   1.760   .     S
C224   N241    1.370   .     A
C224   Cl240   1.760   .     S
C224   C5      1.420   1_565 S
C225   O245    1.292   .     A
C225   O244    1.292   .     A
C226   O250    1.279   .     A
C226   C228    1.366   .     S
C226   O247    1.279   .     A
C227   C229    1.366   .     S
C227   O248    1.279   .     A
C227   O249    1.279   .     A
C228   C877    1.165   1_554 S
C229   C552    1.165   .     S
C230   Cl233   1.780   .     S
C230   C304    1.379   1_455 S
C231   Cl234   1.780   .     S
C231   C254    1.379   .     S
C232   Cl235   1.780   .     S
C232   C266    1.379   .     S
N241   Zn251   2.016   .     S
N242   Zn252   2.016   .     S
O243   Zn251   2.014   .     S
O244   Zn252   2.014   .     S
O245   Zn251   2.013   .     S
O246   Zn252   2.013   .     S
O247   Zn251   1.949   .     S
O248   Zn252   1.949   .     S
O249   Zn251   1.949   .     S
O250   Zn252   1.949   .     S
C253   C256    1.445   .     S
C253   O282    1.292   .     A
C253   O279    1.292   .     A
C254   C256    1.412   .     A
C254   Cl272   1.780   .     S
C255   C261    1.445   .     S
C255   C267    1.412   .     A
C255   C268    1.412   .     A
C256   C266    1.412   .     A
C257   Cl273   1.760   .     S
C257   N278    1.370   .     A
C258   N277    1.370   .     A
C258   Cl274   1.760   .     S
C258   C43     1.420   1_565 S
C259   N278    1.370   .     A
C259   Cl275   1.760   .     S
C260   N277    1.370   .     A
C260   Cl276   1.760   .     S
C260   C41     1.420   1_565 S
C261   O281    1.292   .     A
C261   O280    1.292   .     A
C262   O286    1.279   .     A
C262   C264    1.366   .     S
C262   O283    1.279   .     A
C263   C265    1.366   .     S
C263   O284    1.279   .     A
C263   O285    1.279   .     A
C264   C913    1.165   1_554 S
C265   C588    1.165   .     S
C266   Cl269   1.780   .     S
C267   Cl270   1.780   .     S
C267   C290    1.379   .     S
C268   Cl271   1.780   .     S
C268   C302    1.379   .     S
N277   Zn287   2.016   .     S
N278   Zn288   2.016   .     S
O279   Zn287   2.014   .     S
O280   Zn288   2.014   .     S
O281   Zn287   2.013   .     S
O282   Zn288   2.013   .     S
O283   Zn287   1.949   .     S
O284   Zn288   1.949   .     S
O285   Zn287   1.949   .     S
O286   Zn288   1.949   .     S
C289   C292    1.445   .     S
C289   O318    1.292   .     A
C289   O315    1.292   .     A
C290   C292    1.412   .     A
C290   Cl308   1.780   .     S
C291   C297    1.445   .     S
C291   C303    1.412   .     A
C291   C304    1.412   .     A
C292   C302    1.412   .     A
C293   Cl309   1.760   .     S
C293   N314    1.370   .     A
C294   N313    1.370   .     A
C294   Cl310   1.760   .     S
C294   C79     1.420   1_565 S
C295   N314    1.370   .     A
C295   Cl311   1.760   .     S
C296   N313    1.370   .     A
C296   Cl312   1.760   .     S
C296   C77     1.420   1_565 S
C297   O317    1.292   .     A
C297   O316    1.292   .     A
C298   O322    1.279   .     A
C298   C300    1.366   .     S
C298   O319    1.279   .     A
C299   C301    1.366   .     S
C299   O320    1.279   .     A
C299   O321    1.279   .     A
C300   C949    1.165   1_554 S
C301   C624    1.165   .     S
C302   Cl305   1.780   .     S
C303   Cl306   1.780   .     S
C303   C218    1.379   1_655 S
C304   Cl307   1.780   .     S
C304   C230    1.379   1_655 S
N313   Zn323   2.016   .     S
N314   Zn324   2.016   .     S
O315   Zn323   2.014   .     S
O316   Zn324   2.014   .     S
O317   Zn323   2.013   .     S
O318   Zn324   2.013   .     S
O319   Zn323   1.949   .     S
O320   Zn324   1.949   .     S
O321   Zn323   1.949   .     S
O322   Zn324   1.949   .     S
C325   C328    1.445   .     S
C325   O354    1.292   .     A
C325   O351    1.292   .     A
C326   C328    1.412   .     A
C326   Cl344   1.780   .     S
C326   C411    1.379   1_455 S
C327   C333    1.445   .     S
C327   C339    1.412   .     A
C327   C340    1.412   .     A
C328   C338    1.412   .     A
C329   Cl345   1.760   .     S
C329   N350    1.370   .     A
C329   C548    1.420   1_545 S
C330   N349    1.370   .     A
C330   Cl346   1.760   .     S
C330   C439    1.420   .     S
C331   N350    1.370   .     A
C331   Cl347   1.760   .     S
C331   C546    1.420   1_545 S
C332   N349    1.370   .     A
C332   Cl348   1.760   .     S
C332   C437    1.420   .     S
C333   O353    1.292   .     A
C333   O352    1.292   .     A
C334   O358    1.279   .     A
C334   C336    1.366   .     S
C334   O355    1.279   .     A
C335   C337    1.366   .     S
C335   O356    1.279   .     A
C335   O357    1.279   .     A
C337   C660    1.165   .     S
C338   Cl341   1.780   .     S
C338   C412    1.379   1_455 S
C339   Cl342   1.780   .     S
C339   C362    1.379   .     S
C340   Cl343   1.780   .     S
C340   C374    1.379   .     S
N349   Zn359   2.016   .     S
N350   Zn360   2.016   .     S
O351   Zn359   2.014   .     S
O352   Zn360   2.014   .     S
O353   Zn359   2.013   .     S
O354   Zn360   2.013   .     S
O355   Zn359   1.949   .     S
O356   Zn360   1.949   .     S
O357   Zn359   1.949   .     S
O358   Zn360   1.949   .     S
C361   C364    1.445   .     S
C361   O390    1.292   .     A
C361   O387    1.292   .     A
C362   C364    1.412   .     A
C362   Cl380   1.780   .     S
C363   C369    1.445   .     S
C363   C375    1.412   .     A
C363   C376    1.412   .     A
C364   C374    1.412   .     A
C365   Cl381   1.760   .     S
C365   N386    1.370   .     A
C365   C584    1.420   1_545 S
C366   N385    1.370   .     A
C366   Cl382   1.760   .     S
C366   C475    1.420   .     S
C367   N386    1.370   .     A
C367   Cl383   1.760   .     S
C367   C582    1.420   1_545 S
C368   N385    1.370   .     A
C368   Cl384   1.760   .     S
C368   C473    1.420   .     S
C369   O389    1.292   .     A
C369   O388    1.292   .     A
C370   O394    1.279   .     A
C370   C372    1.366   .     S
C370   O391    1.279   .     A
C371   C373    1.366   .     S
C371   O392    1.279   .     A
C371   O393    1.279   .     A
C373   C696    1.165   .     S
C374   Cl377   1.780   .     S
C375   Cl378   1.780   .     S
C375   C398    1.379   .     S
C376   Cl379   1.780   .     S
C376   C410    1.379   .     S
N385   Zn395   2.016   .     S
N386   Zn396   2.016   .     S
O387   Zn395   2.014   .     S
O388   Zn396   2.014   .     S
O389   Zn395   2.013   .     S
O390   Zn396   2.013   .     S
O391   Zn395   1.949   .     S
O392   Zn396   1.949   .     S
O393   Zn395   1.949   .     S
O394   Zn396   1.949   .     S
C397   C400    1.445   .     S
C397   O426    1.292   .     A
C397   O423    1.292   .     A
C398   C400    1.412   .     A
C398   Cl416   1.780   .     S
C399   C405    1.445   .     S
C399   C411    1.412   .     A
C399   C412    1.412   .     A
C400   C410    1.412   .     A
C401   Cl417   1.760   .     S
C401   N422    1.370   .     A
C401   C620    1.420   1_545 S
C402   N421    1.370   .     A
C402   Cl418   1.760   .     S
C402   C511    1.420   .     S
C403   N422    1.370   .     A
C403   Cl419   1.760   .     S
C403   C618    1.420   1_545 S
C404   N421    1.370   .     A
C404   Cl420   1.760   .     S
C404   C509    1.420   .     S
C405   O425    1.292   .     A
C405   O424    1.292   .     A
C406   O430    1.279   .     A
C406   C408    1.366   .     S
C406   O427    1.279   .     A
C407   C409    1.366   .     S
C407   O428    1.279   .     A
C407   O429    1.279   .     A
C409   C732    1.165   .     S
C410   Cl413   1.780   .     S
C411   Cl414   1.780   .     S
C411   C326    1.379   1_655 S
C412   Cl415   1.780   .     S
C412   C338    1.379   1_655 S
N421   Zn431   2.016   .     S
N422   Zn432   2.016   .     S
O423   Zn431   2.014   .     S
O424   Zn432   2.014   .     S
O425   Zn431   2.013   .     S
O426   Zn432   2.013   .     S
O427   Zn431   1.949   .     S
O428   Zn432   1.949   .     S
O429   Zn431   1.949   .     S
O430   Zn432   1.949   .     S
C433   C436    1.445   .     S
C433   O462    1.292   .     A
C433   O459    1.292   .     A
C434   C436    1.412   .     A
C434   Cl452   1.780   .     S
C434   C519    1.379   1_455 S
C435   C441    1.445   .     S
C435   C447    1.412   .     A
C435   C448    1.412   .     A
C436   C446    1.412   .     A
C437   Cl453   1.760   .     S
C437   N458    1.370   .     A
C438   N457    1.370   .     A
C438   Cl454   1.760   .     S
C438   C547    1.420   .     S
C439   N458    1.370   .     A
C439   Cl455   1.760   .     S
C440   N457    1.370   .     A
C440   Cl456   1.760   .     S
C440   C545    1.420   .     S
C441   O461    1.292   .     A
C441   O460    1.292   .     A
C442   O466    1.279   .     A
C442   C444    1.366   .     S
C442   O463    1.279   .     A
C443   C445    1.366   .     S
C443   O464    1.279   .     A
C443   O465    1.279   .     A
C445   C768    1.165   .     S
C446   Cl449   1.780   .     S
C446   C520    1.379   1_455 S
C447   Cl450   1.780   .     S
C447   C470    1.379   .     S
C448   Cl451   1.780   .     S
C448   C482    1.379   .     S
N457   Zn467   2.016   .     S
N458   Zn468   2.016   .     S
O459   Zn467   2.014   .     S
O460   Zn468   2.014   .     S
O461   Zn467   2.013   .     S
O462   Zn468   2.013   .     S
O463   Zn467   1.949   .     S
O464   Zn468   1.949   .     S
O465   Zn467   1.949   .     S
O466   Zn468   1.949   .     S
C469   C472    1.445   .     S
C469   O498    1.292   .     A
C469   O495    1.292   .     A
C470   C472    1.412   .     A
C470   Cl488   1.780   .     S
C471   C477    1.445   .     S
C471   C483    1.412   .     A
C471   C484    1.412   .     A
C472   C482    1.412   .     A
C473   Cl489   1.760   .     S
C473   N494    1.370   .     A
C474   N493    1.370   .     A
C474   Cl490   1.760   .     S
C474   C583    1.420   .     S
C475   N494    1.370   .     A
C475   Cl491   1.760   .     S
C476   N493    1.370   .     A
C476   Cl492   1.760   .     S
C476   C581    1.420   .     S
C477   O497    1.292   .     A
C477   O496    1.292   .     A
C478   O502    1.279   .     A
C478   C480    1.366   .     S
C478   O499    1.279   .     A
C479   C481    1.366   .     S
C479   O500    1.279   .     A
C479   O501    1.279   .     A
C481   C804    1.165   .     S
C482   Cl485   1.780   .     S
C483   Cl486   1.780   .     S
C483   C506    1.379   .     S
C484   Cl487   1.780   .     S
C484   C518    1.379   .     S
N493   Zn503   2.016   .     S
N494   Zn504   2.016   .     S
O495   Zn503   2.014   .     S
O496   Zn504   2.014   .     S
O497   Zn503   2.013   .     S
O498   Zn504   2.013   .     S
O499   Zn503   1.949   .     S
O500   Zn504   1.949   .     S
O501   Zn503   1.949   .     S
O502   Zn504   1.949   .     S
C505   C508    1.445   .     S
C505   O534    1.292   .     A
C505   O531    1.292   .     A
C506   C508    1.412   .     A
C506   Cl524   1.780   .     S
C507   C513    1.445   .     S
C507   C519    1.412   .     A
C507   C520    1.412   .     A
C508   C518    1.412   .     A
C509   Cl525   1.760   .     S
C509   N530    1.370   .     A
C510   N529    1.370   .     A
C510   Cl526   1.760   .     S
C510   C619    1.420   .     S
C511   N530    1.370   .     A
C511   Cl527   1.760   .     S
C512   N529    1.370   .     A
C512   Cl528   1.760   .     S
C512   C617    1.420   .     S
C513   O533    1.292   .     A
C513   O532    1.292   .     A
C514   O538    1.279   .     A
C514   C516    1.366   .     S
C514   O535    1.279   .     A
C515   C517    1.366   .     S
C515   O536    1.279   .     A
C515   O537    1.279   .     A
C517   C840    1.165   .     S
C518   Cl521   1.780   .     S
C519   Cl522   1.780   .     S
C519   C434    1.379   1_655 S
C520   Cl523   1.780   .     S
C520   C446    1.379   1_655 S
N529   Zn539   2.016   .     S
N530   Zn540   2.016   .     S
O531   Zn539   2.014   .     S
O532   Zn540   2.014   .     S
O533   Zn539   2.013   .     S
O534   Zn540   2.013   .     S
O535   Zn539   1.949   .     S
O536   Zn540   1.949   .     S
O537   Zn539   1.949   .     S
O538   Zn540   1.949   .     S
C541   C544    1.445   .     S
C541   O570    1.292   .     A
C541   O567    1.292   .     A
C542   C544    1.412   .     A
C542   Cl560   1.780   .     S
C542   C627    1.379   1_455 S
C543   C549    1.445   .     S
C543   C555    1.412   .     A
C543   C556    1.412   .     A
C544   C554    1.412   .     A
C545   Cl561   1.760   .     S
C545   N566    1.370   .     A
C546   N565    1.370   .     A
C546   Cl562   1.760   .     S
C546   C331    1.420   1_565 S
C547   N566    1.370   .     A
C547   Cl563   1.760   .     S
C548   N565    1.370   .     A
C548   Cl564   1.760   .     S
C548   C329    1.420   1_565 S
C549   O569    1.292   .     A
C549   O568    1.292   .     A
C550   O574    1.279   .     A
C550   C552    1.366   .     S
C550   O571    1.279   .     A
C551   C553    1.366   .     S
C551   O572    1.279   .     A
C551   O573    1.279   .     A
C553   C876    1.165   .     S
C554   Cl557   1.780   .     S
C554   C628    1.379   1_455 S
C555   Cl558   1.780   .     S
C555   C578    1.379   .     S
C556   Cl559   1.780   .     S
C556   C590    1.379   .     S
N565   Zn575   2.016   .     S
N566   Zn576   2.016   .     S
O567   Zn575   2.014   .     S
O568   Zn576   2.014   .     S
O569   Zn575   2.013   .     S
O570   Zn576   2.013   .     S
O571   Zn575   1.949   .     S
O572   Zn576   1.949   .     S
O573   Zn575   1.949   .     S
O574   Zn576   1.949   .     S
C577   C580    1.445   .     S
C577   O606    1.292   .     A
C577   O603    1.292   .     A
C578   C580    1.412   .     A
C578   Cl596   1.780   .     S
C579   C585    1.445   .     S
C579   C591    1.412   .     A
C579   C592    1.412   .     A
C580   C590    1.412   .     A
C581   Cl597   1.760   .     S
C581   N602    1.370   .     A
C582   N601    1.370   .     A
C582   Cl598   1.760   .     S
C582   C367    1.420   1_565 S
C583   N602    1.370   .     A
C583   Cl599   1.760   .     S
C584   N601    1.370   .     A
C584   Cl600   1.760   .     S
C584   C365    1.420   1_565 S
C585   O605    1.292   .     A
C585   O604    1.292   .     A
C586   O610    1.279   .     A
C586   C588    1.366   .     S
C586   O607    1.279   .     A
C587   C589    1.366   .     S
C587   O608    1.279   .     A
C587   O609    1.279   .     A
C589   C912    1.165   .     S
C590   Cl593   1.780   .     S
C591   Cl594   1.780   .     S
C591   C614    1.379   .     S
C592   Cl595   1.780   .     S
C592   C626    1.379   .     S
N601   Zn611   2.016   .     S
N602   Zn612   2.016   .     S
O603   Zn611   2.014   .     S
O604   Zn612   2.014   .     S
O605   Zn611   2.013   .     S
O606   Zn612   2.013   .     S
O607   Zn611   1.949   .     S
O608   Zn612   1.949   .     S
O609   Zn611   1.949   .     S
O610   Zn612   1.949   .     S
C613   C616    1.445   .     S
C613   O642    1.292   .     A
C613   O639    1.292   .     A
C614   C616    1.412   .     A
C614   Cl632   1.780   .     S
C615   C621    1.445   .     S
C615   C627    1.412   .     A
C615   C628    1.412   .     A
C616   C626    1.412   .     A
C617   Cl633   1.760   .     S
C617   N638    1.370   .     A
C618   N637    1.370   .     A
C618   Cl634   1.760   .     S
C618   C403    1.420   1_565 S
C619   N638    1.370   .     A
C619   Cl635   1.760   .     S
C620   N637    1.370   .     A
C620   Cl636   1.760   .     S
C620   C401    1.420   1_565 S
C621   O641    1.292   .     A
C621   O640    1.292   .     A
C622   O646    1.279   .     A
C622   C624    1.366   .     S
C622   O643    1.279   .     A
C623   C625    1.366   .     S
C623   O644    1.279   .     A
C623   O645    1.279   .     A
C625   C948    1.165   .     S
C626   Cl629   1.780   .     S
C627   Cl630   1.780   .     S
C627   C542    1.379   1_655 S
C628   Cl631   1.780   .     S
C628   C554    1.379   1_655 S
N637   Zn647   2.016   .     S
N638   Zn648   2.016   .     S
O639   Zn647   2.014   .     S
O640   Zn648   2.014   .     S
O641   Zn647   2.013   .     S
O642   Zn648   2.013   .     S
O643   Zn647   1.949   .     S
O644   Zn648   1.949   .     S
O645   Zn647   1.949   .     S
O646   Zn648   1.949   .     S
C649   C652    1.445   .     S
C649   O678    1.292   .     A
C649   O675    1.292   .     A
C650   C652    1.412   .     A
C650   Cl668   1.780   .     S
C650   C735    1.379   1_455 S
C651   C657    1.445   .     S
C651   C663    1.412   .     A
C651   C664    1.412   .     A
C652   C662    1.412   .     A
C653   Cl669   1.760   .     S
C653   N674    1.370   .     A
C653   C872    1.420   1_545 S
C654   N673    1.370   .     A
C654   Cl670   1.760   .     S
C654   C763    1.420   .     S
C655   N674    1.370   .     A
C655   Cl671   1.760   .     S
C655   C870    1.420   1_545 S
C656   N673    1.370   .     A
C656   Cl672   1.760   .     S
C656   C761    1.420   .     S
C657   O677    1.292   .     A
C657   O676    1.292   .     A
C658   O682    1.279   .     A
C658   C660    1.366   .     S
C658   O679    1.279   .     A
C659   C661    1.366   .     S
C659   O680    1.279   .     A
C659   O681    1.279   .     A
C661   C12     1.165   1_556 S
C662   Cl665   1.780   .     S
C662   C736    1.379   1_455 S
C663   Cl666   1.780   .     S
C663   C686    1.379   .     S
C664   Cl667   1.780   .     S
C664   C698    1.379   .     S
N673   Zn683   2.016   .     S
N674   Zn684   2.016   .     S
O675   Zn683   2.014   .     S
O676   Zn684   2.014   .     S
O677   Zn683   2.013   .     S
O678   Zn684   2.013   .     S
O679   Zn683   1.949   .     S
O680   Zn684   1.949   .     S
O681   Zn683   1.949   .     S
O682   Zn684   1.949   .     S
C685   C688    1.445   .     S
C685   O714    1.292   .     A
C685   O711    1.292   .     A
C686   C688    1.412   .     A
C686   Cl704   1.780   .     S
C687   C693    1.445   .     S
C687   C699    1.412   .     A
C687   C700    1.412   .     A
C688   C698    1.412   .     A
C689   Cl705   1.760   .     S
C689   N710    1.370   .     A
C689   C908    1.420   1_545 S
C690   N709    1.370   .     A
C690   Cl706   1.760   .     S
C690   C799    1.420   .     S
C691   N710    1.370   .     A
C691   Cl707   1.760   .     S
C691   C906    1.420   1_545 S
C692   N709    1.370   .     A
C692   Cl708   1.760   .     S
C692   C797    1.420   .     S
C693   O713    1.292   .     A
C693   O712    1.292   .     A
C694   O718    1.279   .     A
C694   C696    1.366   .     S
C694   O715    1.279   .     A
C695   C697    1.366   .     S
C695   O716    1.279   .     A
C695   O717    1.279   .     A
C697   C48     1.165   1_556 S
C698   Cl701   1.780   .     S
C699   Cl702   1.780   .     S
C699   C722    1.379   .     S
C700   Cl703   1.780   .     S
C700   C734    1.379   .     S
N709   Zn719   2.016   .     S
N710   Zn720   2.016   .     S
O711   Zn719   2.014   .     S
O712   Zn720   2.014   .     S
O713   Zn719   2.013   .     S
O714   Zn720   2.013   .     S
O715   Zn719   1.949   .     S
O716   Zn720   1.949   .     S
O717   Zn719   1.949   .     S
O718   Zn720   1.949   .     S
C721   C724    1.445   .     S
C721   O750    1.292   .     A
C721   O747    1.292   .     A
C722   C724    1.412   .     A
C722   Cl740   1.780   .     S
C723   C729    1.445   .     S
C723   C735    1.412   .     A
C723   C736    1.412   .     A
C724   C734    1.412   .     A
C725   Cl741   1.760   .     S
C725   N746    1.370   .     A
C725   C944    1.420   1_545 S
C726   N745    1.370   .     A
C726   Cl742   1.760   .     S
C726   C835    1.420   .     S
C727   N746    1.370   .     A
C727   Cl743   1.760   .     S
C727   C942    1.420   1_545 S
C728   N745    1.370   .     A
C728   Cl744   1.760   .     S
C728   C833    1.420   .     S
C729   O749    1.292   .     A
C729   O748    1.292   .     A
C730   O754    1.279   .     A
C730   C732    1.366   .     S
C730   O751    1.279   .     A
C731   C733    1.366   .     S
C731   O752    1.279   .     A
C731   O753    1.279   .     A
C733   C84     1.165   1_556 S
C734   Cl737   1.780   .     S
C735   Cl738   1.780   .     S
C735   C650    1.379   1_655 S
C736   Cl739   1.780   .     S
C736   C662    1.379   1_655 S
N745   Zn755   2.016   .     S
N746   Zn756   2.016   .     S
O747   Zn755   2.014   .     S
O748   Zn756   2.014   .     S
O749   Zn755   2.013   .     S
O750   Zn756   2.013   .     S
O751   Zn755   1.949   .     S
O752   Zn756   1.949   .     S
O753   Zn755   1.949   .     S
O754   Zn756   1.949   .     S
C757   C760    1.445   .     S
C757   O786    1.292   .     A
C757   O783    1.292   .     A
C758   C760    1.412   .     A
C758   Cl776   1.780   .     S
C758   C843    1.379   1_455 S
C759   C765    1.445   .     S
C759   C771    1.412   .     A
C759   C772    1.412   .     A
C760   C770    1.412   .     A
C761   Cl777   1.760   .     S
C761   N782    1.370   .     A
C762   N781    1.370   .     A
C762   Cl778   1.760   .     S
C762   C871    1.420   .     S
C763   N782    1.370   .     A
C763   Cl779   1.760   .     S
C764   N781    1.370   .     A
C764   Cl780   1.760   .     S
C764   C869    1.420   .     S
C765   O785    1.292   .     A
C765   O784    1.292   .     A
C766   O790    1.279   .     A
C766   C768    1.366   .     S
C766   O787    1.279   .     A
C767   C769    1.366   .     S
C767   O788    1.279   .     A
C767   O789    1.279   .     A
C769   C120    1.165   1_556 S
C770   Cl773   1.780   .     S
C770   C844    1.379   1_455 S
C771   Cl774   1.780   .     S
C771   C794    1.379   .     S
C772   Cl775   1.780   .     S
C772   C806    1.379   .     S
N781   Zn791   2.016   .     S
N782   Zn792   2.016   .     S
O783   Zn791   2.014   .     S
O784   Zn792   2.014   .     S
O785   Zn791   2.013   .     S
O786   Zn792   2.013   .     S
O787   Zn791   1.949   .     S
O788   Zn792   1.949   .     S
O789   Zn791   1.949   .     S
O790   Zn792   1.949   .     S
C793   C796    1.445   .     S
C793   O822    1.292   .     A
C793   O819    1.292   .     A
C794   C796    1.412   .     A
C794   Cl812   1.780   .     S
C795   C801    1.445   .     S
C795   C807    1.412   .     A
C795   C808    1.412   .     A
C796   C806    1.412   .     A
C797   Cl813   1.760   .     S
C797   N818    1.370   .     A
C798   N817    1.370   .     A
C798   Cl814   1.760   .     S
C798   C907    1.420   .     S
C799   N818    1.370   .     A
C799   Cl815   1.760   .     S
C800   N817    1.370   .     A
C800   Cl816   1.760   .     S
C800   C905    1.420   .     S
C801   O821    1.292   .     A
C801   O820    1.292   .     A
C802   O826    1.279   .     A
C802   C804    1.366   .     S
C802   O823    1.279   .     A
C803   C805    1.366   .     S
C803   O824    1.279   .     A
C803   O825    1.279   .     A
C805   C156    1.165   1_556 S
C806   Cl809   1.780   .     S
C807   Cl810   1.780   .     S
C807   C830    1.379   .     S
C808   Cl811   1.780   .     S
C808   C842    1.379   .     S
N817   Zn827   2.016   .     S
N818   Zn828   2.016   .     S
O819   Zn827   2.014   .     S
O820   Zn828   2.014   .     S
O821   Zn827   2.013   .     S
O822   Zn828   2.013   .     S
O823   Zn827   1.949   .     S
O824   Zn828   1.949   .     S
O825   Zn827   1.949   .     S
O826   Zn828   1.949   .     S
C829   C832    1.445   .     S
C829   O858    1.292   .     A
C829   O855    1.292   .     A
C830   C832    1.412   .     A
C830   Cl848   1.780   .     S
C831   C837    1.445   .     S
C831   C843    1.412   .     A
C831   C844    1.412   .     A
C832   C842    1.412   .     A
C833   Cl849   1.760   .     S
C833   N854    1.370   .     A
C834   N853    1.370   .     A
C834   Cl850   1.760   .     S
C834   C943    1.420   .     S
C835   N854    1.370   .     A
C835   Cl851   1.760   .     S
C836   N853    1.370   .     A
C836   Cl852   1.760   .     S
C836   C941    1.420   .     S
C837   O857    1.292   .     A
C837   O856    1.292   .     A
C838   O862    1.279   .     A
C838   C840    1.366   .     S
C838   O859    1.279   .     A
C839   C841    1.366   .     S
C839   O860    1.279   .     A
C839   O861    1.279   .     A
C841   C192    1.165   1_556 S
C842   Cl845   1.780   .     S
C843   Cl846   1.780   .     S
C843   C758    1.379   1_655 S
C844   Cl847   1.780   .     S
C844   C770    1.379   1_655 S
N853   Zn863   2.016   .     S
N854   Zn864   2.016   .     S
O855   Zn863   2.014   .     S
O856   Zn864   2.014   .     S
O857   Zn863   2.013   .     S
O858   Zn864   2.013   .     S
O859   Zn863   1.949   .     S
O860   Zn864   1.949   .     S
O861   Zn863   1.949   .     S
O862   Zn864   1.949   .     S
C865   C868    1.445   .     S
C865   O894    1.292   .     A
C865   O891    1.292   .     A
C866   C868    1.412   .     A
C866   Cl884   1.780   .     S
C866   C951    1.379   1_455 S
C867   C873    1.445   .     S
C867   C879    1.412   .     A
C867   C880    1.412   .     A
C868   C878    1.412   .     A
C869   Cl885   1.760   .     S
C869   N890    1.370   .     A
C870   N889    1.370   .     A
C870   Cl886   1.760   .     S
C870   C655    1.420   1_565 S
C871   N890    1.370   .     A
C871   Cl887   1.760   .     S
C872   N889    1.370   .     A
C872   Cl888   1.760   .     S
C872   C653    1.420   1_565 S
C873   O893    1.292   .     A
C873   O892    1.292   .     A
C874   O898    1.279   .     A
C874   C876    1.366   .     S
C874   O895    1.279   .     A
C875   C877    1.366   .     S
C875   O896    1.279   .     A
C875   O897    1.279   .     A
C877   C228    1.165   1_556 S
C878   Cl881   1.780   .     S
C878   C952    1.379   1_455 S
C879   Cl882   1.780   .     S
C879   C902    1.379   .     S
C880   Cl883   1.780   .     S
C880   C914    1.379   .     S
N889   Zn899   2.016   .     S
N890   Zn900   2.016   .     S
O891   Zn899   2.014   .     S
O892   Zn900   2.014   .     S
O893   Zn899   2.013   .     S
O894   Zn900   2.013   .     S
O895   Zn899   1.949   .     S
O896   Zn900   1.949   .     S
O897   Zn899   1.949   .     S
O898   Zn900   1.949   .     S
C901   C904    1.445   .     S
C901   O930    1.292   .     A
C901   O927    1.292   .     A
C902   C904    1.412   .     A
C902   Cl920   1.780   .     S
C903   C909    1.445   .     S
C903   C915    1.412   .     A
C903   C916    1.412   .     A
C904   C914    1.412   .     A
C905   Cl921   1.760   .     S
C905   N926    1.370   .     A
C906   N925    1.370   .     A
C906   Cl922   1.760   .     S
C906   C691    1.420   1_565 S
C907   N926    1.370   .     A
C907   Cl923   1.760   .     S
C908   N925    1.370   .     A
C908   Cl924   1.760   .     S
C908   C689    1.420   1_565 S
C909   O929    1.292   .     A
C909   O928    1.292   .     A
C910   O934    1.279   .     A
C910   C912    1.366   .     S
C910   O931    1.279   .     A
C911   C913    1.366   .     S
C911   O932    1.279   .     A
C911   O933    1.279   .     A
C913   C264    1.165   1_556 S
C914   Cl917   1.780   .     S
C915   Cl918   1.780   .     S
C915   C938    1.379   .     S
C916   Cl919   1.780   .     S
C916   C950    1.379   .     S
N925   Zn935   2.016   .     S
N926   Zn936   2.016   .     S
O927   Zn935   2.014   .     S
O928   Zn936   2.014   .     S
O929   Zn935   2.013   .     S
O930   Zn936   2.013   .     S
O931   Zn935   1.949   .     S
O932   Zn936   1.949   .     S
O933   Zn935   1.949   .     S
O934   Zn936   1.949   .     S
C937   C940    1.445   .     S
C937   O966    1.292   .     A
C937   O963    1.292   .     A
C938   C940    1.412   .     A
C938   Cl956   1.780   .     S
C939   C945    1.445   .     S
C939   C951    1.412   .     A
C939   C952    1.412   .     A
C940   C950    1.412   .     A
C941   Cl957   1.760   .     S
C941   N962    1.370   .     A
C942   N961    1.370   .     A
C942   Cl958   1.760   .     S
C942   C727    1.420   1_565 S
C943   N962    1.370   .     A
C943   Cl959   1.760   .     S
C944   N961    1.370   .     A
C944   Cl960   1.760   .     S
C944   C725    1.420   1_565 S
C945   O965    1.292   .     A
C945   O964    1.292   .     A
C946   O970    1.279   .     A
C946   C948    1.366   .     S
C946   O967    1.279   .     A
C947   C949    1.366   .     S
C947   O968    1.279   .     A
C947   O969    1.279   .     A
C949   C300    1.165   1_556 S
C950   Cl953   1.780   .     S
C951   Cl954   1.780   .     S
C951   C866    1.379   1_655 S
C952   Cl955   1.780   .     S
C952   C878    1.379   1_655 S
N961   Zn971   2.016   .     S
N962   Zn972   2.016   .     S
O963   Zn971   2.014   .     S
O964   Zn972   2.014   .     S
O965   Zn971   2.013   .     S
O966   Zn972   2.013   .     S
O967   Zn971   1.949   .     S
O968   Zn972   1.949   .     S
O969   Zn971   1.949   .     S
O970   Zn972   1.949   .     S
