data_str_m3_o2_o10_pcu_sym.165
_audit_creation_date              2020-01-03
_audit_creation_method            'Materials Studio'
_symmetry_space_group_name_H-M    'P1'
_symmetry_Int_Tables_number       1
_symmetry_cell_setting            triclinic
loop_
_symmetry_equiv_pos_as_xyz
  x,y,z
_cell_length_a                    25.7413
_cell_length_b                    29.4978
_cell_length_c                    28.3897
_cell_angle_alpha                 91.2357
_cell_angle_beta                  99.3160
_cell_angle_gamma                 90.9286
loop_
_atom_site_label
_atom_site_type_symbol
_atom_site_fract_x
_atom_site_fract_y
_atom_site_fract_z
_atom_site_U_iso_or_equiv
_atom_site_adp_type
_atom_site_occupancy
C1     C     0.17061   0.16344   0.25022   0.00000  Uiso   1.00
C2     C     0.16812   0.33681   0.25063   0.00000  Uiso   1.00
C3     C     0.12002   0.24711   0.04547   0.00000  Uiso   1.00
C4     C     0.19961   0.27885   0.45274   0.00000  Uiso   1.00
C5     C     0.12070   0.24328   0.09496   0.00000  Uiso   1.00
C6     C     0.20227   0.27628   0.40355   0.00000  Uiso   1.00
C7     C     0.21288   0.25563   0.10931   0.00000  Uiso   1.00
C8     C     0.13129   0.22316   0.39147   0.00000  Uiso   1.00
C9     C     0.21469   0.25608   0.05939   0.00000  Uiso   1.00
C10    C     0.13036   0.22169   0.44087   0.00000  Uiso   1.00
C11    C     0.16685   0.25124   0.02662   0.00000  Uiso   1.00
C12    C     0.16543   0.25026   0.47293   0.00000  Uiso   1.00
C13    C     0.06697   0.25016   0.23743   0.00000  Uiso   1.00
C14    C     0.26640   0.25020   0.26262   0.00000  Uiso   1.00
C15    C     0.01185   0.25093   0.23086   0.00000  Uiso   1.00
C16    C     0.32159   0.25009   0.26938   0.00000  Uiso   1.00
C17    C     0.19970   0.04650   0.29581   0.00000  Uiso   1.00
C18    C     0.18217   0.45652   0.21244   0.00000  Uiso   1.00
C19    C     0.18855   0.09216   0.29536   0.00000  Uiso   1.00
C20    C     0.16797   0.41083   0.21076   0.00000  Uiso   1.00
C21    C     0.18707   0.11599   0.25242   0.00000  Uiso   1.00
C22    C     0.17989   0.38549   0.25255   0.00000  Uiso   1.00
C23    C     0.20623   0.09496   0.21341   0.00000  Uiso   1.00
C24    C     0.20914   0.40592   0.29431   0.00000  Uiso   1.00
C25    C     0.22569   0.05099   0.21764   0.00000  Uiso   1.00
C26    C     0.23016   0.44966   0.29280   0.00000  Uiso   1.00
C27    C     0.21696   0.02542   0.25686   0.00000  Uiso   1.00
C28    C     0.21320   0.47605   0.25302   0.00000  Uiso   1.00
H29    H     0.32424   0.25228   0.19455   0.00000  Uiso   1.00
H30    H     0.00928   0.24898   0.30579   0.00000  Uiso   1.00
H31    H     0.19197   0.02717   0.32602   0.00000  Uiso   1.00
H32    H     0.16657   0.47730   0.18275   0.00000  Uiso   1.00
H33    H     0.08256   0.24629   0.02195   0.00000  Uiso   1.00
H34    H     0.22345   0.30403   0.47482   0.00000  Uiso   1.00
H35    H     0.24830   0.25859   0.13496   0.00000  Uiso   1.00
H36    H     0.10334   0.20268   0.36701   0.00000  Uiso   1.00
N37    N     0.16667   0.24999   0.12624   0.00000  Uiso   1.00
N38    N     0.16667   0.25001   0.37377   0.00000  Uiso   1.00
O39    O     0.16667   0.18454   0.28974   0.00000  Uiso   1.00
O40    O     0.16666   0.31547   0.21026   0.00000  Uiso   1.00
O41    O     0.16667   0.18453   0.21026   0.00000  Uiso   1.00
O42    O     0.16666   0.31547   0.28974   0.00000  Uiso   1.00
O43    O     0.09058   0.25000   0.28045   0.00000  Uiso   1.00
O44    O     0.24275   0.25000   0.21956   0.00000  Uiso   1.00
O45    O     0.09058   0.25000   0.20097   0.00000  Uiso   1.00
O46    O     0.24275   0.25001   0.29904   0.00000  Uiso   1.00
Zn47   Zn    0.16667   0.25001   0.30307   0.00000  Uiso   1.00
Zn48   Zn    0.16667   0.25000   0.19693   0.00000  Uiso   1.00
O49    O     0.17346   0.11159   0.33567   0.00000  Uiso   1.00
C50    C     0.21866   0.12820   0.36703   0.00000  Uiso   1.00
H51    H     0.20598   0.15700   0.38792   0.00000  Uiso   1.00
H52    H     0.24980   0.14238   0.34801   0.00000  Uiso   1.00
C53    C     0.24171   0.09173   0.40173   0.00000  Uiso   1.00
H54    H     0.20945   0.07067   0.41209   0.00000  Uiso   1.00
H55    H     0.26712   0.06922   0.38382   0.00000  Uiso   1.00
C56    C     0.27441   0.11287   0.44679   0.00000  Uiso   1.00
H57    H     0.30504   0.13635   0.43736   0.00000  Uiso   1.00
H58    H     0.29393   0.08576   0.46937   0.00000  Uiso   1.00
H59    H     0.24867   0.13199   0.46771   0.00000  Uiso   1.00
O60    O     0.13693   0.39241   0.17015   0.00000  Uiso   1.00
C61    C     0.16651   0.38837   0.13223   0.00000  Uiso   1.00
H62    H     0.16155   0.35285   0.11816   0.00000  Uiso   1.00
H63    H     0.20981   0.39458   0.14306   0.00000  Uiso   1.00
C64    C     0.14517   0.42012   0.09193   0.00000  Uiso   1.00
H65    H     0.10204   0.41461   0.08175   0.00000  Uiso   1.00
H66    H     0.15240   0.45597   0.10413   0.00000  Uiso   1.00
C67    C     0.17131   0.41208   0.04799   0.00000  Uiso   1.00
H68    H     0.21437   0.41907   0.05688   0.00000  Uiso   1.00
H69    H     0.15445   0.43529   0.01948   0.00000  Uiso   1.00
H70    H     0.16426   0.37654   0.03436   0.00000  Uiso   1.00
O71    O     0.20832   0.11759   0.17161   0.00000  Uiso   1.00
C72    C     0.16515   0.10278   0.13707   0.00000  Uiso   1.00
H73    H     0.12879   0.11971   0.14403   0.00000  Uiso   1.00
H74    H     0.15802   0.06535   0.13669   0.00000  Uiso   1.00
C75    C     0.17574   0.11493   0.08778   0.00000  Uiso   1.00
H76    H     0.21152   0.09768   0.08005   0.00000  Uiso   1.00
H77    H     0.14194   0.10314   0.06083   0.00000  Uiso   1.00
H78    H     0.18124   0.15219   0.08547   0.00000  Uiso   1.00
O79    O     0.21789   0.38360   0.33703   0.00000  Uiso   1.00
C80    C     0.17942   0.39645   0.36512   0.00000  Uiso   1.00
H81    H     0.15292   0.36682   0.36725   0.00000  Uiso   1.00
H82    H     0.15409   0.42516   0.35095   0.00000  Uiso   1.00
C83    C     0.20605   0.40983   0.41547   0.00000  Uiso   1.00
H84    H     0.17567   0.41857   0.43759   0.00000  Uiso   1.00
H85    H     0.22941   0.38144   0.43220   0.00000  Uiso   1.00
H86    H     0.23246   0.43979   0.41456   0.00000  Uiso   1.00
O87    O     0.24508   0.03117   0.17956   0.00000  Uiso   1.00
C88    C     0.29998   0.02645   0.19226   0.00000  Uiso   1.00
H89    H     0.30986   0.00540   0.22440   0.00000  Uiso   1.00
H90    H     0.31989   0.06030   0.19921   0.00000  Uiso   1.00
C91    C     0.32108   0.00287   0.15131   0.00000  Uiso   1.00
H92    H     0.31200   0.02283   0.11838   0.00000  Uiso   1.00
H93    H     0.03109   0.49945   0.16051   0.00000  Uiso   1.00
H94    H     0.30258   0.46858   0.14457   0.00000  Uiso   1.00
O95    O     0.26141   0.46853   0.33288   0.00000  Uiso   1.00
C96    C     0.31405   0.45638   0.33207   0.00000  Uiso   1.00
H97    H     0.32875   0.47169   0.30113   0.00000  Uiso   1.00
H98    H     0.31808   0.41887   0.33012   0.00000  Uiso   1.00
C99    C     0.01505   0.47412   0.37762   0.00000  Uiso   1.00
H100   H     0.00169   0.45899   0.40921   0.00000  Uiso   1.00
H101   H     0.05666   0.46488   0.37731   0.00000  Uiso   1.00
H102   H     0.01264   0.01163   0.38033   0.00000  Uiso   1.00
O103   O     0.07473   0.23351   0.11239   0.00000  Uiso   1.00
C104   C     0.05148   0.19239   0.09166   0.00000  Uiso   1.00
H105   H     0.08154   0.16709   0.08573   0.00000  Uiso   1.00
H106   H     0.02646   0.19913   0.05688   0.00000  Uiso   1.00
C107   C     0.01689   0.17165   0.12484   0.00000  Uiso   1.00
H108   H     0.04099   0.16617   0.16036   0.00000  Uiso   1.00
H109   H     0.31811   0.19516   0.12952   0.00000  Uiso   1.00
C110   C     0.32590   0.12643   0.10462   0.00000  Uiso   1.00
H111   H     0.30139   0.13112   0.06915   0.00000  Uiso   1.00
H112   H     0.30058   0.11256   0.12920   0.00000  Uiso   1.00
H113   H     0.02388   0.10173   0.10094   0.00000  Uiso   1.00
O114   O     0.23636   0.30413   0.38401   0.00000  Uiso   1.00
C115   C     0.28926   0.29455   0.40259   0.00000  Uiso   1.00
H116   H     0.29964   0.26083   0.38883   0.00000  Uiso   1.00
H117   H     0.29695   0.29472   0.44231   0.00000  Uiso   1.00
C118   C     0.32460   0.33120   0.38641   0.00000  Uiso   1.00
H119   H     0.31769   0.33221   0.34676   0.00000  Uiso   1.00
H120   H     0.31452   0.36473   0.40070   0.00000  Uiso   1.00
C121   C     0.04929   0.32266   0.40396   0.00000  Uiso   1.00
H122   H     0.05689   0.31880   0.44331   0.00000  Uiso   1.00
H123   H     0.07316   0.35184   0.39486   0.00000  Uiso   1.00
H124   H     0.06127   0.29162   0.38621   0.00000  Uiso   1.00
O125   O     0.26189   0.25706   0.04116   0.00000  Uiso   1.00
C126   C     0.30169   0.28582   0.06714   0.00000  Uiso   1.00
H127   H     0.00305   0.28369   0.04857   0.00000  Uiso   1.00
H128   H     0.31554   0.27354   0.10350   0.00000  Uiso   1.00
C129   C     0.28632   0.33593   0.06805   0.00000  Uiso   1.00
H130   H     0.27824   0.34846   0.03104   0.00000  Uiso   1.00
H131   H     0.25047   0.34009   0.08462   0.00000  Uiso   1.00
C132   C     0.33065   0.36480   0.09662   0.00000  Uiso   1.00
H133   H     0.00382   0.35500   0.13466   0.00000  Uiso   1.00
H134   H     0.32015   0.40112   0.09458   0.00000  Uiso   1.00
H135   H     0.03427   0.36013   0.08182   0.00000  Uiso   1.00
O136   O     0.09100   0.19606   0.45594   0.00000  Uiso   1.00
C137   C     0.11090   0.15443   0.47395   0.00000  Uiso   1.00
H138   H     0.08970   0.14590   0.00373   0.00000  Uiso   1.00
H139   H     0.15382   0.15582   0.48887   0.00000  Uiso   1.00
C140   C     0.09912   0.11682   0.43556   0.00000  Uiso   1.00
H141   H     0.05686   0.11705   0.41938   0.00000  Uiso   1.00
H142   H     0.12271   0.12308   0.40697   0.00000  Uiso   1.00
C143   C     0.11203   0.07025   0.45626   0.00000  Uiso   1.00
H144   H     0.15359   0.06964   0.47445   0.00000  Uiso   1.00
H145   H     0.10625   0.04410   0.42707   0.00000  Uiso   1.00
H146   H     0.08565   0.06186   0.48230   0.00000  Uiso   1.00
C147   C     0.50395   0.16344   0.25022   0.00000  Uiso   1.00
C148   C     0.50145   0.33681   0.25063   0.00000  Uiso   1.00
C149   C     0.45336   0.24711   0.04547   0.00000  Uiso   1.00
C150   C     0.53294   0.27885   0.45274   0.00000  Uiso   1.00
C151   C     0.45403   0.24328   0.09496   0.00000  Uiso   1.00
C152   C     0.53561   0.27628   0.40355   0.00000  Uiso   1.00
C153   C     0.54621   0.25563   0.10931   0.00000  Uiso   1.00
C154   C     0.46462   0.22316   0.39147   0.00000  Uiso   1.00
C155   C     0.54803   0.25608   0.05939   0.00000  Uiso   1.00
C156   C     0.46369   0.22169   0.44087   0.00000  Uiso   1.00
C157   C     0.50019   0.25124   0.02662   0.00000  Uiso   1.00
C158   C     0.49877   0.25026   0.47293   0.00000  Uiso   1.00
C159   C     0.40030   0.25016   0.23743   0.00000  Uiso   1.00
C160   C     0.59974   0.25020   0.26262   0.00000  Uiso   1.00
C161   C     0.34518   0.25093   0.23086   0.00000  Uiso   1.00
C162   C     0.65493   0.25009   0.26938   0.00000  Uiso   1.00
C163   C     0.53304   0.04650   0.29581   0.00000  Uiso   1.00
C164   C     0.51551   0.45652   0.21244   0.00000  Uiso   1.00
C165   C     0.52188   0.09216   0.29536   0.00000  Uiso   1.00
C166   C     0.50131   0.41083   0.21076   0.00000  Uiso   1.00
C167   C     0.52041   0.11599   0.25242   0.00000  Uiso   1.00
C168   C     0.51322   0.38549   0.25255   0.00000  Uiso   1.00
C169   C     0.53956   0.09496   0.21341   0.00000  Uiso   1.00
C170   C     0.54248   0.40592   0.29431   0.00000  Uiso   1.00
C171   C     0.55902   0.05099   0.21764   0.00000  Uiso   1.00
C172   C     0.56349   0.44966   0.29280   0.00000  Uiso   1.00
C173   C     0.55030   0.02542   0.25686   0.00000  Uiso   1.00
C174   C     0.54653   0.47605   0.25302   0.00000  Uiso   1.00
H175   H     0.65757   0.25228   0.19455   0.00000  Uiso   1.00
H176   H     0.34261   0.24898   0.30579   0.00000  Uiso   1.00
H177   H     0.52530   0.02717   0.32602   0.00000  Uiso   1.00
H178   H     0.49990   0.47730   0.18275   0.00000  Uiso   1.00
H179   H     0.41589   0.24629   0.02195   0.00000  Uiso   1.00
H180   H     0.55679   0.30403   0.47482   0.00000  Uiso   1.00
H181   H     0.58163   0.25859   0.13496   0.00000  Uiso   1.00
H182   H     0.43667   0.20268   0.36701   0.00000  Uiso   1.00
N183   N     0.50000   0.24999   0.12624   0.00000  Uiso   1.00
N184   N     0.50000   0.25001   0.37377   0.00000  Uiso   1.00
O185   O     0.50000   0.18454   0.28974   0.00000  Uiso   1.00
O186   O     0.50000   0.31547   0.21026   0.00000  Uiso   1.00
O187   O     0.50000   0.18453   0.21026   0.00000  Uiso   1.00
O188   O     0.50000   0.31547   0.28974   0.00000  Uiso   1.00
O189   O     0.42392   0.25000   0.28045   0.00000  Uiso   1.00
O190   O     0.57608   0.25000   0.21956   0.00000  Uiso   1.00
O191   O     0.42392   0.25000   0.20097   0.00000  Uiso   1.00
O192   O     0.57608   0.25001   0.29904   0.00000  Uiso   1.00
Zn193  Zn    0.50000   0.25001   0.30307   0.00000  Uiso   1.00
Zn194  Zn    0.50000   0.25000   0.19693   0.00000  Uiso   1.00
O195   O     0.50679   0.11159   0.33567   0.00000  Uiso   1.00
C196   C     0.55200   0.12820   0.36703   0.00000  Uiso   1.00
H197   H     0.53932   0.15700   0.38792   0.00000  Uiso   1.00
H198   H     0.58313   0.14238   0.34801   0.00000  Uiso   1.00
C199   C     0.57504   0.09173   0.40173   0.00000  Uiso   1.00
H200   H     0.54279   0.07067   0.41209   0.00000  Uiso   1.00
H201   H     0.60045   0.06922   0.38382   0.00000  Uiso   1.00
C202   C     0.60774   0.11287   0.44679   0.00000  Uiso   1.00
H203   H     0.63837   0.13635   0.43736   0.00000  Uiso   1.00
H204   H     0.62726   0.08576   0.46937   0.00000  Uiso   1.00
H205   H     0.58200   0.13199   0.46771   0.00000  Uiso   1.00
O206   O     0.47026   0.39241   0.17015   0.00000  Uiso   1.00
C207   C     0.49984   0.38837   0.13223   0.00000  Uiso   1.00
H208   H     0.49489   0.35285   0.11816   0.00000  Uiso   1.00
H209   H     0.54315   0.39458   0.14306   0.00000  Uiso   1.00
C210   C     0.47850   0.42012   0.09193   0.00000  Uiso   1.00
H211   H     0.43538   0.41461   0.08175   0.00000  Uiso   1.00
H212   H     0.48574   0.45597   0.10413   0.00000  Uiso   1.00
C213   C     0.50465   0.41208   0.04799   0.00000  Uiso   1.00
H214   H     0.54770   0.41907   0.05688   0.00000  Uiso   1.00
H215   H     0.48779   0.43529   0.01948   0.00000  Uiso   1.00
H216   H     0.49760   0.37654   0.03436   0.00000  Uiso   1.00
O217   O     0.54165   0.11759   0.17161   0.00000  Uiso   1.00
C218   C     0.49848   0.10278   0.13707   0.00000  Uiso   1.00
H219   H     0.46213   0.11971   0.14403   0.00000  Uiso   1.00
H220   H     0.49135   0.06535   0.13669   0.00000  Uiso   1.00
C221   C     0.50908   0.11493   0.08778   0.00000  Uiso   1.00
H222   H     0.54485   0.09768   0.08005   0.00000  Uiso   1.00
H223   H     0.47527   0.10314   0.06083   0.00000  Uiso   1.00
H224   H     0.51457   0.15219   0.08547   0.00000  Uiso   1.00
O225   O     0.55122   0.38360   0.33703   0.00000  Uiso   1.00
C226   C     0.51275   0.39645   0.36512   0.00000  Uiso   1.00
H227   H     0.48625   0.36682   0.36725   0.00000  Uiso   1.00
H228   H     0.48742   0.42516   0.35095   0.00000  Uiso   1.00
C229   C     0.53939   0.40983   0.41547   0.00000  Uiso   1.00
H230   H     0.50900   0.41857   0.43759   0.00000  Uiso   1.00
H231   H     0.56274   0.38144   0.43220   0.00000  Uiso   1.00
H232   H     0.56580   0.43979   0.41456   0.00000  Uiso   1.00
O233   O     0.57842   0.03117   0.17956   0.00000  Uiso   1.00
C234   C     0.63331   0.02645   0.19226   0.00000  Uiso   1.00
H235   H     0.64319   0.00540   0.22440   0.00000  Uiso   1.00
H236   H     0.65323   0.06030   0.19921   0.00000  Uiso   1.00
C237   C     0.65441   0.00287   0.15131   0.00000  Uiso   1.00
H238   H     0.64533   0.02283   0.11838   0.00000  Uiso   1.00
H239   H     0.36442   0.49945   0.16051   0.00000  Uiso   1.00
H240   H     0.63591   0.46858   0.14457   0.00000  Uiso   1.00
O241   O     0.59474   0.46853   0.33288   0.00000  Uiso   1.00
C242   C     0.64738   0.45638   0.33207   0.00000  Uiso   1.00
H243   H     0.66209   0.47169   0.30113   0.00000  Uiso   1.00
H244   H     0.65141   0.41887   0.33012   0.00000  Uiso   1.00
C245   C     0.34839   0.47412   0.37762   0.00000  Uiso   1.00
H246   H     0.33503   0.45899   0.40921   0.00000  Uiso   1.00
H247   H     0.38999   0.46488   0.37731   0.00000  Uiso   1.00
H248   H     0.34598   0.01163   0.38033   0.00000  Uiso   1.00
O249   O     0.40806   0.23351   0.11239   0.00000  Uiso   1.00
C250   C     0.38481   0.19239   0.09166   0.00000  Uiso   1.00
H251   H     0.41487   0.16709   0.08573   0.00000  Uiso   1.00
H252   H     0.35979   0.19913   0.05688   0.00000  Uiso   1.00
C253   C     0.35022   0.17165   0.12484   0.00000  Uiso   1.00
H254   H     0.37432   0.16617   0.16036   0.00000  Uiso   1.00
H255   H     0.65145   0.19516   0.12952   0.00000  Uiso   1.00
C256   C     0.65923   0.12643   0.10462   0.00000  Uiso   1.00
H257   H     0.63472   0.13112   0.06915   0.00000  Uiso   1.00
H258   H     0.63391   0.11256   0.12920   0.00000  Uiso   1.00
H259   H     0.35721   0.10173   0.10094   0.00000  Uiso   1.00
O260   O     0.56970   0.30413   0.38401   0.00000  Uiso   1.00
C261   C     0.62259   0.29455   0.40259   0.00000  Uiso   1.00
H262   H     0.63297   0.26083   0.38883   0.00000  Uiso   1.00
H263   H     0.63028   0.29472   0.44231   0.00000  Uiso   1.00
C264   C     0.65793   0.33120   0.38641   0.00000  Uiso   1.00
H265   H     0.65102   0.33221   0.34676   0.00000  Uiso   1.00
H266   H     0.64785   0.36473   0.40070   0.00000  Uiso   1.00
C267   C     0.38262   0.32266   0.40396   0.00000  Uiso   1.00
H268   H     0.39023   0.31880   0.44331   0.00000  Uiso   1.00
H269   H     0.40649   0.35184   0.39486   0.00000  Uiso   1.00
H270   H     0.39460   0.29162   0.38621   0.00000  Uiso   1.00
O271   O     0.59522   0.25706   0.04116   0.00000  Uiso   1.00
C272   C     0.63502   0.28582   0.06714   0.00000  Uiso   1.00
H273   H     0.33639   0.28369   0.04857   0.00000  Uiso   1.00
H274   H     0.64888   0.27354   0.10350   0.00000  Uiso   1.00
C275   C     0.61965   0.33593   0.06805   0.00000  Uiso   1.00
H276   H     0.61157   0.34846   0.03104   0.00000  Uiso   1.00
H277   H     0.58381   0.34009   0.08462   0.00000  Uiso   1.00
C278   C     0.66399   0.36480   0.09662   0.00000  Uiso   1.00
H279   H     0.33715   0.35500   0.13466   0.00000  Uiso   1.00
H280   H     0.65348   0.40112   0.09458   0.00000  Uiso   1.00
H281   H     0.36760   0.36013   0.08182   0.00000  Uiso   1.00
O282   O     0.42433   0.19606   0.45594   0.00000  Uiso   1.00
C283   C     0.44423   0.15443   0.47395   0.00000  Uiso   1.00
H284   H     0.42304   0.14590   0.00373   0.00000  Uiso   1.00
H285   H     0.48715   0.15582   0.48887   0.00000  Uiso   1.00
C286   C     0.43245   0.11682   0.43556   0.00000  Uiso   1.00
H287   H     0.39020   0.11705   0.41938   0.00000  Uiso   1.00
H288   H     0.45604   0.12308   0.40697   0.00000  Uiso   1.00
C289   C     0.44537   0.07025   0.45626   0.00000  Uiso   1.00
H290   H     0.48693   0.06964   0.47445   0.00000  Uiso   1.00
H291   H     0.43959   0.04410   0.42707   0.00000  Uiso   1.00
H292   H     0.41898   0.06186   0.48230   0.00000  Uiso   1.00
C293   C     0.83728   0.16344   0.25022   0.00000  Uiso   1.00
C294   C     0.83478   0.33681   0.25063   0.00000  Uiso   1.00
C295   C     0.78669   0.24711   0.04547   0.00000  Uiso   1.00
C296   C     0.86628   0.27885   0.45274   0.00000  Uiso   1.00
C297   C     0.78737   0.24328   0.09496   0.00000  Uiso   1.00
C298   C     0.86894   0.27628   0.40355   0.00000  Uiso   1.00
C299   C     0.87955   0.25563   0.10931   0.00000  Uiso   1.00
C300   C     0.79795   0.22316   0.39147   0.00000  Uiso   1.00
C301   C     0.88136   0.25608   0.05939   0.00000  Uiso   1.00
C302   C     0.79702   0.22169   0.44087   0.00000  Uiso   1.00
C303   C     0.83352   0.25124   0.02662   0.00000  Uiso   1.00
C304   C     0.83210   0.25026   0.47293   0.00000  Uiso   1.00
C305   C     0.73363   0.25016   0.23743   0.00000  Uiso   1.00
C306   C     0.93307   0.25020   0.26262   0.00000  Uiso   1.00
C307   C     0.67852   0.25093   0.23086   0.00000  Uiso   1.00
C308   C     0.98826   0.25009   0.26938   0.00000  Uiso   1.00
C309   C     0.86637   0.04650   0.29581   0.00000  Uiso   1.00
C310   C     0.84884   0.45652   0.21244   0.00000  Uiso   1.00
C311   C     0.85522   0.09216   0.29536   0.00000  Uiso   1.00
C312   C     0.83464   0.41083   0.21076   0.00000  Uiso   1.00
C313   C     0.85374   0.11599   0.25242   0.00000  Uiso   1.00
C314   C     0.84655   0.38549   0.25255   0.00000  Uiso   1.00
C315   C     0.87290   0.09496   0.21341   0.00000  Uiso   1.00
C316   C     0.87581   0.40592   0.29431   0.00000  Uiso   1.00
C317   C     0.89235   0.05099   0.21764   0.00000  Uiso   1.00
C318   C     0.89682   0.44966   0.29280   0.00000  Uiso   1.00
C319   C     0.88363   0.02542   0.25686   0.00000  Uiso   1.00
C320   C     0.87986   0.47605   0.25302   0.00000  Uiso   1.00
H321   H     0.99091   0.25228   0.19455   0.00000  Uiso   1.00
H322   H     0.67594   0.24898   0.30579   0.00000  Uiso   1.00
H323   H     0.85863   0.02717   0.32602   0.00000  Uiso   1.00
H324   H     0.83324   0.47730   0.18275   0.00000  Uiso   1.00
H325   H     0.74923   0.24629   0.02195   0.00000  Uiso   1.00
H326   H     0.89012   0.30403   0.47482   0.00000  Uiso   1.00
H327   H     0.91496   0.25859   0.13496   0.00000  Uiso   1.00
H328   H     0.77000   0.20268   0.36701   0.00000  Uiso   1.00
N329   N     0.83333   0.24999   0.12624   0.00000  Uiso   1.00
N330   N     0.83333   0.25001   0.37377   0.00000  Uiso   1.00
O331   O     0.83334   0.18454   0.28974   0.00000  Uiso   1.00
O332   O     0.83333   0.31547   0.21026   0.00000  Uiso   1.00
O333   O     0.83334   0.18453   0.21026   0.00000  Uiso   1.00
O334   O     0.83333   0.31547   0.28974   0.00000  Uiso   1.00
O335   O     0.75725   0.25000   0.28045   0.00000  Uiso   1.00
O336   O     0.90942   0.25000   0.21956   0.00000  Uiso   1.00
O337   O     0.75725   0.25000   0.20097   0.00000  Uiso   1.00
O338   O     0.90942   0.25001   0.29904   0.00000  Uiso   1.00
Zn339  Zn    0.83333   0.25001   0.30307   0.00000  Uiso   1.00
Zn340  Zn    0.83333   0.25000   0.19693   0.00000  Uiso   1.00
O341   O     0.84013   0.11159   0.33567   0.00000  Uiso   1.00
C342   C     0.88533   0.12820   0.36703   0.00000  Uiso   1.00
H343   H     0.87265   0.15700   0.38792   0.00000  Uiso   1.00
H344   H     0.91647   0.14238   0.34801   0.00000  Uiso   1.00
C345   C     0.90838   0.09173   0.40173   0.00000  Uiso   1.00
H346   H     0.87612   0.07067   0.41209   0.00000  Uiso   1.00
H347   H     0.93379   0.06922   0.38382   0.00000  Uiso   1.00
C348   C     0.94107   0.11287   0.44679   0.00000  Uiso   1.00
H349   H     0.97170   0.13635   0.43736   0.00000  Uiso   1.00
H350   H     0.96059   0.08576   0.46937   0.00000  Uiso   1.00
H351   H     0.91533   0.13199   0.46771   0.00000  Uiso   1.00
O352   O     0.80359   0.39241   0.17015   0.00000  Uiso   1.00
C353   C     0.83317   0.38837   0.13223   0.00000  Uiso   1.00
H354   H     0.82822   0.35285   0.11816   0.00000  Uiso   1.00
H355   H     0.87648   0.39458   0.14306   0.00000  Uiso   1.00
C356   C     0.81184   0.42012   0.09193   0.00000  Uiso   1.00
H357   H     0.76871   0.41461   0.08175   0.00000  Uiso   1.00
H358   H     0.81907   0.45597   0.10413   0.00000  Uiso   1.00
C359   C     0.83798   0.41208   0.04799   0.00000  Uiso   1.00
H360   H     0.88103   0.41907   0.05688   0.00000  Uiso   1.00
H361   H     0.82112   0.43529   0.01948   0.00000  Uiso   1.00
H362   H     0.83093   0.37654   0.03436   0.00000  Uiso   1.00
O363   O     0.87498   0.11759   0.17161   0.00000  Uiso   1.00
C364   C     0.83181   0.10278   0.13707   0.00000  Uiso   1.00
H365   H     0.79546   0.11971   0.14403   0.00000  Uiso   1.00
H366   H     0.82469   0.06535   0.13669   0.00000  Uiso   1.00
C367   C     0.84241   0.11493   0.08778   0.00000  Uiso   1.00
H368   H     0.87818   0.09768   0.08005   0.00000  Uiso   1.00
H369   H     0.80861   0.10314   0.06083   0.00000  Uiso   1.00
H370   H     0.84790   0.15219   0.08547   0.00000  Uiso   1.00
O371   O     0.88456   0.38360   0.33703   0.00000  Uiso   1.00
C372   C     0.84608   0.39645   0.36512   0.00000  Uiso   1.00
H373   H     0.81958   0.36682   0.36725   0.00000  Uiso   1.00
H374   H     0.82075   0.42516   0.35095   0.00000  Uiso   1.00
C375   C     0.87272   0.40983   0.41547   0.00000  Uiso   1.00
H376   H     0.84233   0.41857   0.43759   0.00000  Uiso   1.00
H377   H     0.89608   0.38144   0.43220   0.00000  Uiso   1.00
H378   H     0.89913   0.43979   0.41456   0.00000  Uiso   1.00
O379   O     0.91175   0.03117   0.17956   0.00000  Uiso   1.00
C380   C     0.96664   0.02645   0.19226   0.00000  Uiso   1.00
H381   H     0.97652   0.00540   0.22440   0.00000  Uiso   1.00
H382   H     0.98656   0.06030   0.19921   0.00000  Uiso   1.00
C383   C     0.98775   0.00287   0.15131   0.00000  Uiso   1.00
H384   H     0.97867   0.02283   0.11838   0.00000  Uiso   1.00
H385   H     0.69776   0.49945   0.16051   0.00000  Uiso   1.00
H386   H     0.96924   0.46858   0.14457   0.00000  Uiso   1.00
O387   O     0.92807   0.46853   0.33288   0.00000  Uiso   1.00
C388   C     0.98072   0.45638   0.33207   0.00000  Uiso   1.00
H389   H     0.99542   0.47169   0.30113   0.00000  Uiso   1.00
H390   H     0.98475   0.41887   0.33012   0.00000  Uiso   1.00
C391   C     0.68172   0.47412   0.37762   0.00000  Uiso   1.00
H392   H     0.66836   0.45899   0.40921   0.00000  Uiso   1.00
H393   H     0.72333   0.46488   0.37731   0.00000  Uiso   1.00
H394   H     0.67931   0.01163   0.38033   0.00000  Uiso   1.00
O395   O     0.74140   0.23351   0.11239   0.00000  Uiso   1.00
C396   C     0.71815   0.19239   0.09166   0.00000  Uiso   1.00
H397   H     0.74821   0.16709   0.08573   0.00000  Uiso   1.00
H398   H     0.69312   0.19913   0.05688   0.00000  Uiso   1.00
C399   C     0.68355   0.17165   0.12484   0.00000  Uiso   1.00
H400   H     0.70766   0.16617   0.16036   0.00000  Uiso   1.00
H401   H     0.98478   0.19516   0.12952   0.00000  Uiso   1.00
C402   C     0.99256   0.12643   0.10462   0.00000  Uiso   1.00
H403   H     0.96805   0.13112   0.06915   0.00000  Uiso   1.00
H404   H     0.96725   0.11256   0.12920   0.00000  Uiso   1.00
H405   H     0.69054   0.10173   0.10094   0.00000  Uiso   1.00
O406   O     0.90303   0.30413   0.38401   0.00000  Uiso   1.00
C407   C     0.95592   0.29455   0.40259   0.00000  Uiso   1.00
H408   H     0.96630   0.26083   0.38883   0.00000  Uiso   1.00
H409   H     0.96362   0.29472   0.44231   0.00000  Uiso   1.00
C410   C     0.99126   0.33120   0.38641   0.00000  Uiso   1.00
H411   H     0.98436   0.33221   0.34676   0.00000  Uiso   1.00
H412   H     0.98118   0.36473   0.40070   0.00000  Uiso   1.00
C413   C     0.71596   0.32266   0.40396   0.00000  Uiso   1.00
H414   H     0.72356   0.31880   0.44331   0.00000  Uiso   1.00
H415   H     0.73983   0.35184   0.39486   0.00000  Uiso   1.00
H416   H     0.72793   0.29162   0.38621   0.00000  Uiso   1.00
O417   O     0.92856   0.25706   0.04116   0.00000  Uiso   1.00
C418   C     0.96835   0.28582   0.06714   0.00000  Uiso   1.00
H419   H     0.66972   0.28369   0.04857   0.00000  Uiso   1.00
H420   H     0.98221   0.27354   0.10350   0.00000  Uiso   1.00
C421   C     0.95298   0.33593   0.06805   0.00000  Uiso   1.00
H422   H     0.94491   0.34846   0.03104   0.00000  Uiso   1.00
H423   H     0.91714   0.34009   0.08462   0.00000  Uiso   1.00
C424   C     0.99732   0.36480   0.09662   0.00000  Uiso   1.00
H425   H     0.67048   0.35500   0.13466   0.00000  Uiso   1.00
H426   H     0.98681   0.40112   0.09458   0.00000  Uiso   1.00
H427   H     0.70094   0.36013   0.08182   0.00000  Uiso   1.00
O428   O     0.75767   0.19606   0.45594   0.00000  Uiso   1.00
C429   C     0.77757   0.15443   0.47395   0.00000  Uiso   1.00
H430   H     0.75637   0.14590   0.00373   0.00000  Uiso   1.00
H431   H     0.82049   0.15582   0.48887   0.00000  Uiso   1.00
C432   C     0.76578   0.11682   0.43556   0.00000  Uiso   1.00
H433   H     0.72353   0.11705   0.41938   0.00000  Uiso   1.00
H434   H     0.78937   0.12308   0.40697   0.00000  Uiso   1.00
C435   C     0.77870   0.07025   0.45626   0.00000  Uiso   1.00
H436   H     0.82026   0.06964   0.47445   0.00000  Uiso   1.00
H437   H     0.77292   0.04410   0.42707   0.00000  Uiso   1.00
H438   H     0.75232   0.06186   0.48230   0.00000  Uiso   1.00
C439   C     0.17061   0.66344   0.25022   0.00000  Uiso   1.00
C440   C     0.16812   0.83681   0.25063   0.00000  Uiso   1.00
C441   C     0.12002   0.74711   0.04547   0.00000  Uiso   1.00
C442   C     0.19961   0.77885   0.45274   0.00000  Uiso   1.00
C443   C     0.12070   0.74328   0.09496   0.00000  Uiso   1.00
C444   C     0.20227   0.77628   0.40355   0.00000  Uiso   1.00
C445   C     0.21288   0.75563   0.10931   0.00000  Uiso   1.00
C446   C     0.13129   0.72316   0.39147   0.00000  Uiso   1.00
C447   C     0.21469   0.75608   0.05939   0.00000  Uiso   1.00
C448   C     0.13036   0.72169   0.44087   0.00000  Uiso   1.00
C449   C     0.16685   0.75124   0.02662   0.00000  Uiso   1.00
C450   C     0.16543   0.75026   0.47293   0.00000  Uiso   1.00
C451   C     0.06697   0.75016   0.23743   0.00000  Uiso   1.00
C452   C     0.26640   0.75020   0.26262   0.00000  Uiso   1.00
C453   C     0.01185   0.75093   0.23086   0.00000  Uiso   1.00
C454   C     0.32159   0.75009   0.26938   0.00000  Uiso   1.00
C455   C     0.19970   0.54650   0.29581   0.00000  Uiso   1.00
C456   C     0.18217   0.95652   0.21244   0.00000  Uiso   1.00
C457   C     0.18855   0.59216   0.29536   0.00000  Uiso   1.00
C458   C     0.16797   0.91083   0.21076   0.00000  Uiso   1.00
C459   C     0.18707   0.61599   0.25242   0.00000  Uiso   1.00
C460   C     0.17989   0.88549   0.25255   0.00000  Uiso   1.00
C461   C     0.20623   0.59496   0.21341   0.00000  Uiso   1.00
C462   C     0.20914   0.90592   0.29431   0.00000  Uiso   1.00
C463   C     0.22569   0.55099   0.21764   0.00000  Uiso   1.00
C464   C     0.23016   0.94966   0.29280   0.00000  Uiso   1.00
C465   C     0.21696   0.52542   0.25686   0.00000  Uiso   1.00
C466   C     0.21320   0.97605   0.25302   0.00000  Uiso   1.00
H467   H     0.32424   0.75228   0.19455   0.00000  Uiso   1.00
H468   H     0.00928   0.74898   0.30579   0.00000  Uiso   1.00
H469   H     0.19197   0.52717   0.32602   0.00000  Uiso   1.00
H470   H     0.16657   0.97730   0.18275   0.00000  Uiso   1.00
H471   H     0.08256   0.74629   0.02195   0.00000  Uiso   1.00
H472   H     0.22345   0.80403   0.47482   0.00000  Uiso   1.00
H473   H     0.24830   0.75859   0.13496   0.00000  Uiso   1.00
H474   H     0.10334   0.70268   0.36701   0.00000  Uiso   1.00
N475   N     0.16667   0.74999   0.12624   0.00000  Uiso   1.00
N476   N     0.16667   0.75001   0.37377   0.00000  Uiso   1.00
O477   O     0.16667   0.68454   0.28974   0.00000  Uiso   1.00
O478   O     0.16666   0.81547   0.21026   0.00000  Uiso   1.00
O479   O     0.16667   0.68453   0.21026   0.00000  Uiso   1.00
O480   O     0.16666   0.81547   0.28974   0.00000  Uiso   1.00
O481   O     0.09058   0.75000   0.28045   0.00000  Uiso   1.00
O482   O     0.24275   0.75000   0.21956   0.00000  Uiso   1.00
O483   O     0.09058   0.75000   0.20097   0.00000  Uiso   1.00
O484   O     0.24275   0.75001   0.29904   0.00000  Uiso   1.00
Zn485  Zn    0.16667   0.75001   0.30307   0.00000  Uiso   1.00
Zn486  Zn    0.16667   0.75000   0.19693   0.00000  Uiso   1.00
O487   O     0.17346   0.61159   0.33567   0.00000  Uiso   1.00
C488   C     0.21866   0.62820   0.36703   0.00000  Uiso   1.00
H489   H     0.20598   0.65700   0.38792   0.00000  Uiso   1.00
H490   H     0.24980   0.64238   0.34801   0.00000  Uiso   1.00
C491   C     0.24171   0.59173   0.40173   0.00000  Uiso   1.00
H492   H     0.20945   0.57067   0.41209   0.00000  Uiso   1.00
H493   H     0.26712   0.56922   0.38382   0.00000  Uiso   1.00
C494   C     0.27441   0.61287   0.44679   0.00000  Uiso   1.00
H495   H     0.30504   0.63635   0.43736   0.00000  Uiso   1.00
H496   H     0.29393   0.58576   0.46937   0.00000  Uiso   1.00
H497   H     0.24867   0.63199   0.46771   0.00000  Uiso   1.00
O498   O     0.13693   0.89241   0.17015   0.00000  Uiso   1.00
C499   C     0.16651   0.88837   0.13223   0.00000  Uiso   1.00
H500   H     0.16155   0.85285   0.11816   0.00000  Uiso   1.00
H501   H     0.20981   0.89458   0.14306   0.00000  Uiso   1.00
C502   C     0.14517   0.92012   0.09193   0.00000  Uiso   1.00
H503   H     0.10204   0.91461   0.08175   0.00000  Uiso   1.00
H504   H     0.15240   0.95597   0.10413   0.00000  Uiso   1.00
C505   C     0.17131   0.91208   0.04799   0.00000  Uiso   1.00
H506   H     0.21437   0.91907   0.05688   0.00000  Uiso   1.00
H507   H     0.15445   0.93529   0.01948   0.00000  Uiso   1.00
H508   H     0.16426   0.87654   0.03436   0.00000  Uiso   1.00
O509   O     0.20832   0.61759   0.17161   0.00000  Uiso   1.00
C510   C     0.16515   0.60278   0.13707   0.00000  Uiso   1.00
H511   H     0.12879   0.61971   0.14403   0.00000  Uiso   1.00
H512   H     0.15802   0.56535   0.13669   0.00000  Uiso   1.00
C513   C     0.17574   0.61493   0.08778   0.00000  Uiso   1.00
H514   H     0.21152   0.59768   0.08005   0.00000  Uiso   1.00
H515   H     0.14194   0.60314   0.06083   0.00000  Uiso   1.00
H516   H     0.18124   0.65219   0.08547   0.00000  Uiso   1.00
O517   O     0.21789   0.88360   0.33703   0.00000  Uiso   1.00
C518   C     0.17942   0.89645   0.36512   0.00000  Uiso   1.00
H519   H     0.15292   0.86682   0.36725   0.00000  Uiso   1.00
H520   H     0.15409   0.92516   0.35095   0.00000  Uiso   1.00
C521   C     0.20605   0.90983   0.41547   0.00000  Uiso   1.00
H522   H     0.17567   0.91857   0.43759   0.00000  Uiso   1.00
H523   H     0.22941   0.88144   0.43220   0.00000  Uiso   1.00
H524   H     0.23246   0.93979   0.41456   0.00000  Uiso   1.00
O525   O     0.24508   0.53117   0.17956   0.00000  Uiso   1.00
C526   C     0.29998   0.52645   0.19226   0.00000  Uiso   1.00
H527   H     0.30986   0.50540   0.22440   0.00000  Uiso   1.00
H528   H     0.31989   0.56030   0.19921   0.00000  Uiso   1.00
C529   C     0.32108   0.50287   0.15131   0.00000  Uiso   1.00
H530   H     0.31200   0.52283   0.11838   0.00000  Uiso   1.00
H531   H     0.03109   0.99945   0.16051   0.00000  Uiso   1.00
H532   H     0.30258   0.96858   0.14457   0.00000  Uiso   1.00
O533   O     0.26141   0.96853   0.33288   0.00000  Uiso   1.00
C534   C     0.31405   0.95638   0.33207   0.00000  Uiso   1.00
H535   H     0.32875   0.97169   0.30113   0.00000  Uiso   1.00
H536   H     0.31808   0.91887   0.33012   0.00000  Uiso   1.00
C537   C     0.01505   0.97412   0.37762   0.00000  Uiso   1.00
H538   H     0.00169   0.95899   0.40921   0.00000  Uiso   1.00
H539   H     0.05666   0.96488   0.37731   0.00000  Uiso   1.00
H540   H     0.01264   0.51163   0.38033   0.00000  Uiso   1.00
O541   O     0.07473   0.73351   0.11239   0.00000  Uiso   1.00
C542   C     0.05148   0.69239   0.09166   0.00000  Uiso   1.00
H543   H     0.08154   0.66709   0.08573   0.00000  Uiso   1.00
H544   H     0.02646   0.69913   0.05688   0.00000  Uiso   1.00
C545   C     0.01689   0.67165   0.12484   0.00000  Uiso   1.00
H546   H     0.04099   0.66617   0.16036   0.00000  Uiso   1.00
H547   H     0.31811   0.69516   0.12952   0.00000  Uiso   1.00
C548   C     0.32590   0.62643   0.10462   0.00000  Uiso   1.00
H549   H     0.30139   0.63112   0.06915   0.00000  Uiso   1.00
H550   H     0.30058   0.61256   0.12920   0.00000  Uiso   1.00
H551   H     0.02388   0.60173   0.10094   0.00000  Uiso   1.00
O552   O     0.23636   0.80413   0.38401   0.00000  Uiso   1.00
C553   C     0.28926   0.79455   0.40259   0.00000  Uiso   1.00
H554   H     0.29964   0.76083   0.38883   0.00000  Uiso   1.00
H555   H     0.29695   0.79472   0.44231   0.00000  Uiso   1.00
C556   C     0.32460   0.83120   0.38641   0.00000  Uiso   1.00
H557   H     0.31769   0.83221   0.34676   0.00000  Uiso   1.00
H558   H     0.31452   0.86473   0.40070   0.00000  Uiso   1.00
C559   C     0.04929   0.82266   0.40396   0.00000  Uiso   1.00
H560   H     0.05689   0.81880   0.44331   0.00000  Uiso   1.00
H561   H     0.07316   0.85184   0.39486   0.00000  Uiso   1.00
H562   H     0.06127   0.79162   0.38621   0.00000  Uiso   1.00
O563   O     0.26189   0.75706   0.04116   0.00000  Uiso   1.00
C564   C     0.30169   0.78582   0.06714   0.00000  Uiso   1.00
H565   H     0.00305   0.78369   0.04857   0.00000  Uiso   1.00
H566   H     0.31554   0.77354   0.10350   0.00000  Uiso   1.00
C567   C     0.28632   0.83593   0.06805   0.00000  Uiso   1.00
H568   H     0.27824   0.84846   0.03104   0.00000  Uiso   1.00
H569   H     0.25047   0.84009   0.08462   0.00000  Uiso   1.00
C570   C     0.33065   0.86480   0.09662   0.00000  Uiso   1.00
H571   H     0.00382   0.85500   0.13466   0.00000  Uiso   1.00
H572   H     0.32015   0.90112   0.09458   0.00000  Uiso   1.00
H573   H     0.03427   0.86013   0.08182   0.00000  Uiso   1.00
O574   O     0.09100   0.69606   0.45594   0.00000  Uiso   1.00
C575   C     0.11090   0.65443   0.47395   0.00000  Uiso   1.00
H576   H     0.08970   0.64590   0.00373   0.00000  Uiso   1.00
H577   H     0.15382   0.65582   0.48887   0.00000  Uiso   1.00
C578   C     0.09912   0.61682   0.43556   0.00000  Uiso   1.00
H579   H     0.05686   0.61705   0.41938   0.00000  Uiso   1.00
H580   H     0.12271   0.62308   0.40697   0.00000  Uiso   1.00
C581   C     0.11203   0.57025   0.45626   0.00000  Uiso   1.00
H582   H     0.15359   0.56964   0.47445   0.00000  Uiso   1.00
H583   H     0.10625   0.54410   0.42707   0.00000  Uiso   1.00
H584   H     0.08565   0.56186   0.48230   0.00000  Uiso   1.00
C585   C     0.50395   0.66344   0.25022   0.00000  Uiso   1.00
C586   C     0.50145   0.83681   0.25063   0.00000  Uiso   1.00
C587   C     0.45336   0.74711   0.04547   0.00000  Uiso   1.00
C588   C     0.53294   0.77885   0.45274   0.00000  Uiso   1.00
C589   C     0.45403   0.74328   0.09496   0.00000  Uiso   1.00
C590   C     0.53561   0.77628   0.40355   0.00000  Uiso   1.00
C591   C     0.54621   0.75563   0.10931   0.00000  Uiso   1.00
C592   C     0.46462   0.72316   0.39147   0.00000  Uiso   1.00
C593   C     0.54803   0.75608   0.05939   0.00000  Uiso   1.00
C594   C     0.46369   0.72169   0.44087   0.00000  Uiso   1.00
C595   C     0.50019   0.75124   0.02662   0.00000  Uiso   1.00
C596   C     0.49877   0.75026   0.47293   0.00000  Uiso   1.00
C597   C     0.40030   0.75016   0.23743   0.00000  Uiso   1.00
C598   C     0.59974   0.75020   0.26262   0.00000  Uiso   1.00
C599   C     0.34518   0.75093   0.23086   0.00000  Uiso   1.00
C600   C     0.65493   0.75009   0.26938   0.00000  Uiso   1.00
C601   C     0.53304   0.54650   0.29581   0.00000  Uiso   1.00
C602   C     0.51551   0.95652   0.21244   0.00000  Uiso   1.00
C603   C     0.52188   0.59216   0.29536   0.00000  Uiso   1.00
C604   C     0.50131   0.91083   0.21076   0.00000  Uiso   1.00
C605   C     0.52041   0.61599   0.25242   0.00000  Uiso   1.00
C606   C     0.51322   0.88549   0.25255   0.00000  Uiso   1.00
C607   C     0.53956   0.59496   0.21341   0.00000  Uiso   1.00
C608   C     0.54248   0.90592   0.29431   0.00000  Uiso   1.00
C609   C     0.55902   0.55099   0.21764   0.00000  Uiso   1.00
C610   C     0.56349   0.94966   0.29280   0.00000  Uiso   1.00
C611   C     0.55030   0.52542   0.25686   0.00000  Uiso   1.00
C612   C     0.54653   0.97605   0.25302   0.00000  Uiso   1.00
H613   H     0.65757   0.75228   0.19455   0.00000  Uiso   1.00
H614   H     0.34261   0.74898   0.30579   0.00000  Uiso   1.00
H615   H     0.52530   0.52717   0.32602   0.00000  Uiso   1.00
H616   H     0.49990   0.97730   0.18275   0.00000  Uiso   1.00
H617   H     0.41589   0.74629   0.02195   0.00000  Uiso   1.00
H618   H     0.55679   0.80403   0.47482   0.00000  Uiso   1.00
H619   H     0.58163   0.75859   0.13496   0.00000  Uiso   1.00
H620   H     0.43667   0.70268   0.36701   0.00000  Uiso   1.00
N621   N     0.50000   0.74999   0.12624   0.00000  Uiso   1.00
N622   N     0.50000   0.75001   0.37377   0.00000  Uiso   1.00
O623   O     0.50000   0.68454   0.28974   0.00000  Uiso   1.00
O624   O     0.50000   0.81547   0.21026   0.00000  Uiso   1.00
O625   O     0.50000   0.68453   0.21026   0.00000  Uiso   1.00
O626   O     0.50000   0.81547   0.28974   0.00000  Uiso   1.00
O627   O     0.42392   0.75000   0.28045   0.00000  Uiso   1.00
O628   O     0.57608   0.75000   0.21956   0.00000  Uiso   1.00
O629   O     0.42392   0.75000   0.20097   0.00000  Uiso   1.00
O630   O     0.57608   0.75001   0.29904   0.00000  Uiso   1.00
Zn631  Zn    0.50000   0.75001   0.30307   0.00000  Uiso   1.00
Zn632  Zn    0.50000   0.75000   0.19693   0.00000  Uiso   1.00
O633   O     0.50679   0.61159   0.33567   0.00000  Uiso   1.00
C634   C     0.55200   0.62820   0.36703   0.00000  Uiso   1.00
H635   H     0.53932   0.65700   0.38792   0.00000  Uiso   1.00
H636   H     0.58313   0.64238   0.34801   0.00000  Uiso   1.00
C637   C     0.57504   0.59173   0.40173   0.00000  Uiso   1.00
H638   H     0.54279   0.57067   0.41209   0.00000  Uiso   1.00
H639   H     0.60045   0.56922   0.38382   0.00000  Uiso   1.00
C640   C     0.60774   0.61287   0.44679   0.00000  Uiso   1.00
H641   H     0.63837   0.63635   0.43736   0.00000  Uiso   1.00
H642   H     0.62726   0.58576   0.46937   0.00000  Uiso   1.00
H643   H     0.58200   0.63199   0.46771   0.00000  Uiso   1.00
O644   O     0.47026   0.89241   0.17015   0.00000  Uiso   1.00
C645   C     0.49984   0.88837   0.13223   0.00000  Uiso   1.00
H646   H     0.49489   0.85285   0.11816   0.00000  Uiso   1.00
H647   H     0.54315   0.89458   0.14306   0.00000  Uiso   1.00
C648   C     0.47850   0.92012   0.09193   0.00000  Uiso   1.00
H649   H     0.43538   0.91461   0.08175   0.00000  Uiso   1.00
H650   H     0.48574   0.95597   0.10413   0.00000  Uiso   1.00
C651   C     0.50465   0.91208   0.04799   0.00000  Uiso   1.00
H652   H     0.54770   0.91907   0.05688   0.00000  Uiso   1.00
H653   H     0.48779   0.93529   0.01948   0.00000  Uiso   1.00
H654   H     0.49760   0.87654   0.03436   0.00000  Uiso   1.00
O655   O     0.54165   0.61759   0.17161   0.00000  Uiso   1.00
C656   C     0.49848   0.60278   0.13707   0.00000  Uiso   1.00
H657   H     0.46213   0.61971   0.14403   0.00000  Uiso   1.00
H658   H     0.49135   0.56535   0.13669   0.00000  Uiso   1.00
C659   C     0.50908   0.61493   0.08778   0.00000  Uiso   1.00
H660   H     0.54485   0.59768   0.08005   0.00000  Uiso   1.00
H661   H     0.47527   0.60314   0.06083   0.00000  Uiso   1.00
H662   H     0.51457   0.65219   0.08547   0.00000  Uiso   1.00
O663   O     0.55122   0.88360   0.33703   0.00000  Uiso   1.00
C664   C     0.51275   0.89645   0.36512   0.00000  Uiso   1.00
H665   H     0.48625   0.86682   0.36725   0.00000  Uiso   1.00
H666   H     0.48742   0.92516   0.35095   0.00000  Uiso   1.00
C667   C     0.53939   0.90983   0.41547   0.00000  Uiso   1.00
H668   H     0.50900   0.91857   0.43759   0.00000  Uiso   1.00
H669   H     0.56274   0.88144   0.43220   0.00000  Uiso   1.00
H670   H     0.56580   0.93979   0.41456   0.00000  Uiso   1.00
O671   O     0.57842   0.53117   0.17956   0.00000  Uiso   1.00
C672   C     0.63331   0.52645   0.19226   0.00000  Uiso   1.00
H673   H     0.64319   0.50540   0.22440   0.00000  Uiso   1.00
H674   H     0.65323   0.56030   0.19921   0.00000  Uiso   1.00
C675   C     0.65441   0.50287   0.15131   0.00000  Uiso   1.00
H676   H     0.64533   0.52283   0.11838   0.00000  Uiso   1.00
H677   H     0.36442   0.99945   0.16051   0.00000  Uiso   1.00
H678   H     0.63591   0.96858   0.14457   0.00000  Uiso   1.00
O679   O     0.59474   0.96853   0.33288   0.00000  Uiso   1.00
C680   C     0.64738   0.95638   0.33207   0.00000  Uiso   1.00
H681   H     0.66209   0.97169   0.30113   0.00000  Uiso   1.00
H682   H     0.65141   0.91887   0.33012   0.00000  Uiso   1.00
C683   C     0.34839   0.97412   0.37762   0.00000  Uiso   1.00
H684   H     0.33503   0.95899   0.40921   0.00000  Uiso   1.00
H685   H     0.38999   0.96488   0.37731   0.00000  Uiso   1.00
H686   H     0.34598   0.51163   0.38033   0.00000  Uiso   1.00
O687   O     0.40806   0.73351   0.11239   0.00000  Uiso   1.00
C688   C     0.38481   0.69239   0.09166   0.00000  Uiso   1.00
H689   H     0.41487   0.66709   0.08573   0.00000  Uiso   1.00
H690   H     0.35979   0.69913   0.05688   0.00000  Uiso   1.00
C691   C     0.35022   0.67165   0.12484   0.00000  Uiso   1.00
H692   H     0.37432   0.66617   0.16036   0.00000  Uiso   1.00
H693   H     0.65145   0.69516   0.12952   0.00000  Uiso   1.00
C694   C     0.65923   0.62643   0.10462   0.00000  Uiso   1.00
H695   H     0.63472   0.63112   0.06915   0.00000  Uiso   1.00
H696   H     0.63391   0.61256   0.12920   0.00000  Uiso   1.00
H697   H     0.35721   0.60173   0.10094   0.00000  Uiso   1.00
O698   O     0.56970   0.80413   0.38401   0.00000  Uiso   1.00
C699   C     0.62259   0.79455   0.40259   0.00000  Uiso   1.00
H700   H     0.63297   0.76083   0.38883   0.00000  Uiso   1.00
H701   H     0.63028   0.79472   0.44231   0.00000  Uiso   1.00
C702   C     0.65793   0.83120   0.38641   0.00000  Uiso   1.00
H703   H     0.65102   0.83221   0.34676   0.00000  Uiso   1.00
H704   H     0.64785   0.86473   0.40070   0.00000  Uiso   1.00
C705   C     0.38262   0.82266   0.40396   0.00000  Uiso   1.00
H706   H     0.39023   0.81880   0.44331   0.00000  Uiso   1.00
H707   H     0.40649   0.85184   0.39486   0.00000  Uiso   1.00
H708   H     0.39460   0.79162   0.38621   0.00000  Uiso   1.00
O709   O     0.59522   0.75706   0.04116   0.00000  Uiso   1.00
C710   C     0.63502   0.78582   0.06714   0.00000  Uiso   1.00
H711   H     0.33639   0.78369   0.04857   0.00000  Uiso   1.00
H712   H     0.64888   0.77354   0.10350   0.00000  Uiso   1.00
C713   C     0.61965   0.83593   0.06805   0.00000  Uiso   1.00
H714   H     0.61157   0.84846   0.03104   0.00000  Uiso   1.00
H715   H     0.58381   0.84009   0.08462   0.00000  Uiso   1.00
C716   C     0.66399   0.86480   0.09662   0.00000  Uiso   1.00
H717   H     0.33715   0.85500   0.13466   0.00000  Uiso   1.00
H718   H     0.65348   0.90112   0.09458   0.00000  Uiso   1.00
H719   H     0.36760   0.86013   0.08182   0.00000  Uiso   1.00
O720   O     0.42433   0.69606   0.45594   0.00000  Uiso   1.00
C721   C     0.44423   0.65443   0.47395   0.00000  Uiso   1.00
H722   H     0.42304   0.64590   0.00373   0.00000  Uiso   1.00
H723   H     0.48715   0.65582   0.48887   0.00000  Uiso   1.00
C724   C     0.43245   0.61682   0.43556   0.00000  Uiso   1.00
H725   H     0.39020   0.61705   0.41938   0.00000  Uiso   1.00
H726   H     0.45604   0.62308   0.40697   0.00000  Uiso   1.00
C727   C     0.44537   0.57025   0.45626   0.00000  Uiso   1.00
H728   H     0.48693   0.56964   0.47445   0.00000  Uiso   1.00
H729   H     0.43959   0.54410   0.42707   0.00000  Uiso   1.00
H730   H     0.41898   0.56186   0.48230   0.00000  Uiso   1.00
C731   C     0.83728   0.66344   0.25022   0.00000  Uiso   1.00
C732   C     0.83478   0.83681   0.25063   0.00000  Uiso   1.00
C733   C     0.78669   0.74711   0.04547   0.00000  Uiso   1.00
C734   C     0.86628   0.77885   0.45274   0.00000  Uiso   1.00
C735   C     0.78737   0.74328   0.09496   0.00000  Uiso   1.00
C736   C     0.86894   0.77628   0.40355   0.00000  Uiso   1.00
C737   C     0.87955   0.75563   0.10931   0.00000  Uiso   1.00
C738   C     0.79795   0.72316   0.39147   0.00000  Uiso   1.00
C739   C     0.88136   0.75608   0.05939   0.00000  Uiso   1.00
C740   C     0.79702   0.72169   0.44087   0.00000  Uiso   1.00
C741   C     0.83352   0.75124   0.02662   0.00000  Uiso   1.00
C742   C     0.83210   0.75026   0.47293   0.00000  Uiso   1.00
C743   C     0.73363   0.75016   0.23743   0.00000  Uiso   1.00
C744   C     0.93307   0.75020   0.26262   0.00000  Uiso   1.00
C745   C     0.67852   0.75093   0.23086   0.00000  Uiso   1.00
C746   C     0.98826   0.75009   0.26938   0.00000  Uiso   1.00
C747   C     0.86637   0.54650   0.29581   0.00000  Uiso   1.00
C748   C     0.84884   0.95652   0.21244   0.00000  Uiso   1.00
C749   C     0.85522   0.59216   0.29536   0.00000  Uiso   1.00
C750   C     0.83464   0.91083   0.21076   0.00000  Uiso   1.00
C751   C     0.85374   0.61599   0.25242   0.00000  Uiso   1.00
C752   C     0.84655   0.88549   0.25255   0.00000  Uiso   1.00
C753   C     0.87290   0.59496   0.21341   0.00000  Uiso   1.00
C754   C     0.87581   0.90592   0.29431   0.00000  Uiso   1.00
C755   C     0.89235   0.55099   0.21764   0.00000  Uiso   1.00
C756   C     0.89682   0.94966   0.29280   0.00000  Uiso   1.00
C757   C     0.88363   0.52542   0.25686   0.00000  Uiso   1.00
C758   C     0.87986   0.97605   0.25302   0.00000  Uiso   1.00
H759   H     0.99091   0.75228   0.19455   0.00000  Uiso   1.00
H760   H     0.67594   0.74898   0.30579   0.00000  Uiso   1.00
H761   H     0.85863   0.52717   0.32602   0.00000  Uiso   1.00
H762   H     0.83324   0.97730   0.18275   0.00000  Uiso   1.00
H763   H     0.74923   0.74629   0.02195   0.00000  Uiso   1.00
H764   H     0.89012   0.80403   0.47482   0.00000  Uiso   1.00
H765   H     0.91496   0.75859   0.13496   0.00000  Uiso   1.00
H766   H     0.77000   0.70268   0.36701   0.00000  Uiso   1.00
N767   N     0.83333   0.74999   0.12624   0.00000  Uiso   1.00
N768   N     0.83333   0.75001   0.37377   0.00000  Uiso   1.00
O769   O     0.83334   0.68454   0.28974   0.00000  Uiso   1.00
O770   O     0.83333   0.81547   0.21026   0.00000  Uiso   1.00
O771   O     0.83334   0.68453   0.21026   0.00000  Uiso   1.00
O772   O     0.83333   0.81547   0.28974   0.00000  Uiso   1.00
O773   O     0.75725   0.75000   0.28045   0.00000  Uiso   1.00
O774   O     0.90942   0.75000   0.21956   0.00000  Uiso   1.00
O775   O     0.75725   0.75000   0.20097   0.00000  Uiso   1.00
O776   O     0.90942   0.75001   0.29904   0.00000  Uiso   1.00
Zn777  Zn    0.83333   0.75001   0.30307   0.00000  Uiso   1.00
Zn778  Zn    0.83333   0.75000   0.19693   0.00000  Uiso   1.00
O779   O     0.84013   0.61159   0.33567   0.00000  Uiso   1.00
C780   C     0.88533   0.62820   0.36703   0.00000  Uiso   1.00
H781   H     0.87265   0.65700   0.38792   0.00000  Uiso   1.00
H782   H     0.91647   0.64238   0.34801   0.00000  Uiso   1.00
C783   C     0.90838   0.59173   0.40173   0.00000  Uiso   1.00
H784   H     0.87612   0.57067   0.41209   0.00000  Uiso   1.00
H785   H     0.93379   0.56922   0.38382   0.00000  Uiso   1.00
C786   C     0.94107   0.61287   0.44679   0.00000  Uiso   1.00
H787   H     0.97170   0.63635   0.43736   0.00000  Uiso   1.00
H788   H     0.96059   0.58576   0.46937   0.00000  Uiso   1.00
H789   H     0.91533   0.63199   0.46771   0.00000  Uiso   1.00
O790   O     0.80359   0.89241   0.17015   0.00000  Uiso   1.00
C791   C     0.83317   0.88837   0.13223   0.00000  Uiso   1.00
H792   H     0.82822   0.85285   0.11816   0.00000  Uiso   1.00
H793   H     0.87648   0.89458   0.14306   0.00000  Uiso   1.00
C794   C     0.81184   0.92012   0.09193   0.00000  Uiso   1.00
H795   H     0.76871   0.91461   0.08175   0.00000  Uiso   1.00
H796   H     0.81907   0.95597   0.10413   0.00000  Uiso   1.00
C797   C     0.83798   0.91208   0.04799   0.00000  Uiso   1.00
H798   H     0.88103   0.91907   0.05688   0.00000  Uiso   1.00
H799   H     0.82112   0.93529   0.01948   0.00000  Uiso   1.00
H800   H     0.83093   0.87654   0.03436   0.00000  Uiso   1.00
O801   O     0.87498   0.61759   0.17161   0.00000  Uiso   1.00
C802   C     0.83181   0.60278   0.13707   0.00000  Uiso   1.00
H803   H     0.79546   0.61971   0.14403   0.00000  Uiso   1.00
H804   H     0.82469   0.56535   0.13669   0.00000  Uiso   1.00
C805   C     0.84241   0.61493   0.08778   0.00000  Uiso   1.00
H806   H     0.87818   0.59768   0.08005   0.00000  Uiso   1.00
H807   H     0.80861   0.60314   0.06083   0.00000  Uiso   1.00
H808   H     0.84790   0.65219   0.08547   0.00000  Uiso   1.00
O809   O     0.88456   0.88360   0.33703   0.00000  Uiso   1.00
C810   C     0.84608   0.89645   0.36512   0.00000  Uiso   1.00
H811   H     0.81958   0.86682   0.36725   0.00000  Uiso   1.00
H812   H     0.82075   0.92516   0.35095   0.00000  Uiso   1.00
C813   C     0.87272   0.90983   0.41547   0.00000  Uiso   1.00
H814   H     0.84233   0.91857   0.43759   0.00000  Uiso   1.00
H815   H     0.89608   0.88144   0.43220   0.00000  Uiso   1.00
H816   H     0.89913   0.93979   0.41456   0.00000  Uiso   1.00
O817   O     0.91175   0.53117   0.17956   0.00000  Uiso   1.00
C818   C     0.96664   0.52645   0.19226   0.00000  Uiso   1.00
H819   H     0.97652   0.50540   0.22440   0.00000  Uiso   1.00
H820   H     0.98656   0.56030   0.19921   0.00000  Uiso   1.00
C821   C     0.98775   0.50287   0.15131   0.00000  Uiso   1.00
H822   H     0.97867   0.52283   0.11838   0.00000  Uiso   1.00
H823   H     0.69776   0.99945   0.16051   0.00000  Uiso   1.00
H824   H     0.96924   0.96858   0.14457   0.00000  Uiso   1.00
O825   O     0.92807   0.96853   0.33288   0.00000  Uiso   1.00
C826   C     0.98072   0.95638   0.33207   0.00000  Uiso   1.00
H827   H     0.99542   0.97169   0.30113   0.00000  Uiso   1.00
H828   H     0.98475   0.91887   0.33012   0.00000  Uiso   1.00
C829   C     0.68172   0.97412   0.37762   0.00000  Uiso   1.00
H830   H     0.66836   0.95899   0.40921   0.00000  Uiso   1.00
H831   H     0.72333   0.96488   0.37731   0.00000  Uiso   1.00
H832   H     0.67931   0.51163   0.38033   0.00000  Uiso   1.00
O833   O     0.74140   0.73351   0.11239   0.00000  Uiso   1.00
C834   C     0.71815   0.69239   0.09166   0.00000  Uiso   1.00
H835   H     0.74821   0.66709   0.08573   0.00000  Uiso   1.00
H836   H     0.69312   0.69913   0.05688   0.00000  Uiso   1.00
C837   C     0.68355   0.67165   0.12484   0.00000  Uiso   1.00
H838   H     0.70766   0.66617   0.16036   0.00000  Uiso   1.00
H839   H     0.98478   0.69516   0.12952   0.00000  Uiso   1.00
C840   C     0.99256   0.62643   0.10462   0.00000  Uiso   1.00
H841   H     0.96805   0.63112   0.06915   0.00000  Uiso   1.00
H842   H     0.96725   0.61256   0.12920   0.00000  Uiso   1.00
H843   H     0.69054   0.60173   0.10094   0.00000  Uiso   1.00
O844   O     0.90303   0.80413   0.38401   0.00000  Uiso   1.00
C845   C     0.95592   0.79455   0.40259   0.00000  Uiso   1.00
H846   H     0.96630   0.76083   0.38883   0.00000  Uiso   1.00
H847   H     0.96362   0.79472   0.44231   0.00000  Uiso   1.00
C848   C     0.99126   0.83120   0.38641   0.00000  Uiso   1.00
H849   H     0.98436   0.83221   0.34676   0.00000  Uiso   1.00
H850   H     0.98118   0.86473   0.40070   0.00000  Uiso   1.00
C851   C     0.71596   0.82266   0.40396   0.00000  Uiso   1.00
H852   H     0.72356   0.81880   0.44331   0.00000  Uiso   1.00
H853   H     0.73983   0.85184   0.39486   0.00000  Uiso   1.00
H854   H     0.72793   0.79162   0.38621   0.00000  Uiso   1.00
O855   O     0.92856   0.75706   0.04116   0.00000  Uiso   1.00
C856   C     0.96835   0.78582   0.06714   0.00000  Uiso   1.00
H857   H     0.66972   0.78369   0.04857   0.00000  Uiso   1.00
H858   H     0.98221   0.77354   0.10350   0.00000  Uiso   1.00
C859   C     0.95298   0.83593   0.06805   0.00000  Uiso   1.00
H860   H     0.94491   0.84846   0.03104   0.00000  Uiso   1.00
H861   H     0.91714   0.84009   0.08462   0.00000  Uiso   1.00
C862   C     0.99732   0.86480   0.09662   0.00000  Uiso   1.00
H863   H     0.67048   0.85500   0.13466   0.00000  Uiso   1.00
H864   H     0.98681   0.90112   0.09458   0.00000  Uiso   1.00
H865   H     0.70094   0.86013   0.08182   0.00000  Uiso   1.00
O866   O     0.75767   0.69606   0.45594   0.00000  Uiso   1.00
C867   C     0.77757   0.65443   0.47395   0.00000  Uiso   1.00
H868   H     0.75637   0.64590   0.00373   0.00000  Uiso   1.00
H869   H     0.82049   0.65582   0.48887   0.00000  Uiso   1.00
C870   C     0.76578   0.61682   0.43556   0.00000  Uiso   1.00
H871   H     0.72353   0.61705   0.41938   0.00000  Uiso   1.00
H872   H     0.78937   0.62308   0.40697   0.00000  Uiso   1.00
C873   C     0.77870   0.57025   0.45626   0.00000  Uiso   1.00
H874   H     0.82026   0.56964   0.47445   0.00000  Uiso   1.00
H875   H     0.77292   0.54410   0.42707   0.00000  Uiso   1.00
H876   H     0.75232   0.56186   0.48230   0.00000  Uiso   1.00
C877   C     0.17061   0.16344   0.75022   0.00000  Uiso   1.00
C878   C     0.16812   0.33681   0.75063   0.00000  Uiso   1.00
C879   C     0.12002   0.24711   0.54547   0.00000  Uiso   1.00
C880   C     0.19961   0.27885   0.95274   0.00000  Uiso   1.00
C881   C     0.12070   0.24328   0.59496   0.00000  Uiso   1.00
C882   C     0.20227   0.27628   0.90355   0.00000  Uiso   1.00
C883   C     0.21288   0.25563   0.60931   0.00000  Uiso   1.00
C884   C     0.13129   0.22316   0.89147   0.00000  Uiso   1.00
C885   C     0.21469   0.25608   0.55939   0.00000  Uiso   1.00
C886   C     0.13036   0.22169   0.94087   0.00000  Uiso   1.00
C887   C     0.16685   0.25124   0.52662   0.00000  Uiso   1.00
C888   C     0.16543   0.25026   0.97293   0.00000  Uiso   1.00
C889   C     0.06697   0.25016   0.73743   0.00000  Uiso   1.00
C890   C     0.26640   0.25020   0.76262   0.00000  Uiso   1.00
C891   C     0.01185   0.25093   0.73086   0.00000  Uiso   1.00
C892   C     0.32159   0.25009   0.76938   0.00000  Uiso   1.00
C893   C     0.19970   0.04650   0.79581   0.00000  Uiso   1.00
C894   C     0.18217   0.45652   0.71244   0.00000  Uiso   1.00
C895   C     0.18855   0.09216   0.79536   0.00000  Uiso   1.00
C896   C     0.16797   0.41083   0.71076   0.00000  Uiso   1.00
C897   C     0.18707   0.11599   0.75242   0.00000  Uiso   1.00
C898   C     0.17989   0.38549   0.75255   0.00000  Uiso   1.00
C899   C     0.20623   0.09496   0.71341   0.00000  Uiso   1.00
C900   C     0.20914   0.40592   0.79431   0.00000  Uiso   1.00
C901   C     0.22569   0.05099   0.71764   0.00000  Uiso   1.00
C902   C     0.23016   0.44966   0.79280   0.00000  Uiso   1.00
C903   C     0.21696   0.02542   0.75686   0.00000  Uiso   1.00
C904   C     0.21320   0.47605   0.75302   0.00000  Uiso   1.00
H905   H     0.32424   0.25228   0.69455   0.00000  Uiso   1.00
H906   H     0.00928   0.24898   0.80579   0.00000  Uiso   1.00
H907   H     0.19197   0.02717   0.82602   0.00000  Uiso   1.00
H908   H     0.16657   0.47730   0.68275   0.00000  Uiso   1.00
H909   H     0.08256   0.24629   0.52195   0.00000  Uiso   1.00
H910   H     0.22345   0.30403   0.97482   0.00000  Uiso   1.00
H911   H     0.24830   0.25859   0.63496   0.00000  Uiso   1.00
H912   H     0.10334   0.20268   0.86701   0.00000  Uiso   1.00
N913   N     0.16667   0.24999   0.62624   0.00000  Uiso   1.00
N914   N     0.16667   0.25001   0.87377   0.00000  Uiso   1.00
O915   O     0.16667   0.18454   0.78974   0.00000  Uiso   1.00
O916   O     0.16666   0.31547   0.71026   0.00000  Uiso   1.00
O917   O     0.16667   0.18453   0.71026   0.00000  Uiso   1.00
O918   O     0.16666   0.31547   0.78974   0.00000  Uiso   1.00
O919   O     0.09058   0.25000   0.78045   0.00000  Uiso   1.00
O920   O     0.24275   0.25000   0.71956   0.00000  Uiso   1.00
O921   O     0.09058   0.25000   0.70097   0.00000  Uiso   1.00
O922   O     0.24275   0.25001   0.79904   0.00000  Uiso   1.00
Zn923  Zn    0.16667   0.25001   0.80307   0.00000  Uiso   1.00
Zn924  Zn    0.16667   0.25000   0.69693   0.00000  Uiso   1.00
O925   O     0.17346   0.11159   0.83567   0.00000  Uiso   1.00
C926   C     0.21866   0.12820   0.86703   0.00000  Uiso   1.00
H927   H     0.20598   0.15700   0.88792   0.00000  Uiso   1.00
H928   H     0.24980   0.14238   0.84801   0.00000  Uiso   1.00
C929   C     0.24171   0.09173   0.90173   0.00000  Uiso   1.00
H930   H     0.20945   0.07067   0.91209   0.00000  Uiso   1.00
H931   H     0.26712   0.06922   0.88382   0.00000  Uiso   1.00
C932   C     0.27441   0.11287   0.94679   0.00000  Uiso   1.00
H933   H     0.30504   0.13635   0.93736   0.00000  Uiso   1.00
H934   H     0.29393   0.08576   0.96937   0.00000  Uiso   1.00
H935   H     0.24867   0.13199   0.96771   0.00000  Uiso   1.00
O936   O     0.13693   0.39241   0.67015   0.00000  Uiso   1.00
C937   C     0.16651   0.38837   0.63223   0.00000  Uiso   1.00
H938   H     0.16155   0.35285   0.61816   0.00000  Uiso   1.00
H939   H     0.20981   0.39458   0.64306   0.00000  Uiso   1.00
C940   C     0.14517   0.42012   0.59193   0.00000  Uiso   1.00
H941   H     0.10204   0.41461   0.58175   0.00000  Uiso   1.00
H942   H     0.15240   0.45597   0.60413   0.00000  Uiso   1.00
C943   C     0.17131   0.41208   0.54799   0.00000  Uiso   1.00
H944   H     0.21437   0.41907   0.55688   0.00000  Uiso   1.00
H945   H     0.15445   0.43529   0.51948   0.00000  Uiso   1.00
H946   H     0.16426   0.37654   0.53436   0.00000  Uiso   1.00
O947   O     0.20832   0.11759   0.67161   0.00000  Uiso   1.00
C948   C     0.16515   0.10278   0.63707   0.00000  Uiso   1.00
H949   H     0.12879   0.11971   0.64403   0.00000  Uiso   1.00
H950   H     0.15802   0.06535   0.63669   0.00000  Uiso   1.00
C951   C     0.17574   0.11493   0.58778   0.00000  Uiso   1.00
H952   H     0.21152   0.09768   0.58005   0.00000  Uiso   1.00
H953   H     0.14194   0.10314   0.56083   0.00000  Uiso   1.00
H954   H     0.18124   0.15219   0.58547   0.00000  Uiso   1.00
O955   O     0.21789   0.38360   0.83703   0.00000  Uiso   1.00
C956   C     0.17942   0.39645   0.86512   0.00000  Uiso   1.00
H957   H     0.15292   0.36682   0.86725   0.00000  Uiso   1.00
H958   H     0.15409   0.42516   0.85095   0.00000  Uiso   1.00
C959   C     0.20605   0.40983   0.91547   0.00000  Uiso   1.00
H960   H     0.17567   0.41857   0.93759   0.00000  Uiso   1.00
H961   H     0.22941   0.38144   0.93220   0.00000  Uiso   1.00
H962   H     0.23246   0.43979   0.91456   0.00000  Uiso   1.00
O963   O     0.24508   0.03117   0.67956   0.00000  Uiso   1.00
C964   C     0.29998   0.02645   0.69226   0.00000  Uiso   1.00
H965   H     0.30986   0.00540   0.72440   0.00000  Uiso   1.00
H966   H     0.31989   0.06030   0.69921   0.00000  Uiso   1.00
C967   C     0.32108   0.00287   0.65131   0.00000  Uiso   1.00
H968   H     0.31200   0.02283   0.61838   0.00000  Uiso   1.00
H969   H     0.03109   0.49945   0.66051   0.00000  Uiso   1.00
H970   H     0.30258   0.46858   0.64457   0.00000  Uiso   1.00
O971   O     0.26141   0.46853   0.83288   0.00000  Uiso   1.00
C972   C     0.31405   0.45638   0.83207   0.00000  Uiso   1.00
H973   H     0.32875   0.47169   0.80113   0.00000  Uiso   1.00
H974   H     0.31808   0.41887   0.83012   0.00000  Uiso   1.00
C975   C     0.01505   0.47412   0.87762   0.00000  Uiso   1.00
H976   H     0.00169   0.45899   0.90921   0.00000  Uiso   1.00
H977   H     0.05666   0.46488   0.87731   0.00000  Uiso   1.00
H978   H     0.01264   0.01163   0.88033   0.00000  Uiso   1.00
O979   O     0.07473   0.23351   0.61239   0.00000  Uiso   1.00
C980   C     0.05148   0.19239   0.59166   0.00000  Uiso   1.00
H981   H     0.08154   0.16709   0.58573   0.00000  Uiso   1.00
H982   H     0.02646   0.19913   0.55688   0.00000  Uiso   1.00
C983   C     0.01689   0.17165   0.62484   0.00000  Uiso   1.00
H984   H     0.04099   0.16617   0.66036   0.00000  Uiso   1.00
H985   H     0.31811   0.19516   0.62952   0.00000  Uiso   1.00
C986   C     0.32590   0.12643   0.60462   0.00000  Uiso   1.00
H987   H     0.30139   0.13112   0.56915   0.00000  Uiso   1.00
H988   H     0.30058   0.11256   0.62920   0.00000  Uiso   1.00
H989   H     0.02388   0.10173   0.60094   0.00000  Uiso   1.00
O990   O     0.23636   0.30413   0.88401   0.00000  Uiso   1.00
C991   C     0.28926   0.29455   0.90259   0.00000  Uiso   1.00
H992   H     0.29964   0.26083   0.88883   0.00000  Uiso   1.00
H993   H     0.29695   0.29472   0.94231   0.00000  Uiso   1.00
C994   C     0.32460   0.33120   0.88641   0.00000  Uiso   1.00
H995   H     0.31769   0.33221   0.84676   0.00000  Uiso   1.00
H996   H     0.31452   0.36473   0.90070   0.00000  Uiso   1.00
C997   C     0.04929   0.32266   0.90396   0.00000  Uiso   1.00
H998   H     0.05689   0.31880   0.94331   0.00000  Uiso   1.00
H999   H     0.07316   0.35184   0.89486   0.00000  Uiso   1.00
H1000  H     0.06127   0.29162   0.88621   0.00000  Uiso   1.00
O1001  O     0.26189   0.25706   0.54116   0.00000  Uiso   1.00
C1002  C     0.30169   0.28582   0.56714   0.00000  Uiso   1.00
H1003  H     0.00305   0.28369   0.54857   0.00000  Uiso   1.00
H1004  H     0.31554   0.27354   0.60350   0.00000  Uiso   1.00
C1005  C     0.28632   0.33593   0.56805   0.00000  Uiso   1.00
H1006  H     0.27824   0.34846   0.53104   0.00000  Uiso   1.00
H1007  H     0.25047   0.34009   0.58462   0.00000  Uiso   1.00
C1008  C     0.33065   0.36480   0.59662   0.00000  Uiso   1.00
H1009  H     0.00382   0.35500   0.63466   0.00000  Uiso   1.00
H1010  H     0.32015   0.40112   0.59458   0.00000  Uiso   1.00
H1011  H     0.03427   0.36013   0.58182   0.00000  Uiso   1.00
O1012  O     0.09100   0.19606   0.95594   0.00000  Uiso   1.00
C1013  C     0.11090   0.15443   0.97395   0.00000  Uiso   1.00
H1014  H     0.08970   0.14590   0.50373   0.00000  Uiso   1.00
H1015  H     0.15382   0.15582   0.98887   0.00000  Uiso   1.00
C1016  C     0.09912   0.11682   0.93556   0.00000  Uiso   1.00
H1017  H     0.05686   0.11705   0.91938   0.00000  Uiso   1.00
H1018  H     0.12271   0.12308   0.90697   0.00000  Uiso   1.00
C1019  C     0.11203   0.07025   0.95626   0.00000  Uiso   1.00
H1020  H     0.15359   0.06964   0.97445   0.00000  Uiso   1.00
H1021  H     0.10625   0.04410   0.92707   0.00000  Uiso   1.00
H1022  H     0.08565   0.06186   0.98230   0.00000  Uiso   1.00
C1023  C     0.50395   0.16344   0.75022   0.00000  Uiso   1.00
C1024  C     0.50145   0.33681   0.75063   0.00000  Uiso   1.00
C1025  C     0.45336   0.24711   0.54547   0.00000  Uiso   1.00
C1026  C     0.53294   0.27885   0.95274   0.00000  Uiso   1.00
C1027  C     0.45403   0.24328   0.59496   0.00000  Uiso   1.00
C1028  C     0.53561   0.27628   0.90355   0.00000  Uiso   1.00
C1029  C     0.54621   0.25563   0.60931   0.00000  Uiso   1.00
C1030  C     0.46462   0.22316   0.89147   0.00000  Uiso   1.00
C1031  C     0.54803   0.25608   0.55939   0.00000  Uiso   1.00
C1032  C     0.46369   0.22169   0.94087   0.00000  Uiso   1.00
C1033  C     0.50019   0.25124   0.52662   0.00000  Uiso   1.00
C1034  C     0.49877   0.25026   0.97293   0.00000  Uiso   1.00
C1035  C     0.40030   0.25016   0.73743   0.00000  Uiso   1.00
C1036  C     0.59974   0.25020   0.76262   0.00000  Uiso   1.00
C1037  C     0.34518   0.25093   0.73086   0.00000  Uiso   1.00
C1038  C     0.65493   0.25009   0.76938   0.00000  Uiso   1.00
C1039  C     0.53304   0.04650   0.79581   0.00000  Uiso   1.00
C1040  C     0.51551   0.45652   0.71244   0.00000  Uiso   1.00
C1041  C     0.52188   0.09216   0.79536   0.00000  Uiso   1.00
C1042  C     0.50131   0.41083   0.71076   0.00000  Uiso   1.00
C1043  C     0.52041   0.11599   0.75242   0.00000  Uiso   1.00
C1044  C     0.51322   0.38549   0.75255   0.00000  Uiso   1.00
C1045  C     0.53956   0.09496   0.71341   0.00000  Uiso   1.00
C1046  C     0.54248   0.40592   0.79431   0.00000  Uiso   1.00
C1047  C     0.55902   0.05099   0.71764   0.00000  Uiso   1.00
C1048  C     0.56349   0.44966   0.79280   0.00000  Uiso   1.00
C1049  C     0.55030   0.02542   0.75686   0.00000  Uiso   1.00
C1050  C     0.54653   0.47605   0.75302   0.00000  Uiso   1.00
H1051  H     0.65757   0.25228   0.69455   0.00000  Uiso   1.00
H1052  H     0.34261   0.24898   0.80579   0.00000  Uiso   1.00
H1053  H     0.52530   0.02717   0.82602   0.00000  Uiso   1.00
H1054  H     0.49990   0.47730   0.68275   0.00000  Uiso   1.00
H1055  H     0.41589   0.24629   0.52195   0.00000  Uiso   1.00
H1056  H     0.55679   0.30403   0.97482   0.00000  Uiso   1.00
H1057  H     0.58163   0.25859   0.63496   0.00000  Uiso   1.00
H1058  H     0.43667   0.20268   0.86701   0.00000  Uiso   1.00
N1059  N     0.50000   0.24999   0.62624   0.00000  Uiso   1.00
N1060  N     0.50000   0.25001   0.87377   0.00000  Uiso   1.00
O1061  O     0.50000   0.18454   0.78974   0.00000  Uiso   1.00
O1062  O     0.50000   0.31547   0.71026   0.00000  Uiso   1.00
O1063  O     0.50000   0.18453   0.71026   0.00000  Uiso   1.00
O1064  O     0.50000   0.31547   0.78974   0.00000  Uiso   1.00
O1065  O     0.42392   0.25000   0.78045   0.00000  Uiso   1.00
O1066  O     0.57608   0.25000   0.71956   0.00000  Uiso   1.00
O1067  O     0.42392   0.25000   0.70097   0.00000  Uiso   1.00
O1068  O     0.57608   0.25001   0.79904   0.00000  Uiso   1.00
Zn1069 Zn    0.50000   0.25001   0.80307   0.00000  Uiso   1.00
Zn1070 Zn    0.50000   0.25000   0.69693   0.00000  Uiso   1.00
O1071  O     0.50679   0.11159   0.83567   0.00000  Uiso   1.00
C1072  C     0.55200   0.12820   0.86703   0.00000  Uiso   1.00
H1073  H     0.53932   0.15700   0.88792   0.00000  Uiso   1.00
H1074  H     0.58313   0.14238   0.84801   0.00000  Uiso   1.00
C1075  C     0.57504   0.09173   0.90173   0.00000  Uiso   1.00
H1076  H     0.54279   0.07067   0.91209   0.00000  Uiso   1.00
H1077  H     0.60045   0.06922   0.88382   0.00000  Uiso   1.00
C1078  C     0.60774   0.11287   0.94679   0.00000  Uiso   1.00
H1079  H     0.63837   0.13635   0.93736   0.00000  Uiso   1.00
H1080  H     0.62726   0.08576   0.96937   0.00000  Uiso   1.00
H1081  H     0.58200   0.13199   0.96771   0.00000  Uiso   1.00
O1082  O     0.47026   0.39241   0.67015   0.00000  Uiso   1.00
C1083  C     0.49984   0.38837   0.63223   0.00000  Uiso   1.00
H1084  H     0.49489   0.35285   0.61816   0.00000  Uiso   1.00
H1085  H     0.54315   0.39458   0.64306   0.00000  Uiso   1.00
C1086  C     0.47850   0.42012   0.59193   0.00000  Uiso   1.00
H1087  H     0.43538   0.41461   0.58175   0.00000  Uiso   1.00
H1088  H     0.48574   0.45597   0.60413   0.00000  Uiso   1.00
C1089  C     0.50465   0.41208   0.54799   0.00000  Uiso   1.00
H1090  H     0.54770   0.41907   0.55688   0.00000  Uiso   1.00
H1091  H     0.48779   0.43529   0.51948   0.00000  Uiso   1.00
H1092  H     0.49760   0.37654   0.53436   0.00000  Uiso   1.00
O1093  O     0.54165   0.11759   0.67161   0.00000  Uiso   1.00
C1094  C     0.49848   0.10278   0.63707   0.00000  Uiso   1.00
H1095  H     0.46213   0.11971   0.64403   0.00000  Uiso   1.00
H1096  H     0.49135   0.06535   0.63669   0.00000  Uiso   1.00
C1097  C     0.50908   0.11493   0.58778   0.00000  Uiso   1.00
H1098  H     0.54485   0.09768   0.58005   0.00000  Uiso   1.00
H1099  H     0.47527   0.10314   0.56083   0.00000  Uiso   1.00
H1100  H     0.51457   0.15219   0.58547   0.00000  Uiso   1.00
O1101  O     0.55122   0.38360   0.83703   0.00000  Uiso   1.00
C1102  C     0.51275   0.39645   0.86512   0.00000  Uiso   1.00
H1103  H     0.48625   0.36682   0.86725   0.00000  Uiso   1.00
H1104  H     0.48742   0.42516   0.85095   0.00000  Uiso   1.00
C1105  C     0.53939   0.40983   0.91547   0.00000  Uiso   1.00
H1106  H     0.50900   0.41857   0.93759   0.00000  Uiso   1.00
H1107  H     0.56274   0.38144   0.93220   0.00000  Uiso   1.00
H1108  H     0.56580   0.43979   0.91456   0.00000  Uiso   1.00
O1109  O     0.57842   0.03117   0.67956   0.00000  Uiso   1.00
C1110  C     0.63331   0.02645   0.69226   0.00000  Uiso   1.00
H1111  H     0.64319   0.00540   0.72440   0.00000  Uiso   1.00
H1112  H     0.65323   0.06030   0.69921   0.00000  Uiso   1.00
C1113  C     0.65441   0.00287   0.65131   0.00000  Uiso   1.00
H1114  H     0.64533   0.02283   0.61838   0.00000  Uiso   1.00
H1115  H     0.36442   0.49945   0.66051   0.00000  Uiso   1.00
H1116  H     0.63591   0.46858   0.64457   0.00000  Uiso   1.00
O1117  O     0.59474   0.46853   0.83288   0.00000  Uiso   1.00
C1118  C     0.64738   0.45638   0.83207   0.00000  Uiso   1.00
H1119  H     0.66209   0.47169   0.80113   0.00000  Uiso   1.00
H1120  H     0.65141   0.41887   0.83012   0.00000  Uiso   1.00
C1121  C     0.34839   0.47412   0.87762   0.00000  Uiso   1.00
H1122  H     0.33503   0.45899   0.90921   0.00000  Uiso   1.00
H1123  H     0.38999   0.46488   0.87731   0.00000  Uiso   1.00
H1124  H     0.34598   0.01163   0.88033   0.00000  Uiso   1.00
O1125  O     0.40806   0.23351   0.61239   0.00000  Uiso   1.00
C1126  C     0.38481   0.19239   0.59166   0.00000  Uiso   1.00
H1127  H     0.41487   0.16709   0.58573   0.00000  Uiso   1.00
H1128  H     0.35979   0.19913   0.55688   0.00000  Uiso   1.00
C1129  C     0.35022   0.17165   0.62484   0.00000  Uiso   1.00
H1130  H     0.37432   0.16617   0.66036   0.00000  Uiso   1.00
H1131  H     0.65145   0.19516   0.62952   0.00000  Uiso   1.00
C1132  C     0.65923   0.12643   0.60462   0.00000  Uiso   1.00
H1133  H     0.63472   0.13112   0.56915   0.00000  Uiso   1.00
H1134  H     0.63391   0.11256   0.62920   0.00000  Uiso   1.00
H1135  H     0.35721   0.10173   0.60094   0.00000  Uiso   1.00
O1136  O     0.56970   0.30413   0.88401   0.00000  Uiso   1.00
C1137  C     0.62259   0.29455   0.90259   0.00000  Uiso   1.00
H1138  H     0.63297   0.26083   0.88883   0.00000  Uiso   1.00
H1139  H     0.63028   0.29472   0.94231   0.00000  Uiso   1.00
C1140  C     0.65793   0.33120   0.88641   0.00000  Uiso   1.00
H1141  H     0.65102   0.33221   0.84676   0.00000  Uiso   1.00
H1142  H     0.64785   0.36473   0.90070   0.00000  Uiso   1.00
C1143  C     0.38262   0.32266   0.90396   0.00000  Uiso   1.00
H1144  H     0.39023   0.31880   0.94331   0.00000  Uiso   1.00
H1145  H     0.40649   0.35184   0.89486   0.00000  Uiso   1.00
H1146  H     0.39460   0.29162   0.88621   0.00000  Uiso   1.00
O1147  O     0.59522   0.25706   0.54116   0.00000  Uiso   1.00
C1148  C     0.63502   0.28582   0.56714   0.00000  Uiso   1.00
H1149  H     0.33639   0.28369   0.54857   0.00000  Uiso   1.00
H1150  H     0.64888   0.27354   0.60350   0.00000  Uiso   1.00
C1151  C     0.61965   0.33593   0.56805   0.00000  Uiso   1.00
H1152  H     0.61157   0.34846   0.53104   0.00000  Uiso   1.00
H1153  H     0.58381   0.34009   0.58462   0.00000  Uiso   1.00
C1154  C     0.66399   0.36480   0.59662   0.00000  Uiso   1.00
H1155  H     0.33715   0.35500   0.63466   0.00000  Uiso   1.00
H1156  H     0.65348   0.40112   0.59458   0.00000  Uiso   1.00
H1157  H     0.36760   0.36013   0.58182   0.00000  Uiso   1.00
O1158  O     0.42433   0.19606   0.95594   0.00000  Uiso   1.00
C1159  C     0.44423   0.15443   0.97395   0.00000  Uiso   1.00
H1160  H     0.42304   0.14590   0.50373   0.00000  Uiso   1.00
H1161  H     0.48715   0.15582   0.98887   0.00000  Uiso   1.00
C1162  C     0.43245   0.11682   0.93556   0.00000  Uiso   1.00
H1163  H     0.39020   0.11705   0.91938   0.00000  Uiso   1.00
H1164  H     0.45604   0.12308   0.90697   0.00000  Uiso   1.00
C1165  C     0.44537   0.07025   0.95626   0.00000  Uiso   1.00
H1166  H     0.48693   0.06964   0.97445   0.00000  Uiso   1.00
H1167  H     0.43959   0.04410   0.92707   0.00000  Uiso   1.00
H1168  H     0.41898   0.06186   0.98230   0.00000  Uiso   1.00
C1169  C     0.83728   0.16344   0.75022   0.00000  Uiso   1.00
C1170  C     0.83478   0.33681   0.75063   0.00000  Uiso   1.00
C1171  C     0.78669   0.24711   0.54547   0.00000  Uiso   1.00
C1172  C     0.86628   0.27885   0.95274   0.00000  Uiso   1.00
C1173  C     0.78737   0.24328   0.59496   0.00000  Uiso   1.00
C1174  C     0.86894   0.27628   0.90355   0.00000  Uiso   1.00
C1175  C     0.87955   0.25563   0.60931   0.00000  Uiso   1.00
C1176  C     0.79795   0.22316   0.89147   0.00000  Uiso   1.00
C1177  C     0.88136   0.25608   0.55939   0.00000  Uiso   1.00
C1178  C     0.79702   0.22169   0.94087   0.00000  Uiso   1.00
C1179  C     0.83352   0.25124   0.52662   0.00000  Uiso   1.00
C1180  C     0.83210   0.25026   0.97293   0.00000  Uiso   1.00
C1181  C     0.73363   0.25016   0.73743   0.00000  Uiso   1.00
C1182  C     0.93307   0.25020   0.76262   0.00000  Uiso   1.00
C1183  C     0.67852   0.25093   0.73086   0.00000  Uiso   1.00
C1184  C     0.98826   0.25009   0.76938   0.00000  Uiso   1.00
C1185  C     0.86637   0.04650   0.79581   0.00000  Uiso   1.00
C1186  C     0.84884   0.45652   0.71244   0.00000  Uiso   1.00
C1187  C     0.85522   0.09216   0.79536   0.00000  Uiso   1.00
C1188  C     0.83464   0.41083   0.71076   0.00000  Uiso   1.00
C1189  C     0.85374   0.11599   0.75242   0.00000  Uiso   1.00
C1190  C     0.84655   0.38549   0.75255   0.00000  Uiso   1.00
C1191  C     0.87290   0.09496   0.71341   0.00000  Uiso   1.00
C1192  C     0.87581   0.40592   0.79431   0.00000  Uiso   1.00
C1193  C     0.89235   0.05099   0.71764   0.00000  Uiso   1.00
C1194  C     0.89682   0.44966   0.79280   0.00000  Uiso   1.00
C1195  C     0.88363   0.02542   0.75686   0.00000  Uiso   1.00
C1196  C     0.87986   0.47605   0.75302   0.00000  Uiso   1.00
H1197  H     0.99091   0.25228   0.69455   0.00000  Uiso   1.00
H1198  H     0.67594   0.24898   0.80579   0.00000  Uiso   1.00
H1199  H     0.85863   0.02717   0.82602   0.00000  Uiso   1.00
H1200  H     0.83324   0.47730   0.68275   0.00000  Uiso   1.00
H1201  H     0.74923   0.24629   0.52195   0.00000  Uiso   1.00
H1202  H     0.89012   0.30403   0.97482   0.00000  Uiso   1.00
H1203  H     0.91496   0.25859   0.63496   0.00000  Uiso   1.00
H1204  H     0.77000   0.20268   0.86701   0.00000  Uiso   1.00
N1205  N     0.83333   0.24999   0.62624   0.00000  Uiso   1.00
N1206  N     0.83333   0.25001   0.87377   0.00000  Uiso   1.00
O1207  O     0.83334   0.18454   0.78974   0.00000  Uiso   1.00
O1208  O     0.83333   0.31547   0.71026   0.00000  Uiso   1.00
O1209  O     0.83334   0.18453   0.71026   0.00000  Uiso   1.00
O1210  O     0.83333   0.31547   0.78974   0.00000  Uiso   1.00
O1211  O     0.75725   0.25000   0.78045   0.00000  Uiso   1.00
O1212  O     0.90942   0.25000   0.71956   0.00000  Uiso   1.00
O1213  O     0.75725   0.25000   0.70097   0.00000  Uiso   1.00
O1214  O     0.90942   0.25001   0.79904   0.00000  Uiso   1.00
Zn1215 Zn    0.83333   0.25001   0.80307   0.00000  Uiso   1.00
Zn1216 Zn    0.83333   0.25000   0.69693   0.00000  Uiso   1.00
O1217  O     0.84013   0.11159   0.83567   0.00000  Uiso   1.00
C1218  C     0.88533   0.12820   0.86703   0.00000  Uiso   1.00
H1219  H     0.87265   0.15700   0.88792   0.00000  Uiso   1.00
H1220  H     0.91647   0.14238   0.84801   0.00000  Uiso   1.00
C1221  C     0.90838   0.09173   0.90173   0.00000  Uiso   1.00
H1222  H     0.87612   0.07067   0.91209   0.00000  Uiso   1.00
H1223  H     0.93379   0.06922   0.88382   0.00000  Uiso   1.00
C1224  C     0.94107   0.11287   0.94679   0.00000  Uiso   1.00
H1225  H     0.97170   0.13635   0.93736   0.00000  Uiso   1.00
H1226  H     0.96059   0.08576   0.96937   0.00000  Uiso   1.00
H1227  H     0.91533   0.13199   0.96771   0.00000  Uiso   1.00
O1228  O     0.80359   0.39241   0.67015   0.00000  Uiso   1.00
C1229  C     0.83317   0.38837   0.63223   0.00000  Uiso   1.00
H1230  H     0.82822   0.35285   0.61816   0.00000  Uiso   1.00
H1231  H     0.87648   0.39458   0.64306   0.00000  Uiso   1.00
C1232  C     0.81184   0.42012   0.59193   0.00000  Uiso   1.00
H1233  H     0.76871   0.41461   0.58175   0.00000  Uiso   1.00
H1234  H     0.81907   0.45597   0.60413   0.00000  Uiso   1.00
C1235  C     0.83798   0.41208   0.54799   0.00000  Uiso   1.00
H1236  H     0.88103   0.41907   0.55688   0.00000  Uiso   1.00
H1237  H     0.82112   0.43529   0.51948   0.00000  Uiso   1.00
H1238  H     0.83093   0.37654   0.53436   0.00000  Uiso   1.00
O1239  O     0.87498   0.11759   0.67161   0.00000  Uiso   1.00
C1240  C     0.83181   0.10278   0.63707   0.00000  Uiso   1.00
H1241  H     0.79546   0.11971   0.64403   0.00000  Uiso   1.00
H1242  H     0.82469   0.06535   0.63669   0.00000  Uiso   1.00
C1243  C     0.84241   0.11493   0.58778   0.00000  Uiso   1.00
H1244  H     0.87818   0.09768   0.58005   0.00000  Uiso   1.00
H1245  H     0.80861   0.10314   0.56083   0.00000  Uiso   1.00
H1246  H     0.84790   0.15219   0.58547   0.00000  Uiso   1.00
O1247  O     0.88456   0.38360   0.83703   0.00000  Uiso   1.00
C1248  C     0.84608   0.39645   0.86512   0.00000  Uiso   1.00
H1249  H     0.81958   0.36682   0.86725   0.00000  Uiso   1.00
H1250  H     0.82075   0.42516   0.85095   0.00000  Uiso   1.00
C1251  C     0.87272   0.40983   0.91547   0.00000  Uiso   1.00
H1252  H     0.84233   0.41857   0.93759   0.00000  Uiso   1.00
H1253  H     0.89608   0.38144   0.93220   0.00000  Uiso   1.00
H1254  H     0.89913   0.43979   0.91456   0.00000  Uiso   1.00
O1255  O     0.91175   0.03117   0.67956   0.00000  Uiso   1.00
C1256  C     0.96664   0.02645   0.69226   0.00000  Uiso   1.00
H1257  H     0.97652   0.00540   0.72440   0.00000  Uiso   1.00
H1258  H     0.98656   0.06030   0.69921   0.00000  Uiso   1.00
C1259  C     0.98775   0.00287   0.65131   0.00000  Uiso   1.00
H1260  H     0.97867   0.02283   0.61838   0.00000  Uiso   1.00
H1261  H     0.69776   0.49945   0.66051   0.00000  Uiso   1.00
H1262  H     0.96924   0.46858   0.64457   0.00000  Uiso   1.00
O1263  O     0.92807   0.46853   0.83288   0.00000  Uiso   1.00
C1264  C     0.98072   0.45638   0.83207   0.00000  Uiso   1.00
H1265  H     0.99542   0.47169   0.80113   0.00000  Uiso   1.00
H1266  H     0.98475   0.41887   0.83012   0.00000  Uiso   1.00
C1267  C     0.68172   0.47412   0.87762   0.00000  Uiso   1.00
H1268  H     0.66836   0.45899   0.90921   0.00000  Uiso   1.00
H1269  H     0.72333   0.46488   0.87731   0.00000  Uiso   1.00
H1270  H     0.67931   0.01163   0.88033   0.00000  Uiso   1.00
O1271  O     0.74140   0.23351   0.61239   0.00000  Uiso   1.00
C1272  C     0.71815   0.19239   0.59166   0.00000  Uiso   1.00
H1273  H     0.74821   0.16709   0.58573   0.00000  Uiso   1.00
H1274  H     0.69312   0.19913   0.55688   0.00000  Uiso   1.00
C1275  C     0.68355   0.17165   0.62484   0.00000  Uiso   1.00
H1276  H     0.70766   0.16617   0.66036   0.00000  Uiso   1.00
H1277  H     0.98478   0.19516   0.62952   0.00000  Uiso   1.00
C1278  C     0.99256   0.12643   0.60462   0.00000  Uiso   1.00
H1279  H     0.96805   0.13112   0.56915   0.00000  Uiso   1.00
H1280  H     0.96725   0.11256   0.62920   0.00000  Uiso   1.00
H1281  H     0.69054   0.10173   0.60094   0.00000  Uiso   1.00
O1282  O     0.90303   0.30413   0.88401   0.00000  Uiso   1.00
C1283  C     0.95592   0.29455   0.90259   0.00000  Uiso   1.00
H1284  H     0.96630   0.26083   0.88883   0.00000  Uiso   1.00
H1285  H     0.96362   0.29472   0.94231   0.00000  Uiso   1.00
C1286  C     0.99126   0.33120   0.88641   0.00000  Uiso   1.00
H1287  H     0.98436   0.33221   0.84676   0.00000  Uiso   1.00
H1288  H     0.98118   0.36473   0.90070   0.00000  Uiso   1.00
C1289  C     0.71596   0.32266   0.90396   0.00000  Uiso   1.00
H1290  H     0.72356   0.31880   0.94331   0.00000  Uiso   1.00
H1291  H     0.73983   0.35184   0.89486   0.00000  Uiso   1.00
H1292  H     0.72793   0.29162   0.88621   0.00000  Uiso   1.00
O1293  O     0.92856   0.25706   0.54116   0.00000  Uiso   1.00
C1294  C     0.96835   0.28582   0.56714   0.00000  Uiso   1.00
H1295  H     0.66972   0.28369   0.54857   0.00000  Uiso   1.00
H1296  H     0.98221   0.27354   0.60350   0.00000  Uiso   1.00
C1297  C     0.95298   0.33593   0.56805   0.00000  Uiso   1.00
H1298  H     0.94491   0.34846   0.53104   0.00000  Uiso   1.00
H1299  H     0.91714   0.34009   0.58462   0.00000  Uiso   1.00
C1300  C     0.99732   0.36480   0.59662   0.00000  Uiso   1.00
H1301  H     0.67048   0.35500   0.63466   0.00000  Uiso   1.00
H1302  H     0.98681   0.40112   0.59458   0.00000  Uiso   1.00
H1303  H     0.70094   0.36013   0.58182   0.00000  Uiso   1.00
O1304  O     0.75767   0.19606   0.95594   0.00000  Uiso   1.00
C1305  C     0.77757   0.15443   0.97395   0.00000  Uiso   1.00
H1306  H     0.75637   0.14590   0.50373   0.00000  Uiso   1.00
H1307  H     0.82049   0.15582   0.98887   0.00000  Uiso   1.00
C1308  C     0.76578   0.11682   0.93556   0.00000  Uiso   1.00
H1309  H     0.72353   0.11705   0.91938   0.00000  Uiso   1.00
H1310  H     0.78937   0.12308   0.90697   0.00000  Uiso   1.00
C1311  C     0.77870   0.07025   0.95626   0.00000  Uiso   1.00
H1312  H     0.82026   0.06964   0.97445   0.00000  Uiso   1.00
H1313  H     0.77292   0.04410   0.92707   0.00000  Uiso   1.00
H1314  H     0.75232   0.06186   0.98230   0.00000  Uiso   1.00
C1315  C     0.17061   0.66344   0.75022   0.00000  Uiso   1.00
C1316  C     0.16812   0.83681   0.75063   0.00000  Uiso   1.00
C1317  C     0.12002   0.74711   0.54547   0.00000  Uiso   1.00
C1318  C     0.19961   0.77885   0.95274   0.00000  Uiso   1.00
C1319  C     0.12070   0.74328   0.59496   0.00000  Uiso   1.00
C1320  C     0.20227   0.77628   0.90355   0.00000  Uiso   1.00
C1321  C     0.21288   0.75563   0.60931   0.00000  Uiso   1.00
C1322  C     0.13129   0.72316   0.89147   0.00000  Uiso   1.00
C1323  C     0.21469   0.75608   0.55939   0.00000  Uiso   1.00
C1324  C     0.13036   0.72169   0.94087   0.00000  Uiso   1.00
C1325  C     0.16685   0.75124   0.52662   0.00000  Uiso   1.00
C1326  C     0.16543   0.75026   0.97293   0.00000  Uiso   1.00
C1327  C     0.06697   0.75016   0.73743   0.00000  Uiso   1.00
C1328  C     0.26640   0.75020   0.76262   0.00000  Uiso   1.00
C1329  C     0.01185   0.75093   0.73086   0.00000  Uiso   1.00
C1330  C     0.32159   0.75009   0.76938   0.00000  Uiso   1.00
C1331  C     0.19970   0.54650   0.79581   0.00000  Uiso   1.00
C1332  C     0.18217   0.95652   0.71244   0.00000  Uiso   1.00
C1333  C     0.18855   0.59216   0.79536   0.00000  Uiso   1.00
C1334  C     0.16797   0.91083   0.71076   0.00000  Uiso   1.00
C1335  C     0.18707   0.61599   0.75242   0.00000  Uiso   1.00
C1336  C     0.17989   0.88549   0.75255   0.00000  Uiso   1.00
C1337  C     0.20623   0.59496   0.71341   0.00000  Uiso   1.00
C1338  C     0.20914   0.90592   0.79431   0.00000  Uiso   1.00
C1339  C     0.22569   0.55099   0.71764   0.00000  Uiso   1.00
C1340  C     0.23016   0.94966   0.79280   0.00000  Uiso   1.00
C1341  C     0.21696   0.52542   0.75686   0.00000  Uiso   1.00
C1342  C     0.21320   0.97605   0.75302   0.00000  Uiso   1.00
H1343  H     0.32424   0.75228   0.69455   0.00000  Uiso   1.00
H1344  H     0.00928   0.74898   0.80579   0.00000  Uiso   1.00
H1345  H     0.19197   0.52717   0.82602   0.00000  Uiso   1.00
H1346  H     0.16657   0.97730   0.68275   0.00000  Uiso   1.00
H1347  H     0.08256   0.74629   0.52195   0.00000  Uiso   1.00
H1348  H     0.22345   0.80403   0.97482   0.00000  Uiso   1.00
H1349  H     0.24830   0.75859   0.63496   0.00000  Uiso   1.00
H1350  H     0.10334   0.70268   0.86701   0.00000  Uiso   1.00
N1351  N     0.16667   0.74999   0.62624   0.00000  Uiso   1.00
N1352  N     0.16667   0.75001   0.87377   0.00000  Uiso   1.00
O1353  O     0.16667   0.68454   0.78974   0.00000  Uiso   1.00
O1354  O     0.16666   0.81547   0.71026   0.00000  Uiso   1.00
O1355  O     0.16667   0.68453   0.71026   0.00000  Uiso   1.00
O1356  O     0.16666   0.81547   0.78974   0.00000  Uiso   1.00
O1357  O     0.09058   0.75000   0.78045   0.00000  Uiso   1.00
O1358  O     0.24275   0.75000   0.71956   0.00000  Uiso   1.00
O1359  O     0.09058   0.75000   0.70097   0.00000  Uiso   1.00
O1360  O     0.24275   0.75001   0.79904   0.00000  Uiso   1.00
Zn1361 Zn    0.16667   0.75001   0.80307   0.00000  Uiso   1.00
Zn1362 Zn    0.16667   0.75000   0.69693   0.00000  Uiso   1.00
O1363  O     0.17346   0.61159   0.83567   0.00000  Uiso   1.00
C1364  C     0.21866   0.62820   0.86703   0.00000  Uiso   1.00
H1365  H     0.20598   0.65700   0.88792   0.00000  Uiso   1.00
H1366  H     0.24980   0.64238   0.84801   0.00000  Uiso   1.00
C1367  C     0.24171   0.59173   0.90173   0.00000  Uiso   1.00
H1368  H     0.20945   0.57067   0.91209   0.00000  Uiso   1.00
H1369  H     0.26712   0.56922   0.88382   0.00000  Uiso   1.00
C1370  C     0.27441   0.61287   0.94679   0.00000  Uiso   1.00
H1371  H     0.30504   0.63635   0.93736   0.00000  Uiso   1.00
H1372  H     0.29393   0.58576   0.96937   0.00000  Uiso   1.00
H1373  H     0.24867   0.63199   0.96771   0.00000  Uiso   1.00
O1374  O     0.13693   0.89241   0.67015   0.00000  Uiso   1.00
C1375  C     0.16651   0.88837   0.63223   0.00000  Uiso   1.00
H1376  H     0.16155   0.85285   0.61816   0.00000  Uiso   1.00
H1377  H     0.20981   0.89458   0.64306   0.00000  Uiso   1.00
C1378  C     0.14517   0.92012   0.59193   0.00000  Uiso   1.00
H1379  H     0.10204   0.91461   0.58175   0.00000  Uiso   1.00
H1380  H     0.15240   0.95597   0.60413   0.00000  Uiso   1.00
C1381  C     0.17131   0.91208   0.54799   0.00000  Uiso   1.00
H1382  H     0.21437   0.91907   0.55688   0.00000  Uiso   1.00
H1383  H     0.15445   0.93529   0.51948   0.00000  Uiso   1.00
H1384  H     0.16426   0.87654   0.53436   0.00000  Uiso   1.00
O1385  O     0.20832   0.61759   0.67161   0.00000  Uiso   1.00
C1386  C     0.16515   0.60278   0.63707   0.00000  Uiso   1.00
H1387  H     0.12879   0.61971   0.64403   0.00000  Uiso   1.00
H1388  H     0.15802   0.56535   0.63669   0.00000  Uiso   1.00
C1389  C     0.17574   0.61493   0.58778   0.00000  Uiso   1.00
H1390  H     0.21152   0.59768   0.58005   0.00000  Uiso   1.00
H1391  H     0.14194   0.60314   0.56083   0.00000  Uiso   1.00
H1392  H     0.18124   0.65219   0.58547   0.00000  Uiso   1.00
O1393  O     0.21789   0.88360   0.83703   0.00000  Uiso   1.00
C1394  C     0.17942   0.89645   0.86512   0.00000  Uiso   1.00
H1395  H     0.15292   0.86682   0.86725   0.00000  Uiso   1.00
H1396  H     0.15409   0.92516   0.85095   0.00000  Uiso   1.00
C1397  C     0.20605   0.90983   0.91547   0.00000  Uiso   1.00
H1398  H     0.17567   0.91857   0.93759   0.00000  Uiso   1.00
H1399  H     0.22941   0.88144   0.93220   0.00000  Uiso   1.00
H1400  H     0.23246   0.93979   0.91456   0.00000  Uiso   1.00
O1401  O     0.24508   0.53117   0.67956   0.00000  Uiso   1.00
C1402  C     0.29998   0.52645   0.69226   0.00000  Uiso   1.00
H1403  H     0.30986   0.50540   0.72440   0.00000  Uiso   1.00
H1404  H     0.31989   0.56030   0.69921   0.00000  Uiso   1.00
C1405  C     0.32108   0.50287   0.65131   0.00000  Uiso   1.00
H1406  H     0.31200   0.52283   0.61838   0.00000  Uiso   1.00
H1407  H     0.03109   0.99945   0.66051   0.00000  Uiso   1.00
H1408  H     0.30258   0.96858   0.64457   0.00000  Uiso   1.00
O1409  O     0.26141   0.96853   0.83288   0.00000  Uiso   1.00
C1410  C     0.31405   0.95638   0.83207   0.00000  Uiso   1.00
H1411  H     0.32875   0.97169   0.80113   0.00000  Uiso   1.00
H1412  H     0.31808   0.91887   0.83012   0.00000  Uiso   1.00
C1413  C     0.01505   0.97412   0.87762   0.00000  Uiso   1.00
H1414  H     0.00169   0.95899   0.90921   0.00000  Uiso   1.00
H1415  H     0.05666   0.96488   0.87731   0.00000  Uiso   1.00
H1416  H     0.01264   0.51163   0.88033   0.00000  Uiso   1.00
O1417  O     0.07473   0.73351   0.61239   0.00000  Uiso   1.00
C1418  C     0.05148   0.69239   0.59166   0.00000  Uiso   1.00
H1419  H     0.08154   0.66709   0.58573   0.00000  Uiso   1.00
H1420  H     0.02646   0.69913   0.55688   0.00000  Uiso   1.00
C1421  C     0.01689   0.67165   0.62484   0.00000  Uiso   1.00
H1422  H     0.04099   0.66617   0.66036   0.00000  Uiso   1.00
H1423  H     0.31811   0.69516   0.62952   0.00000  Uiso   1.00
C1424  C     0.32590   0.62643   0.60462   0.00000  Uiso   1.00
H1425  H     0.30139   0.63112   0.56915   0.00000  Uiso   1.00
H1426  H     0.30058   0.61256   0.62920   0.00000  Uiso   1.00
H1427  H     0.02388   0.60173   0.60094   0.00000  Uiso   1.00
O1428  O     0.23636   0.80413   0.88401   0.00000  Uiso   1.00
C1429  C     0.28926   0.79455   0.90259   0.00000  Uiso   1.00
H1430  H     0.29964   0.76083   0.88883   0.00000  Uiso   1.00
H1431  H     0.29695   0.79472   0.94231   0.00000  Uiso   1.00
C1432  C     0.32460   0.83120   0.88641   0.00000  Uiso   1.00
H1433  H     0.31769   0.83221   0.84676   0.00000  Uiso   1.00
H1434  H     0.31452   0.86473   0.90070   0.00000  Uiso   1.00
C1435  C     0.04929   0.82266   0.90396   0.00000  Uiso   1.00
H1436  H     0.05689   0.81880   0.94331   0.00000  Uiso   1.00
H1437  H     0.07316   0.85184   0.89486   0.00000  Uiso   1.00
H1438  H     0.06127   0.79162   0.88621   0.00000  Uiso   1.00
O1439  O     0.26189   0.75706   0.54116   0.00000  Uiso   1.00
C1440  C     0.30169   0.78582   0.56714   0.00000  Uiso   1.00
H1441  H     0.00305   0.78369   0.54857   0.00000  Uiso   1.00
H1442  H     0.31554   0.77354   0.60350   0.00000  Uiso   1.00
C1443  C     0.28632   0.83593   0.56805   0.00000  Uiso   1.00
H1444  H     0.27824   0.84846   0.53104   0.00000  Uiso   1.00
H1445  H     0.25047   0.84009   0.58462   0.00000  Uiso   1.00
C1446  C     0.33065   0.86480   0.59662   0.00000  Uiso   1.00
H1447  H     0.00382   0.85500   0.63466   0.00000  Uiso   1.00
H1448  H     0.32015   0.90112   0.59458   0.00000  Uiso   1.00
H1449  H     0.03427   0.86013   0.58182   0.00000  Uiso   1.00
O1450  O     0.09100   0.69606   0.95594   0.00000  Uiso   1.00
C1451  C     0.11090   0.65443   0.97395   0.00000  Uiso   1.00
H1452  H     0.08970   0.64590   0.50373   0.00000  Uiso   1.00
H1453  H     0.15382   0.65582   0.98887   0.00000  Uiso   1.00
C1454  C     0.09912   0.61682   0.93556   0.00000  Uiso   1.00
H1455  H     0.05686   0.61705   0.91938   0.00000  Uiso   1.00
H1456  H     0.12271   0.62308   0.90697   0.00000  Uiso   1.00
C1457  C     0.11203   0.57025   0.95626   0.00000  Uiso   1.00
H1458  H     0.15359   0.56964   0.97445   0.00000  Uiso   1.00
H1459  H     0.10625   0.54410   0.92707   0.00000  Uiso   1.00
H1460  H     0.08565   0.56186   0.98230   0.00000  Uiso   1.00
C1461  C     0.50395   0.66344   0.75022   0.00000  Uiso   1.00
C1462  C     0.50145   0.83681   0.75063   0.00000  Uiso   1.00
C1463  C     0.45336   0.74711   0.54547   0.00000  Uiso   1.00
C1464  C     0.53294   0.77885   0.95274   0.00000  Uiso   1.00
C1465  C     0.45403   0.74328   0.59496   0.00000  Uiso   1.00
C1466  C     0.53561   0.77628   0.90355   0.00000  Uiso   1.00
C1467  C     0.54621   0.75563   0.60931   0.00000  Uiso   1.00
C1468  C     0.46462   0.72316   0.89147   0.00000  Uiso   1.00
C1469  C     0.54803   0.75608   0.55939   0.00000  Uiso   1.00
C1470  C     0.46369   0.72169   0.94087   0.00000  Uiso   1.00
C1471  C     0.50019   0.75124   0.52662   0.00000  Uiso   1.00
C1472  C     0.49877   0.75026   0.97293   0.00000  Uiso   1.00
C1473  C     0.40030   0.75016   0.73743   0.00000  Uiso   1.00
C1474  C     0.59974   0.75020   0.76262   0.00000  Uiso   1.00
C1475  C     0.34518   0.75093   0.73086   0.00000  Uiso   1.00
C1476  C     0.65493   0.75009   0.76938   0.00000  Uiso   1.00
C1477  C     0.53304   0.54650   0.79581   0.00000  Uiso   1.00
C1478  C     0.51551   0.95652   0.71244   0.00000  Uiso   1.00
C1479  C     0.52188   0.59216   0.79536   0.00000  Uiso   1.00
C1480  C     0.50131   0.91083   0.71076   0.00000  Uiso   1.00
C1481  C     0.52041   0.61599   0.75242   0.00000  Uiso   1.00
C1482  C     0.51322   0.88549   0.75255   0.00000  Uiso   1.00
C1483  C     0.53956   0.59496   0.71341   0.00000  Uiso   1.00
C1484  C     0.54248   0.90592   0.79431   0.00000  Uiso   1.00
C1485  C     0.55902   0.55099   0.71764   0.00000  Uiso   1.00
C1486  C     0.56349   0.94966   0.79280   0.00000  Uiso   1.00
C1487  C     0.55030   0.52542   0.75686   0.00000  Uiso   1.00
C1488  C     0.54653   0.97605   0.75302   0.00000  Uiso   1.00
H1489  H     0.65757   0.75228   0.69455   0.00000  Uiso   1.00
H1490  H     0.34261   0.74898   0.80579   0.00000  Uiso   1.00
H1491  H     0.52530   0.52717   0.82602   0.00000  Uiso   1.00
H1492  H     0.49990   0.97730   0.68275   0.00000  Uiso   1.00
H1493  H     0.41589   0.74629   0.52195   0.00000  Uiso   1.00
H1494  H     0.55679   0.80403   0.97482   0.00000  Uiso   1.00
H1495  H     0.58163   0.75859   0.63496   0.00000  Uiso   1.00
H1496  H     0.43667   0.70268   0.86701   0.00000  Uiso   1.00
N1497  N     0.50000   0.74999   0.62624   0.00000  Uiso   1.00
N1498  N     0.50000   0.75001   0.87377   0.00000  Uiso   1.00
O1499  O     0.50000   0.68454   0.78974   0.00000  Uiso   1.00
O1500  O     0.50000   0.81547   0.71026   0.00000  Uiso   1.00
O1501  O     0.50000   0.68453   0.71026   0.00000  Uiso   1.00
O1502  O     0.50000   0.81547   0.78974   0.00000  Uiso   1.00
O1503  O     0.42392   0.75000   0.78045   0.00000  Uiso   1.00
O1504  O     0.57608   0.75000   0.71956   0.00000  Uiso   1.00
O1505  O     0.42392   0.75000   0.70097   0.00000  Uiso   1.00
O1506  O     0.57608   0.75001   0.79904   0.00000  Uiso   1.00
Zn1507 Zn    0.50000   0.75001   0.80307   0.00000  Uiso   1.00
Zn1508 Zn    0.50000   0.75000   0.69693   0.00000  Uiso   1.00
O1509  O     0.50679   0.61159   0.83567   0.00000  Uiso   1.00
C1510  C     0.55200   0.62820   0.86703   0.00000  Uiso   1.00
H1511  H     0.53932   0.65700   0.88792   0.00000  Uiso   1.00
H1512  H     0.58313   0.64238   0.84801   0.00000  Uiso   1.00
C1513  C     0.57504   0.59173   0.90173   0.00000  Uiso   1.00
H1514  H     0.54279   0.57067   0.91209   0.00000  Uiso   1.00
H1515  H     0.60045   0.56922   0.88382   0.00000  Uiso   1.00
C1516  C     0.60774   0.61287   0.94679   0.00000  Uiso   1.00
H1517  H     0.63837   0.63635   0.93736   0.00000  Uiso   1.00
H1518  H     0.62726   0.58576   0.96937   0.00000  Uiso   1.00
H1519  H     0.58200   0.63199   0.96771   0.00000  Uiso   1.00
O1520  O     0.47026   0.89241   0.67015   0.00000  Uiso   1.00
C1521  C     0.49984   0.88837   0.63223   0.00000  Uiso   1.00
H1522  H     0.49489   0.85285   0.61816   0.00000  Uiso   1.00
H1523  H     0.54315   0.89458   0.64306   0.00000  Uiso   1.00
C1524  C     0.47850   0.92012   0.59193   0.00000  Uiso   1.00
H1525  H     0.43538   0.91461   0.58175   0.00000  Uiso   1.00
H1526  H     0.48574   0.95597   0.60413   0.00000  Uiso   1.00
C1527  C     0.50465   0.91208   0.54799   0.00000  Uiso   1.00
H1528  H     0.54770   0.91907   0.55688   0.00000  Uiso   1.00
H1529  H     0.48779   0.93529   0.51948   0.00000  Uiso   1.00
H1530  H     0.49760   0.87654   0.53436   0.00000  Uiso   1.00
O1531  O     0.54165   0.61759   0.67161   0.00000  Uiso   1.00
C1532  C     0.49848   0.60278   0.63707   0.00000  Uiso   1.00
H1533  H     0.46213   0.61971   0.64403   0.00000  Uiso   1.00
H1534  H     0.49135   0.56535   0.63669   0.00000  Uiso   1.00
C1535  C     0.50908   0.61493   0.58778   0.00000  Uiso   1.00
H1536  H     0.54485   0.59768   0.58005   0.00000  Uiso   1.00
H1537  H     0.47527   0.60314   0.56083   0.00000  Uiso   1.00
H1538  H     0.51457   0.65219   0.58547   0.00000  Uiso   1.00
O1539  O     0.55122   0.88360   0.83703   0.00000  Uiso   1.00
C1540  C     0.51275   0.89645   0.86512   0.00000  Uiso   1.00
H1541  H     0.48625   0.86682   0.86725   0.00000  Uiso   1.00
H1542  H     0.48742   0.92516   0.85095   0.00000  Uiso   1.00
C1543  C     0.53939   0.90983   0.91547   0.00000  Uiso   1.00
H1544  H     0.50900   0.91857   0.93759   0.00000  Uiso   1.00
H1545  H     0.56274   0.88144   0.93220   0.00000  Uiso   1.00
H1546  H     0.56580   0.93979   0.91456   0.00000  Uiso   1.00
O1547  O     0.57842   0.53117   0.67956   0.00000  Uiso   1.00
C1548  C     0.63331   0.52645   0.69226   0.00000  Uiso   1.00
H1549  H     0.64319   0.50540   0.72440   0.00000  Uiso   1.00
H1550  H     0.65323   0.56030   0.69921   0.00000  Uiso   1.00
C1551  C     0.65441   0.50287   0.65131   0.00000  Uiso   1.00
H1552  H     0.64533   0.52283   0.61838   0.00000  Uiso   1.00
H1553  H     0.36442   0.99945   0.66051   0.00000  Uiso   1.00
H1554  H     0.63591   0.96858   0.64457   0.00000  Uiso   1.00
O1555  O     0.59474   0.96853   0.83288   0.00000  Uiso   1.00
C1556  C     0.64738   0.95638   0.83207   0.00000  Uiso   1.00
H1557  H     0.66209   0.97169   0.80113   0.00000  Uiso   1.00
H1558  H     0.65141   0.91887   0.83012   0.00000  Uiso   1.00
C1559  C     0.34839   0.97412   0.87762   0.00000  Uiso   1.00
H1560  H     0.33503   0.95899   0.90921   0.00000  Uiso   1.00
H1561  H     0.38999   0.96488   0.87731   0.00000  Uiso   1.00
H1562  H     0.34598   0.51163   0.88033   0.00000  Uiso   1.00
O1563  O     0.40806   0.73351   0.61239   0.00000  Uiso   1.00
C1564  C     0.38481   0.69239   0.59166   0.00000  Uiso   1.00
H1565  H     0.41487   0.66709   0.58573   0.00000  Uiso   1.00
H1566  H     0.35979   0.69913   0.55688   0.00000  Uiso   1.00
C1567  C     0.35022   0.67165   0.62484   0.00000  Uiso   1.00
H1568  H     0.37432   0.66617   0.66036   0.00000  Uiso   1.00
H1569  H     0.65145   0.69516   0.62952   0.00000  Uiso   1.00
C1570  C     0.65923   0.62643   0.60462   0.00000  Uiso   1.00
H1571  H     0.63472   0.63112   0.56915   0.00000  Uiso   1.00
H1572  H     0.63391   0.61256   0.62920   0.00000  Uiso   1.00
H1573  H     0.35721   0.60173   0.60094   0.00000  Uiso   1.00
O1574  O     0.56970   0.80413   0.88401   0.00000  Uiso   1.00
C1575  C     0.62259   0.79455   0.90259   0.00000  Uiso   1.00
H1576  H     0.63297   0.76083   0.88883   0.00000  Uiso   1.00
H1577  H     0.63028   0.79472   0.94231   0.00000  Uiso   1.00
C1578  C     0.65793   0.83120   0.88641   0.00000  Uiso   1.00
H1579  H     0.65102   0.83221   0.84676   0.00000  Uiso   1.00
H1580  H     0.64785   0.86473   0.90070   0.00000  Uiso   1.00
C1581  C     0.38262   0.82266   0.90396   0.00000  Uiso   1.00
H1582  H     0.39023   0.81880   0.94331   0.00000  Uiso   1.00
H1583  H     0.40649   0.85184   0.89486   0.00000  Uiso   1.00
H1584  H     0.39460   0.79162   0.88621   0.00000  Uiso   1.00
O1585  O     0.59522   0.75706   0.54116   0.00000  Uiso   1.00
C1586  C     0.63502   0.78582   0.56714   0.00000  Uiso   1.00
H1587  H     0.33639   0.78369   0.54857   0.00000  Uiso   1.00
H1588  H     0.64888   0.77354   0.60350   0.00000  Uiso   1.00
C1589  C     0.61965   0.83593   0.56805   0.00000  Uiso   1.00
H1590  H     0.61157   0.84846   0.53104   0.00000  Uiso   1.00
H1591  H     0.58381   0.84009   0.58462   0.00000  Uiso   1.00
C1592  C     0.66399   0.86480   0.59662   0.00000  Uiso   1.00
H1593  H     0.33715   0.85500   0.63466   0.00000  Uiso   1.00
H1594  H     0.65348   0.90112   0.59458   0.00000  Uiso   1.00
H1595  H     0.36760   0.86013   0.58182   0.00000  Uiso   1.00
O1596  O     0.42433   0.69606   0.95594   0.00000  Uiso   1.00
C1597  C     0.44423   0.65443   0.97395   0.00000  Uiso   1.00
H1598  H     0.42304   0.64590   0.50373   0.00000  Uiso   1.00
H1599  H     0.48715   0.65582   0.98887   0.00000  Uiso   1.00
C1600  C     0.43245   0.61682   0.93556   0.00000  Uiso   1.00
H1601  H     0.39020   0.61705   0.91938   0.00000  Uiso   1.00
H1602  H     0.45604   0.62308   0.90697   0.00000  Uiso   1.00
C1603  C     0.44537   0.57025   0.95626   0.00000  Uiso   1.00
H1604  H     0.48693   0.56964   0.97445   0.00000  Uiso   1.00
H1605  H     0.43959   0.54410   0.92707   0.00000  Uiso   1.00
H1606  H     0.41898   0.56186   0.98230   0.00000  Uiso   1.00
C1607  C     0.83728   0.66344   0.75022   0.00000  Uiso   1.00
C1608  C     0.83478   0.83681   0.75063   0.00000  Uiso   1.00
C1609  C     0.78669   0.74711   0.54547   0.00000  Uiso   1.00
C1610  C     0.86628   0.77885   0.95274   0.00000  Uiso   1.00
C1611  C     0.78737   0.74328   0.59496   0.00000  Uiso   1.00
C1612  C     0.86894   0.77628   0.90355   0.00000  Uiso   1.00
C1613  C     0.87955   0.75563   0.60931   0.00000  Uiso   1.00
C1614  C     0.79795   0.72316   0.89147   0.00000  Uiso   1.00
C1615  C     0.88136   0.75608   0.55939   0.00000  Uiso   1.00
C1616  C     0.79702   0.72169   0.94087   0.00000  Uiso   1.00
C1617  C     0.83352   0.75124   0.52662   0.00000  Uiso   1.00
C1618  C     0.83210   0.75026   0.97293   0.00000  Uiso   1.00
C1619  C     0.73363   0.75016   0.73743   0.00000  Uiso   1.00
C1620  C     0.93307   0.75020   0.76262   0.00000  Uiso   1.00
C1621  C     0.67852   0.75093   0.73086   0.00000  Uiso   1.00
C1622  C     0.98826   0.75009   0.76938   0.00000  Uiso   1.00
C1623  C     0.86637   0.54650   0.79581   0.00000  Uiso   1.00
C1624  C     0.84884   0.95652   0.71244   0.00000  Uiso   1.00
C1625  C     0.85522   0.59216   0.79536   0.00000  Uiso   1.00
C1626  C     0.83464   0.91083   0.71076   0.00000  Uiso   1.00
C1627  C     0.85374   0.61599   0.75242   0.00000  Uiso   1.00
C1628  C     0.84655   0.88549   0.75255   0.00000  Uiso   1.00
C1629  C     0.87290   0.59496   0.71341   0.00000  Uiso   1.00
C1630  C     0.87581   0.90592   0.79431   0.00000  Uiso   1.00
C1631  C     0.89235   0.55099   0.71764   0.00000  Uiso   1.00
C1632  C     0.89682   0.94966   0.79280   0.00000  Uiso   1.00
C1633  C     0.88363   0.52542   0.75686   0.00000  Uiso   1.00
C1634  C     0.87986   0.97605   0.75302   0.00000  Uiso   1.00
H1635  H     0.99091   0.75228   0.69455   0.00000  Uiso   1.00
H1636  H     0.67594   0.74898   0.80579   0.00000  Uiso   1.00
H1637  H     0.85863   0.52717   0.82602   0.00000  Uiso   1.00
H1638  H     0.83324   0.97730   0.68275   0.00000  Uiso   1.00
H1639  H     0.74923   0.74629   0.52195   0.00000  Uiso   1.00
H1640  H     0.89012   0.80403   0.97482   0.00000  Uiso   1.00
H1641  H     0.91496   0.75859   0.63496   0.00000  Uiso   1.00
H1642  H     0.77000   0.70268   0.86701   0.00000  Uiso   1.00
N1643  N     0.83333   0.74999   0.62624   0.00000  Uiso   1.00
N1644  N     0.83333   0.75001   0.87377   0.00000  Uiso   1.00
O1645  O     0.83334   0.68454   0.78974   0.00000  Uiso   1.00
O1646  O     0.83333   0.81547   0.71026   0.00000  Uiso   1.00
O1647  O     0.83334   0.68453   0.71026   0.00000  Uiso   1.00
O1648  O     0.83333   0.81547   0.78974   0.00000  Uiso   1.00
O1649  O     0.75725   0.75000   0.78045   0.00000  Uiso   1.00
O1650  O     0.90942   0.75000   0.71956   0.00000  Uiso   1.00
O1651  O     0.75725   0.75000   0.70097   0.00000  Uiso   1.00
O1652  O     0.90942   0.75001   0.79904   0.00000  Uiso   1.00
Zn1653 Zn    0.83333   0.75001   0.80307   0.00000  Uiso   1.00
Zn1654 Zn    0.83333   0.75000   0.69693   0.00000  Uiso   1.00
O1655  O     0.84013   0.61159   0.83567   0.00000  Uiso   1.00
C1656  C     0.88533   0.62820   0.86703   0.00000  Uiso   1.00
H1657  H     0.87265   0.65700   0.88792   0.00000  Uiso   1.00
H1658  H     0.91647   0.64238   0.84801   0.00000  Uiso   1.00
C1659  C     0.90838   0.59173   0.90173   0.00000  Uiso   1.00
H1660  H     0.87612   0.57067   0.91209   0.00000  Uiso   1.00
H1661  H     0.93379   0.56922   0.88382   0.00000  Uiso   1.00
C1662  C     0.94107   0.61287   0.94679   0.00000  Uiso   1.00
H1663  H     0.97170   0.63635   0.93736   0.00000  Uiso   1.00
H1664  H     0.96059   0.58576   0.96937   0.00000  Uiso   1.00
H1665  H     0.91533   0.63199   0.96771   0.00000  Uiso   1.00
O1666  O     0.80359   0.89241   0.67015   0.00000  Uiso   1.00
C1667  C     0.83317   0.88837   0.63223   0.00000  Uiso   1.00
H1668  H     0.82822   0.85285   0.61816   0.00000  Uiso   1.00
H1669  H     0.87648   0.89458   0.64306   0.00000  Uiso   1.00
C1670  C     0.81184   0.92012   0.59193   0.00000  Uiso   1.00
H1671  H     0.76871   0.91461   0.58175   0.00000  Uiso   1.00
H1672  H     0.81907   0.95597   0.60413   0.00000  Uiso   1.00
C1673  C     0.83798   0.91208   0.54799   0.00000  Uiso   1.00
H1674  H     0.88103   0.91907   0.55688   0.00000  Uiso   1.00
H1675  H     0.82112   0.93529   0.51948   0.00000  Uiso   1.00
H1676  H     0.83093   0.87654   0.53436   0.00000  Uiso   1.00
O1677  O     0.87498   0.61759   0.67161   0.00000  Uiso   1.00
C1678  C     0.83181   0.60278   0.63707   0.00000  Uiso   1.00
H1679  H     0.79546   0.61971   0.64403   0.00000  Uiso   1.00
H1680  H     0.82469   0.56535   0.63669   0.00000  Uiso   1.00
C1681  C     0.84241   0.61493   0.58778   0.00000  Uiso   1.00
H1682  H     0.87818   0.59768   0.58005   0.00000  Uiso   1.00
H1683  H     0.80861   0.60314   0.56083   0.00000  Uiso   1.00
H1684  H     0.84790   0.65219   0.58547   0.00000  Uiso   1.00
O1685  O     0.88456   0.88360   0.83703   0.00000  Uiso   1.00
C1686  C     0.84608   0.89645   0.86512   0.00000  Uiso   1.00
H1687  H     0.81958   0.86682   0.86725   0.00000  Uiso   1.00
H1688  H     0.82075   0.92516   0.85095   0.00000  Uiso   1.00
C1689  C     0.87272   0.90983   0.91547   0.00000  Uiso   1.00
H1690  H     0.84233   0.91857   0.93759   0.00000  Uiso   1.00
H1691  H     0.89608   0.88144   0.93220   0.00000  Uiso   1.00
H1692  H     0.89913   0.93979   0.91456   0.00000  Uiso   1.00
O1693  O     0.91175   0.53117   0.67956   0.00000  Uiso   1.00
C1694  C     0.96664   0.52645   0.69226   0.00000  Uiso   1.00
H1695  H     0.97652   0.50540   0.72440   0.00000  Uiso   1.00
H1696  H     0.98656   0.56030   0.69921   0.00000  Uiso   1.00
C1697  C     0.98775   0.50287   0.65131   0.00000  Uiso   1.00
H1698  H     0.97867   0.52283   0.61838   0.00000  Uiso   1.00
H1699  H     0.69776   0.99945   0.66051   0.00000  Uiso   1.00
H1700  H     0.96924   0.96858   0.64457   0.00000  Uiso   1.00
O1701  O     0.92807   0.96853   0.83288   0.00000  Uiso   1.00
C1702  C     0.98072   0.95638   0.83207   0.00000  Uiso   1.00
H1703  H     0.99542   0.97169   0.80113   0.00000  Uiso   1.00
H1704  H     0.98475   0.91887   0.83012   0.00000  Uiso   1.00
C1705  C     0.68172   0.97412   0.87762   0.00000  Uiso   1.00
H1706  H     0.66836   0.95899   0.90921   0.00000  Uiso   1.00
H1707  H     0.72333   0.96488   0.87731   0.00000  Uiso   1.00
H1708  H     0.67931   0.51163   0.88033   0.00000  Uiso   1.00
O1709  O     0.74140   0.73351   0.61239   0.00000  Uiso   1.00
C1710  C     0.71815   0.69239   0.59166   0.00000  Uiso   1.00
H1711  H     0.74821   0.66709   0.58573   0.00000  Uiso   1.00
H1712  H     0.69312   0.69913   0.55688   0.00000  Uiso   1.00
C1713  C     0.68355   0.67165   0.62484   0.00000  Uiso   1.00
H1714  H     0.70766   0.66617   0.66036   0.00000  Uiso   1.00
H1715  H     0.98478   0.69516   0.62952   0.00000  Uiso   1.00
C1716  C     0.99256   0.62643   0.60462   0.00000  Uiso   1.00
H1717  H     0.96805   0.63112   0.56915   0.00000  Uiso   1.00
H1718  H     0.96725   0.61256   0.62920   0.00000  Uiso   1.00
H1719  H     0.69054   0.60173   0.60094   0.00000  Uiso   1.00
O1720  O     0.90303   0.80413   0.88401   0.00000  Uiso   1.00
C1721  C     0.95592   0.79455   0.90259   0.00000  Uiso   1.00
H1722  H     0.96630   0.76083   0.88883   0.00000  Uiso   1.00
H1723  H     0.96362   0.79472   0.94231   0.00000  Uiso   1.00
C1724  C     0.99126   0.83120   0.88641   0.00000  Uiso   1.00
H1725  H     0.98436   0.83221   0.84676   0.00000  Uiso   1.00
H1726  H     0.98118   0.86473   0.90070   0.00000  Uiso   1.00
C1727  C     0.71596   0.82266   0.90396   0.00000  Uiso   1.00
H1728  H     0.72356   0.81880   0.94331   0.00000  Uiso   1.00
H1729  H     0.73983   0.85184   0.89486   0.00000  Uiso   1.00
H1730  H     0.72793   0.79162   0.88621   0.00000  Uiso   1.00
O1731  O     0.92856   0.75706   0.54116   0.00000  Uiso   1.00
C1732  C     0.96835   0.78582   0.56714   0.00000  Uiso   1.00
H1733  H     0.66972   0.78369   0.54857   0.00000  Uiso   1.00
H1734  H     0.98221   0.77354   0.60350   0.00000  Uiso   1.00
C1735  C     0.95298   0.83593   0.56805   0.00000  Uiso   1.00
H1736  H     0.94491   0.84846   0.53104   0.00000  Uiso   1.00
H1737  H     0.91714   0.84009   0.58462   0.00000  Uiso   1.00
C1738  C     0.99732   0.86480   0.59662   0.00000  Uiso   1.00
H1739  H     0.67048   0.85500   0.63466   0.00000  Uiso   1.00
H1740  H     0.98681   0.90112   0.59458   0.00000  Uiso   1.00
H1741  H     0.70094   0.86013   0.58182   0.00000  Uiso   1.00
O1742  O     0.75767   0.69606   0.95594   0.00000  Uiso   1.00
C1743  C     0.77757   0.65443   0.97395   0.00000  Uiso   1.00
H1744  H     0.75637   0.64590   0.50373   0.00000  Uiso   1.00
H1745  H     0.82049   0.65582   0.98887   0.00000  Uiso   1.00
C1746  C     0.76578   0.61682   0.93556   0.00000  Uiso   1.00
H1747  H     0.72353   0.61705   0.91938   0.00000  Uiso   1.00
H1748  H     0.78937   0.62308   0.90697   0.00000  Uiso   1.00
C1749  C     0.77870   0.57025   0.95626   0.00000  Uiso   1.00
H1750  H     0.82026   0.56964   0.97445   0.00000  Uiso   1.00
H1751  H     0.77292   0.54410   0.92707   0.00000  Uiso   1.00
H1752  H     0.75232   0.56186   0.98230   0.00000  Uiso   1.00
loop_
_geom_bond_atom_site_label_1
_geom_bond_atom_site_label_2
_geom_bond_distance
_geom_bond_site_symmetry_2
_ccdc_geom_bond_type
C1     C21     1.469   .     S
C1     O41     1.296   .     A
C1     O39     1.290   .     A
C2     C22     1.461   .     S
C2     O40     1.291   .     A
C2     O42     1.294   .     A
C3     H33     1.080   .     S
C3     C5      1.409   .     A
C3     C11     1.400   .     A
C4     H34     1.078   .     S
C4     C6      1.410   .     A
C4     C12     1.405   .     A
C5     O103    1.383   .     S
C5     N37     1.368   .     A
C6     O114    1.381   .     S
C6     N38     1.361   .     A
C7     N37     1.362   .     A
C7     H35     1.072   .     S
C7     C9      1.426   .     A
C8     H36     1.082   .     S
C8     N38     1.361   .     A
C8     C10     1.408   .     A
C9     O125    1.396   .     S
C9     C11     1.421   .     A
C10    C12     1.425   .     A
C10    O136    1.382   .     S
C11    C888    1.518   1_554 S
C12    C887    1.518   .     S
C13    C15     1.401   .     S
C13    O43     1.273   .     A
C13    O45     1.283   .     A
C14    O46     1.282   .     A
C14    C16     1.403   .     S
C14    O44     1.274   .     A
C15    C308    1.334   1_455 S
C15    H321    1.085   1_455 S
C16    C161    1.334   .     S
C16    H176    1.088   .     S
C17    C27     1.395   .     A
C17    H31     1.083   .     S
C17    C19     1.382   .     A
C18    C20     1.388   .     A
C18    C28     1.398   .     A
C18    H32     1.081   .     S
C19    C21     1.416   .     A
C19    O49     1.383   .     S
C20    O60     1.387   .     S
C20    C22     1.410   .     A
C21    C23     1.418   .     A
C22    C24     1.415   .     A
C23    O71     1.382   .     S
C23    C25     1.398   .     A
C24    O79     1.381   .     S
C24    C26     1.395   .     A
C25    O87     1.384   .     S
C25    C27     1.404   .     A
C26    O95     1.383   .     S
C26    C28     1.400   .     A
C27    C466    1.459   1_545 S
C28    C465    1.459   .     S
H29    C161    1.085   .     S
H30    C308    1.088   1_455 S
N37    Zn48    2.007   .     S
N38    Zn47    2.007   .     S
O39    Zn47    1.960   .     S
O40    Zn48    1.960   .     S
O41    Zn48    1.976   .     S
O42    Zn47    1.976   .     S
O43    Zn47    1.960   .     S
O44    Zn48    1.960   .     S
O45    Zn48    1.980   .     S
O46    Zn47    1.980   .     S
O49    C50     1.419   .     S
C50    H52     1.117   .     S
C50    C53     1.535   .     S
C50    H51     1.109   .     S
C53    H54     1.110   .     S
C53    H55     1.111   .     S
C53    C56     1.528   .     S
C56    H57     1.110   .     S
C56    H59     1.111   .     S
C56    H58     1.110   .     S
O60    C61     1.420   .     S
C61    H63     1.118   .     S
C61    C64     1.532   .     S
C61    H62     1.111   .     S
C64    C67     1.526   .     S
C64    H66     1.109   .     S
C64    H65     1.109   .     S
C67    H68     1.111   .     S
C67    H69     1.110   .     S
C67    H70     1.112   .     S
O71    C72     1.414   .     S
C72    C75     1.518   .     S
C72    H74     1.116   .     S
C72    H73     1.111   .     S
C75    H76     1.109   .     S
C75    H77     1.108   .     S
C75    H78     1.110   .     S
O79    C80     1.420   .     S
C80    C83     1.523   .     S
C80    H81     1.109   .     S
C80    H82     1.119   .     S
C83    H84     1.110   .     S
C83    H85     1.109   .     S
C83    H86     1.110   .     S
O87    C88     1.411   .     S
C88    C91     1.521   .     S
C88    H90     1.114   .     S
C88    H89     1.112   .     S
C91    H92     1.110   .     S
C91    H677    1.111   1_545 S
C91    H532    1.110   1_545 S
H93    C821    1.111   1_455 S
H94    C529    1.110   .     S
O95    C96     1.411   .     S
C96    H98     1.114   .     S
C96    H97     1.113   .     S
C96    C245    1.521   .     S
C99    H100    1.111   .     S
C99    H101    1.111   .     S
C99    C388    1.521   1_455 S
C99    H540    1.111   .     S
H102   C537    1.111   1_545 S
O103   C104    1.417   .     S
C104   H106    1.112   .     S
C104   H105    1.113   .     S
C104   C107    1.527   .     S
C107   H108    1.112   .     S
C107   H401    1.110   1_455 S
C107   C402    1.525   1_455 S
H109   C253    1.110   .     S
C110   H111    1.111   .     S
C110   H112    1.109   .     S
C110   C253    1.525   .     S
C110   H259    1.111   .     S
H113   C402    1.111   1_455 S
O114   C115    1.414   .     S
C115   H117    1.113   .     S
C115   C118    1.527   .     S
C115   H116    1.113   .     S
C118   H119    1.112   .     S
C118   H120    1.111   .     S
C118   C267    1.523   .     S
C121   H124    1.108   .     S
C121   H122    1.111   .     S
C121   H123    1.108   .     S
C121   C410    1.523   1_455 S
O125   C126    1.419   .     S
C126   C129    1.537   .     S
C126   H128    1.107   .     S
C126   H273    1.110   .     S
H127   C418    1.110   1_455 S
C129   C132    1.525   .     S
C129   H130    1.110   .     S
C129   H131    1.109   .     S
C132   H134    1.110   .     S
C132   H279    1.111   .     S
C132   H281    1.110   .     S
H133   C424    1.111   1_455 S
H135   C424    1.110   1_455 S
O136   C137    1.412   .     S
C137   H139    1.117   .     S
C137   C140    1.530   .     S
C137   H1014   1.109   .     S
H138   C1013   1.109   1_554 S
C140   C143    1.526   .     S
C140   H142    1.106   .     S
C140   H141    1.110   .     S
C143   H146    1.111   .     S
C143   H145    1.110   .     S
C143   H144    1.111   .     S
C147   C167    1.469   .     S
C147   O187    1.296   .     A
C147   O185    1.290   .     A
C148   C168    1.461   .     S
C148   O186    1.291   .     A
C148   O188    1.294   .     A
C149   H179    1.080   .     S
C149   C151    1.409   .     A
C149   C157    1.400   .     A
C150   H180    1.078   .     S
C150   C152    1.410   .     A
C150   C158    1.405   .     A
C151   O249    1.383   .     S
C151   N183    1.368   .     A
C152   O260    1.381   .     S
C152   N184    1.361   .     A
C153   N183    1.362   .     A
C153   H181    1.072   .     S
C153   C155    1.426   .     A
C154   H182    1.082   .     S
C154   N184    1.361   .     A
C154   C156    1.408   .     A
C155   O271    1.396   .     S
C155   C157    1.421   .     A
C156   C158    1.425   .     A
C156   O282    1.382   .     S
C157   C1034   1.518   1_554 S
C158   C1033   1.518   .     S
C159   C161    1.401   .     S
C159   O189    1.273   .     A
C159   O191    1.283   .     A
C160   O192    1.282   .     A
C160   C162    1.403   .     S
C160   O190    1.274   .     A
C162   C307    1.334   .     S
C162   H322    1.088   .     S
C163   C173    1.395   .     A
C163   H177    1.083   .     S
C163   C165    1.382   .     A
C164   C166    1.388   .     A
C164   C174    1.398   .     A
C164   H178    1.081   .     S
C165   C167    1.416   .     A
C165   O195    1.383   .     S
C166   O206    1.387   .     S
C166   C168    1.410   .     A
C167   C169    1.418   .     A
C168   C170    1.415   .     A
C169   O217    1.382   .     S
C169   C171    1.398   .     A
C170   O225    1.381   .     S
C170   C172    1.395   .     A
C171   O233    1.384   .     S
C171   C173    1.404   .     A
C172   O241    1.383   .     S
C172   C174    1.400   .     A
C173   C612    1.459   1_545 S
C174   C611    1.459   .     S
H175   C307    1.085   .     S
N183   Zn194   2.007   .     S
N184   Zn193   2.007   .     S
O185   Zn193   1.960   .     S
O186   Zn194   1.960   .     S
O187   Zn194   1.976   .     S
O188   Zn193   1.976   .     S
O189   Zn193   1.960   .     S
O190   Zn194   1.960   .     S
O191   Zn194   1.980   .     S
O192   Zn193   1.980   .     S
O195   C196    1.419   .     S
C196   H198    1.117   .     S
C196   C199    1.535   .     S
C196   H197    1.109   .     S
C199   H200    1.110   .     S
C199   H201    1.111   .     S
C199   C202    1.528   .     S
C202   H203    1.110   .     S
C202   H205    1.111   .     S
C202   H204    1.110   .     S
O206   C207    1.420   .     S
C207   H209    1.118   .     S
C207   C210    1.532   .     S
C207   H208    1.111   .     S
C210   C213    1.526   .     S
C210   H212    1.109   .     S
C210   H211    1.109   .     S
C213   H214    1.111   .     S
C213   H215    1.110   .     S
C213   H216    1.112   .     S
O217   C218    1.414   .     S
C218   C221    1.518   .     S
C218   H220    1.116   .     S
C218   H219    1.111   .     S
C221   H222    1.109   .     S
C221   H223    1.108   .     S
C221   H224    1.110   .     S
O225   C226    1.420   .     S
C226   C229    1.523   .     S
C226   H227    1.109   .     S
C226   H228    1.119   .     S
C229   H230    1.110   .     S
C229   H231    1.109   .     S
C229   H232    1.110   .     S
O233   C234    1.411   .     S
C234   C237    1.521   .     S
C234   H236    1.114   .     S
C234   H235    1.112   .     S
C237   H238    1.110   .     S
C237   H823    1.111   1_545 S
C237   H678    1.110   1_545 S
H239   C529    1.111   .     S
H240   C675    1.110   .     S
O241   C242    1.411   .     S
C242   H244    1.114   .     S
C242   H243    1.113   .     S
C242   C391    1.521   .     S
C245   H246    1.111   .     S
C245   H247    1.111   .     S
C245   H686    1.111   .     S
H248   C683    1.111   1_545 S
O249   C250    1.417   .     S
C250   H252    1.112   .     S
C250   H251    1.113   .     S
C250   C253    1.527   .     S
C253   H254    1.112   .     S
H255   C399    1.110   .     S
C256   H257    1.111   .     S
C256   H258    1.109   .     S
C256   C399    1.525   .     S
C256   H405    1.111   .     S
O260   C261    1.414   .     S
C261   H263    1.113   .     S
C261   C264    1.527   .     S
C261   H262    1.113   .     S
C264   H265    1.112   .     S
C264   H266    1.111   .     S
C264   C413    1.523   .     S
C267   H270    1.108   .     S
C267   H268    1.111   .     S
C267   H269    1.108   .     S
O271   C272    1.419   .     S
C272   C275    1.537   .     S
C272   H274    1.107   .     S
C272   H419    1.110   .     S
C275   C278    1.525   .     S
C275   H276    1.110   .     S
C275   H277    1.109   .     S
C278   H280    1.110   .     S
C278   H425    1.111   .     S
C278   H427    1.110   .     S
O282   C283    1.412   .     S
C283   H285    1.117   .     S
C283   C286    1.530   .     S
C283   H1160   1.109   .     S
H284   C1159   1.109   1_554 S
C286   C289    1.526   .     S
C286   H288    1.106   .     S
C286   H287    1.110   .     S
C289   H292    1.111   .     S
C289   H291    1.110   .     S
C289   H290    1.111   .     S
C293   C313    1.469   .     S
C293   O333    1.296   .     A
C293   O331    1.290   .     A
C294   C314    1.461   .     S
C294   O332    1.291   .     A
C294   O334    1.294   .     A
C295   H325    1.080   .     S
C295   C297    1.409   .     A
C295   C303    1.400   .     A
C296   H326    1.078   .     S
C296   C298    1.410   .     A
C296   C304    1.405   .     A
C297   O395    1.383   .     S
C297   N329    1.368   .     A
C298   O406    1.381   .     S
C298   N330    1.361   .     A
C299   N329    1.362   .     A
C299   H327    1.072   .     S
C299   C301    1.426   .     A
C300   H328    1.082   .     S
C300   N330    1.361   .     A
C300   C302    1.408   .     A
C301   O417    1.396   .     S
C301   C303    1.421   .     A
C302   C304    1.425   .     A
C302   O428    1.382   .     S
C303   C1180   1.518   1_554 S
C304   C1179   1.518   .     S
C305   C307    1.401   .     S
C305   O335    1.273   .     A
C305   O337    1.283   .     A
C306   O338    1.282   .     A
C306   C308    1.403   .     S
C306   O336    1.274   .     A
C308   C15     1.334   1_655 S
C308   H30     1.088   1_655 S
C309   C319    1.395   .     A
C309   H323    1.083   .     S
C309   C311    1.382   .     A
C310   C312    1.388   .     A
C310   C320    1.398   .     A
C310   H324    1.081   .     S
C311   C313    1.416   .     A
C311   O341    1.383   .     S
C312   O352    1.387   .     S
C312   C314    1.410   .     A
C313   C315    1.418   .     A
C314   C316    1.415   .     A
C315   O363    1.382   .     S
C315   C317    1.398   .     A
C316   O371    1.381   .     S
C316   C318    1.395   .     A
C317   O379    1.384   .     S
C317   C319    1.404   .     A
C318   O387    1.383   .     S
C318   C320    1.400   .     A
C319   C758    1.459   1_545 S
C320   C757    1.459   .     S
H321   C15     1.085   1_655 S
N329   Zn340   2.007   .     S
N330   Zn339   2.007   .     S
O331   Zn339   1.960   .     S
O332   Zn340   1.960   .     S
O333   Zn340   1.976   .     S
O334   Zn339   1.976   .     S
O335   Zn339   1.960   .     S
O336   Zn340   1.960   .     S
O337   Zn340   1.980   .     S
O338   Zn339   1.980   .     S
O341   C342    1.419   .     S
C342   H344    1.117   .     S
C342   C345    1.535   .     S
C342   H343    1.109   .     S
C345   H346    1.110   .     S
C345   H347    1.111   .     S
C345   C348    1.528   .     S
C348   H349    1.110   .     S
C348   H351    1.111   .     S
C348   H350    1.110   .     S
O352   C353    1.420   .     S
C353   H355    1.118   .     S
C353   C356    1.532   .     S
C353   H354    1.111   .     S
C356   C359    1.526   .     S
C356   H358    1.109   .     S
C356   H357    1.109   .     S
C359   H360    1.111   .     S
C359   H361    1.110   .     S
C359   H362    1.112   .     S
O363   C364    1.414   .     S
C364   C367    1.518   .     S
C364   H366    1.116   .     S
C364   H365    1.111   .     S
C367   H368    1.109   .     S
C367   H369    1.108   .     S
C367   H370    1.110   .     S
O371   C372    1.420   .     S
C372   C375    1.523   .     S
C372   H373    1.109   .     S
C372   H374    1.119   .     S
C375   H376    1.110   .     S
C375   H377    1.109   .     S
C375   H378    1.110   .     S
O379   C380    1.411   .     S
C380   C383    1.521   .     S
C380   H382    1.114   .     S
C380   H381    1.112   .     S
C383   H384    1.110   .     S
C383   H531    1.111   1_645 S
C383   H824    1.110   1_545 S
H385   C675    1.111   .     S
H386   C821    1.110   .     S
O387   C388    1.411   .     S
C388   H390    1.114   .     S
C388   H389    1.113   .     S
C388   C99     1.521   1_655 S
C391   H392    1.111   .     S
C391   H393    1.111   .     S
C391   H832    1.111   .     S
H394   C829    1.111   1_545 S
O395   C396    1.417   .     S
C396   H398    1.112   .     S
C396   H397    1.113   .     S
C396   C399    1.527   .     S
C399   H400    1.112   .     S
H401   C107    1.110   1_655 S
C402   H403    1.111   .     S
C402   H404    1.109   .     S
C402   C107    1.525   1_655 S
C402   H113    1.111   1_655 S
O406   C407    1.414   .     S
C407   H409    1.113   .     S
C407   C410    1.527   .     S
C407   H408    1.113   .     S
C410   H411    1.112   .     S
C410   H412    1.111   .     S
C410   C121    1.523   1_655 S
C413   H416    1.108   .     S
C413   H414    1.111   .     S
C413   H415    1.108   .     S
O417   C418    1.419   .     S
C418   C421    1.537   .     S
C418   H420    1.107   .     S
C418   H127    1.110   1_655 S
C421   C424    1.525   .     S
C421   H422    1.110   .     S
C421   H423    1.109   .     S
C424   H426    1.110   .     S
C424   H133    1.111   1_655 S
C424   H135    1.110   1_655 S
O428   C429    1.412   .     S
C429   H431    1.117   .     S
C429   C432    1.530   .     S
C429   H1306   1.109   .     S
H430   C1305   1.109   1_554 S
C432   C435    1.526   .     S
C432   H434    1.106   .     S
C432   H433    1.110   .     S
C435   H438    1.111   .     S
C435   H437    1.110   .     S
C435   H436    1.111   .     S
C439   C459    1.469   .     S
C439   O479    1.296   .     A
C439   O477    1.290   .     A
C440   C460    1.461   .     S
C440   O478    1.291   .     A
C440   O480    1.294   .     A
C441   H471    1.080   .     S
C441   C443    1.409   .     A
C441   C449    1.400   .     A
C442   H472    1.078   .     S
C442   C444    1.410   .     A
C442   C450    1.405   .     A
C443   O541    1.383   .     S
C443   N475    1.368   .     A
C444   O552    1.381   .     S
C444   N476    1.361   .     A
C445   N475    1.362   .     A
C445   H473    1.072   .     S
C445   C447    1.426   .     A
C446   H474    1.082   .     S
C446   N476    1.361   .     A
C446   C448    1.408   .     A
C447   O563    1.396   .     S
C447   C449    1.421   .     A
C448   C450    1.425   .     A
C448   O574    1.382   .     S
C449   C1326   1.518   1_554 S
C450   C1325   1.518   .     S
C451   C453    1.401   .     S
C451   O481    1.273   .     A
C451   O483    1.283   .     A
C452   O484    1.282   .     A
C452   C454    1.403   .     S
C452   O482    1.274   .     A
C453   C746    1.334   1_455 S
C453   H759    1.085   1_455 S
C454   C599    1.334   .     S
C454   H614    1.088   .     S
C455   C465    1.395   .     A
C455   H469    1.083   .     S
C455   C457    1.382   .     A
C456   C458    1.388   .     A
C456   C466    1.398   .     A
C456   H470    1.081   .     S
C457   C459    1.416   .     A
C457   O487    1.383   .     S
C458   O498    1.387   .     S
C458   C460    1.410   .     A
C459   C461    1.418   .     A
C460   C462    1.415   .     A
C461   O509    1.382   .     S
C461   C463    1.398   .     A
C462   O517    1.381   .     S
C462   C464    1.395   .     A
C463   O525    1.384   .     S
C463   C465    1.404   .     A
C464   O533    1.383   .     S
C464   C466    1.400   .     A
C466   C27     1.459   1_565 S
H467   C599    1.085   .     S
H468   C746    1.088   1_455 S
N475   Zn486   2.007   .     S
N476   Zn485   2.007   .     S
O477   Zn485   1.960   .     S
O478   Zn486   1.960   .     S
O479   Zn486   1.976   .     S
O480   Zn485   1.976   .     S
O481   Zn485   1.960   .     S
O482   Zn486   1.960   .     S
O483   Zn486   1.980   .     S
O484   Zn485   1.980   .     S
O487   C488    1.419   .     S
C488   H490    1.117   .     S
C488   C491    1.535   .     S
C488   H489    1.109   .     S
C491   H492    1.110   .     S
C491   H493    1.111   .     S
C491   C494    1.528   .     S
C494   H495    1.110   .     S
C494   H497    1.111   .     S
C494   H496    1.110   .     S
O498   C499    1.420   .     S
C499   H501    1.118   .     S
C499   C502    1.532   .     S
C499   H500    1.111   .     S
C502   C505    1.526   .     S
C502   H504    1.109   .     S
C502   H503    1.109   .     S
C505   H506    1.111   .     S
C505   H507    1.110   .     S
C505   H508    1.112   .     S
O509   C510    1.414   .     S
C510   C513    1.518   .     S
C510   H512    1.116   .     S
C510   H511    1.111   .     S
C513   H514    1.109   .     S
C513   H515    1.108   .     S
C513   H516    1.110   .     S
O517   C518    1.420   .     S
C518   C521    1.523   .     S
C518   H519    1.109   .     S
C518   H520    1.119   .     S
C521   H522    1.110   .     S
C521   H523    1.109   .     S
C521   H524    1.110   .     S
O525   C526    1.411   .     S
C526   C529    1.521   .     S
C526   H528    1.114   .     S
C526   H527    1.112   .     S
C529   H530    1.110   .     S
H531   C383    1.111   1_465 S
H532   C91     1.110   1_565 S
O533   C534    1.411   .     S
C534   H536    1.114   .     S
C534   H535    1.113   .     S
C534   C683    1.521   .     S
C537   H538    1.111   .     S
C537   H539    1.111   .     S
C537   C826    1.521   1_455 S
C537   H102    1.111   1_565 S
O541   C542    1.417   .     S
C542   H544    1.112   .     S
C542   H543    1.113   .     S
C542   C545    1.527   .     S
C545   H546    1.112   .     S
C545   H839    1.110   1_455 S
C545   C840    1.525   1_455 S
H547   C691    1.110   .     S
C548   H549    1.111   .     S
C548   H550    1.109   .     S
C548   C691    1.525   .     S
C548   H697    1.111   .     S
H551   C840    1.111   1_455 S
O552   C553    1.414   .     S
C553   H555    1.113   .     S
C553   C556    1.527   .     S
C553   H554    1.113   .     S
C556   H557    1.112   .     S
C556   H558    1.111   .     S
C556   C705    1.523   .     S
C559   H562    1.108   .     S
C559   H560    1.111   .     S
C559   H561    1.108   .     S
C559   C848    1.523   1_455 S
O563   C564    1.419   .     S
C564   C567    1.537   .     S
C564   H566    1.107   .     S
C564   H711    1.110   .     S
H565   C856    1.110   1_455 S
C567   C570    1.525   .     S
C567   H568    1.110   .     S
C567   H569    1.109   .     S
C570   H572    1.110   .     S
C570   H717    1.111   .     S
C570   H719    1.110   .     S
H571   C862    1.111   1_455 S
H573   C862    1.110   1_455 S
O574   C575    1.412   .     S
C575   H577    1.117   .     S
C575   C578    1.530   .     S
C575   H1452   1.109   .     S
H576   C1451   1.109   1_554 S
C578   C581    1.526   .     S
C578   H580    1.106   .     S
C578   H579    1.110   .     S
C581   H584    1.111   .     S
C581   H583    1.110   .     S
C581   H582    1.111   .     S
C585   C605    1.469   .     S
C585   O625    1.296   .     A
C585   O623    1.290   .     A
C586   C606    1.461   .     S
C586   O624    1.291   .     A
C586   O626    1.294   .     A
C587   H617    1.080   .     S
C587   C589    1.409   .     A
C587   C595    1.400   .     A
C588   H618    1.078   .     S
C588   C590    1.410   .     A
C588   C596    1.405   .     A
C589   O687    1.383   .     S
C589   N621    1.368   .     A
C590   O698    1.381   .     S
C590   N622    1.361   .     A
C591   N621    1.362   .     A
C591   H619    1.072   .     S
C591   C593    1.426   .     A
C592   H620    1.082   .     S
C592   N622    1.361   .     A
C592   C594    1.408   .     A
C593   O709    1.396   .     S
C593   C595    1.421   .     A
C594   C596    1.425   .     A
C594   O720    1.382   .     S
C595   C1472   1.518   1_554 S
C596   C1471   1.518   .     S
C597   C599    1.401   .     S
C597   O627    1.273   .     A
C597   O629    1.283   .     A
C598   O630    1.282   .     A
C598   C600    1.403   .     S
C598   O628    1.274   .     A
C600   C745    1.334   .     S
C600   H760    1.088   .     S
C601   C611    1.395   .     A
C601   H615    1.083   .     S
C601   C603    1.382   .     A
C602   C604    1.388   .     A
C602   C612    1.398   .     A
C602   H616    1.081   .     S
C603   C605    1.416   .     A
C603   O633    1.383   .     S
C604   O644    1.387   .     S
C604   C606    1.410   .     A
C605   C607    1.418   .     A
C606   C608    1.415   .     A
C607   O655    1.382   .     S
C607   C609    1.398   .     A
C608   O663    1.381   .     S
C608   C610    1.395   .     A
C609   O671    1.384   .     S
C609   C611    1.404   .     A
C610   O679    1.383   .     S
C610   C612    1.400   .     A
C612   C173    1.459   1_565 S
H613   C745    1.085   .     S
N621   Zn632   2.007   .     S
N622   Zn631   2.007   .     S
O623   Zn631   1.960   .     S
O624   Zn632   1.960   .     S
O625   Zn632   1.976   .     S
O626   Zn631   1.976   .     S
O627   Zn631   1.960   .     S
O628   Zn632   1.960   .     S
O629   Zn632   1.980   .     S
O630   Zn631   1.980   .     S
O633   C634    1.419   .     S
C634   H636    1.117   .     S
C634   C637    1.535   .     S
C634   H635    1.109   .     S
C637   H638    1.110   .     S
C637   H639    1.111   .     S
C637   C640    1.528   .     S
C640   H641    1.110   .     S
C640   H643    1.111   .     S
C640   H642    1.110   .     S
O644   C645    1.420   .     S
C645   H647    1.118   .     S
C645   C648    1.532   .     S
C645   H646    1.111   .     S
C648   C651    1.526   .     S
C648   H650    1.109   .     S
C648   H649    1.109   .     S
C651   H652    1.111   .     S
C651   H653    1.110   .     S
C651   H654    1.112   .     S
O655   C656    1.414   .     S
C656   C659    1.518   .     S
C656   H658    1.116   .     S
C656   H657    1.111   .     S
C659   H660    1.109   .     S
C659   H661    1.108   .     S
C659   H662    1.110   .     S
O663   C664    1.420   .     S
C664   C667    1.523   .     S
C664   H665    1.109   .     S
C664   H666    1.119   .     S
C667   H668    1.110   .     S
C667   H669    1.109   .     S
C667   H670    1.110   .     S
O671   C672    1.411   .     S
C672   C675    1.521   .     S
C672   H674    1.114   .     S
C672   H673    1.112   .     S
C675   H676    1.110   .     S
H677   C91     1.111   1_565 S
H678   C237    1.110   1_565 S
O679   C680    1.411   .     S
C680   H682    1.114   .     S
C680   H681    1.113   .     S
C680   C829    1.521   .     S
C683   H684    1.111   .     S
C683   H685    1.111   .     S
C683   H248    1.111   1_565 S
O687   C688    1.417   .     S
C688   H690    1.112   .     S
C688   H689    1.113   .     S
C688   C691    1.527   .     S
C691   H692    1.112   .     S
H693   C837    1.110   .     S
C694   H695    1.111   .     S
C694   H696    1.109   .     S
C694   C837    1.525   .     S
C694   H843    1.111   .     S
O698   C699    1.414   .     S
C699   H701    1.113   .     S
C699   C702    1.527   .     S
C699   H700    1.113   .     S
C702   H703    1.112   .     S
C702   H704    1.111   .     S
C702   C851    1.523   .     S
C705   H708    1.108   .     S
C705   H706    1.111   .     S
C705   H707    1.108   .     S
O709   C710    1.419   .     S
C710   C713    1.537   .     S
C710   H712    1.107   .     S
C710   H857    1.110   .     S
C713   C716    1.525   .     S
C713   H714    1.110   .     S
C713   H715    1.109   .     S
C716   H718    1.110   .     S
C716   H863    1.111   .     S
C716   H865    1.110   .     S
O720   C721    1.412   .     S
C721   H723    1.117   .     S
C721   C724    1.530   .     S
C721   H1598   1.109   .     S
H722   C1597   1.109   1_554 S
C724   C727    1.526   .     S
C724   H726    1.106   .     S
C724   H725    1.110   .     S
C727   H730    1.111   .     S
C727   H729    1.110   .     S
C727   H728    1.111   .     S
C731   C751    1.469   .     S
C731   O771    1.296   .     A
C731   O769    1.290   .     A
C732   C752    1.461   .     S
C732   O770    1.291   .     A
C732   O772    1.294   .     A
C733   H763    1.080   .     S
C733   C735    1.409   .     A
C733   C741    1.400   .     A
C734   H764    1.078   .     S
C734   C736    1.410   .     A
C734   C742    1.405   .     A
C735   O833    1.383   .     S
C735   N767    1.368   .     A
C736   O844    1.381   .     S
C736   N768    1.361   .     A
C737   N767    1.362   .     A
C737   H765    1.072   .     S
C737   C739    1.426   .     A
C738   H766    1.082   .     S
C738   N768    1.361   .     A
C738   C740    1.408   .     A
C739   O855    1.396   .     S
C739   C741    1.421   .     A
C740   C742    1.425   .     A
C740   O866    1.382   .     S
C741   C1618   1.518   1_554 S
C742   C1617   1.518   .     S
C743   C745    1.401   .     S
C743   O773    1.273   .     A
C743   O775    1.283   .     A
C744   O776    1.282   .     A
C744   C746    1.403   .     S
C744   O774    1.274   .     A
C746   C453    1.334   1_655 S
C746   H468    1.088   1_655 S
C747   C757    1.395   .     A
C747   H761    1.083   .     S
C747   C749    1.382   .     A
C748   C750    1.388   .     A
C748   C758    1.398   .     A
C748   H762    1.081   .     S
C749   C751    1.416   .     A
C749   O779    1.383   .     S
C750   O790    1.387   .     S
C750   C752    1.410   .     A
C751   C753    1.418   .     A
C752   C754    1.415   .     A
C753   O801    1.382   .     S
C753   C755    1.398   .     A
C754   O809    1.381   .     S
C754   C756    1.395   .     A
C755   O817    1.384   .     S
C755   C757    1.404   .     A
C756   O825    1.383   .     S
C756   C758    1.400   .     A
C758   C319    1.459   1_565 S
H759   C453    1.085   1_655 S
N767   Zn778   2.007   .     S
N768   Zn777   2.007   .     S
O769   Zn777   1.960   .     S
O770   Zn778   1.960   .     S
O771   Zn778   1.976   .     S
O772   Zn777   1.976   .     S
O773   Zn777   1.960   .     S
O774   Zn778   1.960   .     S
O775   Zn778   1.980   .     S
O776   Zn777   1.980   .     S
O779   C780    1.419   .     S
C780   H782    1.117   .     S
C780   C783    1.535   .     S
C780   H781    1.109   .     S
C783   H784    1.110   .     S
C783   H785    1.111   .     S
C783   C786    1.528   .     S
C786   H787    1.110   .     S
C786   H789    1.111   .     S
C786   H788    1.110   .     S
O790   C791    1.420   .     S
C791   H793    1.118   .     S
C791   C794    1.532   .     S
C791   H792    1.111   .     S
C794   C797    1.526   .     S
C794   H796    1.109   .     S
C794   H795    1.109   .     S
C797   H798    1.111   .     S
C797   H799    1.110   .     S
C797   H800    1.112   .     S
O801   C802    1.414   .     S
C802   C805    1.518   .     S
C802   H804    1.116   .     S
C802   H803    1.111   .     S
C805   H806    1.109   .     S
C805   H807    1.108   .     S
C805   H808    1.110   .     S
O809   C810    1.420   .     S
C810   C813    1.523   .     S
C810   H811    1.109   .     S
C810   H812    1.119   .     S
C813   H814    1.110   .     S
C813   H815    1.109   .     S
C813   H816    1.110   .     S
O817   C818    1.411   .     S
C818   C821    1.521   .     S
C818   H820    1.114   .     S
C818   H819    1.112   .     S
C821   H822    1.110   .     S
C821   H93     1.111   1_655 S
H823   C237    1.111   1_565 S
H824   C383    1.110   1_565 S
O825   C826    1.411   .     S
C826   H828    1.114   .     S
C826   H827    1.113   .     S
C826   C537    1.521   1_655 S
C829   H830    1.111   .     S
C829   H831    1.111   .     S
C829   H394    1.111   1_565 S
O833   C834    1.417   .     S
C834   H836    1.112   .     S
C834   H835    1.113   .     S
C834   C837    1.527   .     S
C837   H838    1.112   .     S
H839   C545    1.110   1_655 S
C840   H841    1.111   .     S
C840   H842    1.109   .     S
C840   C545    1.525   1_655 S
C840   H551    1.111   1_655 S
O844   C845    1.414   .     S
C845   H847    1.113   .     S
C845   C848    1.527   .     S
C845   H846    1.113   .     S
C848   H849    1.112   .     S
C848   H850    1.111   .     S
C848   C559    1.523   1_655 S
C851   H854    1.108   .     S
C851   H852    1.111   .     S
C851   H853    1.108   .     S
O855   C856    1.419   .     S
C856   C859    1.537   .     S
C856   H858    1.107   .     S
C856   H565    1.110   1_655 S
C859   C862    1.525   .     S
C859   H860    1.110   .     S
C859   H861    1.109   .     S
C862   H864    1.110   .     S
C862   H571    1.111   1_655 S
C862   H573    1.110   1_655 S
O866   C867    1.412   .     S
C867   H869    1.117   .     S
C867   C870    1.530   .     S
C867   H1744   1.109   .     S
H868   C1743   1.109   1_554 S
C870   C873    1.526   .     S
C870   H872    1.106   .     S
C870   H871    1.110   .     S
C873   H876    1.111   .     S
C873   H875    1.110   .     S
C873   H874    1.111   .     S
C877   C897    1.469   .     S
C877   O917    1.296   .     A
C877   O915    1.290   .     A
C878   C898    1.461   .     S
C878   O916    1.291   .     A
C878   O918    1.294   .     A
C879   H909    1.080   .     S
C879   C881    1.409   .     A
C879   C887    1.400   .     A
C880   H910    1.078   .     S
C880   C882    1.410   .     A
C880   C888    1.405   .     A
C881   O979    1.383   .     S
C881   N913    1.368   .     A
C882   O990    1.381   .     S
C882   N914    1.361   .     A
C883   N913    1.362   .     A
C883   H911    1.072   .     S
C883   C885    1.426   .     A
C884   H912    1.082   .     S
C884   N914    1.361   .     A
C884   C886    1.408   .     A
C885   O1001   1.396   .     S
C885   C887    1.421   .     A
C886   C888    1.425   .     A
C886   O1012   1.382   .     S
C888   C11     1.518   1_556 S
C889   C891    1.401   .     S
C889   O919    1.273   .     A
C889   O921    1.283   .     A
C890   O922    1.282   .     A
C890   C892    1.403   .     S
C890   O920    1.274   .     A
C891   C1184   1.334   1_455 S
C891   H1197   1.085   1_455 S
C892   C1037   1.334   .     S
C892   H1052   1.088   .     S
C893   C903    1.395   .     A
C893   H907    1.083   .     S
C893   C895    1.382   .     A
C894   C896    1.388   .     A
C894   C904    1.398   .     A
C894   H908    1.081   .     S
C895   C897    1.416   .     A
C895   O925    1.383   .     S
C896   O936    1.387   .     S
C896   C898    1.410   .     A
C897   C899    1.418   .     A
C898   C900    1.415   .     A
C899   O947    1.382   .     S
C899   C901    1.398   .     A
C900   O955    1.381   .     S
C900   C902    1.395   .     A
C901   O963    1.384   .     S
C901   C903    1.404   .     A
C902   O971    1.383   .     S
C902   C904    1.400   .     A
C903   C1342   1.459   1_545 S
C904   C1341   1.459   .     S
H905   C1037   1.085   .     S
H906   C1184   1.088   1_455 S
N913   Zn924   2.007   .     S
N914   Zn923   2.007   .     S
O915   Zn923   1.960   .     S
O916   Zn924   1.960   .     S
O917   Zn924   1.976   .     S
O918   Zn923   1.976   .     S
O919   Zn923   1.960   .     S
O920   Zn924   1.960   .     S
O921   Zn924   1.980   .     S
O922   Zn923   1.980   .     S
O925   C926    1.419   .     S
C926   H928    1.117   .     S
C926   C929    1.535   .     S
C926   H927    1.109   .     S
C929   H930    1.110   .     S
C929   H931    1.111   .     S
C929   C932    1.528   .     S
C932   H933    1.110   .     S
C932   H935    1.111   .     S
C932   H934    1.110   .     S
O936   C937    1.420   .     S
C937   H939    1.118   .     S
C937   C940    1.532   .     S
C937   H938    1.111   .     S
C940   C943    1.526   .     S
C940   H942    1.109   .     S
C940   H941    1.109   .     S
C943   H944    1.111   .     S
C943   H945    1.110   .     S
C943   H946    1.112   .     S
O947   C948    1.414   .     S
C948   C951    1.518   .     S
C948   H950    1.116   .     S
C948   H949    1.111   .     S
C951   H952    1.109   .     S
C951   H953    1.108   .     S
C951   H954    1.110   .     S
O955   C956    1.420   .     S
C956   C959    1.523   .     S
C956   H957    1.109   .     S
C956   H958    1.119   .     S
C959   H960    1.110   .     S
C959   H961    1.109   .     S
C959   H962    1.110   .     S
O963   C964    1.411   .     S
C964   C967    1.521   .     S
C964   H966    1.114   .     S
C964   H965    1.112   .     S
C967   H968    1.110   .     S
C967   H1553   1.111   1_545 S
C967   H1408   1.110   1_545 S
H969   C1697   1.111   1_455 S
H970   C1405   1.110   .     S
O971   C972    1.411   .     S
C972   H974    1.114   .     S
C972   H973    1.113   .     S
C972   C1121   1.521   .     S
C975   H976    1.111   .     S
C975   H977    1.111   .     S
C975   C1264   1.521   1_455 S
C975   H1416   1.111   .     S
H978   C1413   1.111   1_545 S
O979   C980    1.417   .     S
C980   H982    1.112   .     S
C980   H981    1.113   .     S
C980   C983    1.527   .     S
C983   H984    1.112   .     S
C983   H1277   1.110   1_455 S
C983   C1278   1.525   1_455 S
H985   C1129   1.110   .     S
C986   H987    1.111   .     S
C986   H988    1.109   .     S
C986   C1129   1.525   .     S
C986   H1135   1.111   .     S
H989   C1278   1.111   1_455 S
O990   C991    1.414   .     S
C991   H993    1.113   .     S
C991   C994    1.527   .     S
C991   H992    1.113   .     S
C994   H995    1.112   .     S
C994   H996    1.111   .     S
C994   C1143   1.523   .     S
C997   H1000   1.108   .     S
C997   H998    1.111   .     S
C997   H999    1.108   .     S
C997   C1286   1.523   1_455 S
O1001  C1002   1.419   .     S
C1002  C1005   1.537   .     S
C1002  H1004   1.107   .     S
C1002  H1149   1.110   .     S
H1003  C1294   1.110   1_455 S
C1005  C1008   1.525   .     S
C1005  H1006   1.110   .     S
C1005  H1007   1.109   .     S
C1008  H1010   1.110   .     S
C1008  H1155   1.111   .     S
C1008  H1157   1.110   .     S
H1009  C1300   1.111   1_455 S
H1011  C1300   1.110   1_455 S
O1012  C1013   1.412   .     S
C1013  H1015   1.117   .     S
C1013  C1016   1.530   .     S
C1013  H138    1.109   1_556 S
C1016  C1019   1.526   .     S
C1016  H1018   1.106   .     S
C1016  H1017   1.110   .     S
C1019  H1022   1.111   .     S
C1019  H1021   1.110   .     S
C1019  H1020   1.111   .     S
C1023  C1043   1.469   .     S
C1023  O1063   1.296   .     A
C1023  O1061   1.290   .     A
C1024  C1044   1.461   .     S
C1024  O1062   1.291   .     A
C1024  O1064   1.294   .     A
C1025  H1055   1.080   .     S
C1025  C1027   1.409   .     A
C1025  C1033   1.400   .     A
C1026  H1056   1.078   .     S
C1026  C1028   1.410   .     A
C1026  C1034   1.405   .     A
C1027  O1125   1.383   .     S
C1027  N1059   1.368   .     A
C1028  O1136   1.381   .     S
C1028  N1060   1.361   .     A
C1029  N1059   1.362   .     A
C1029  H1057   1.072   .     S
C1029  C1031   1.426   .     A
C1030  H1058   1.082   .     S
C1030  N1060   1.361   .     A
C1030  C1032   1.408   .     A
C1031  O1147   1.396   .     S
C1031  C1033   1.421   .     A
C1032  C1034   1.425   .     A
C1032  O1158   1.382   .     S
C1034  C157    1.518   1_556 S
C1035  C1037   1.401   .     S
C1035  O1065   1.273   .     A
C1035  O1067   1.283   .     A
C1036  O1068   1.282   .     A
C1036  C1038   1.403   .     S
C1036  O1066   1.274   .     A
C1038  C1183   1.334   .     S
C1038  H1198   1.088   .     S
C1039  C1049   1.395   .     A
C1039  H1053   1.083   .     S
C1039  C1041   1.382   .     A
C1040  C1042   1.388   .     A
C1040  C1050   1.398   .     A
C1040  H1054   1.081   .     S
C1041  C1043   1.416   .     A
C1041  O1071   1.383   .     S
C1042  O1082   1.387   .     S
C1042  C1044   1.410   .     A
C1043  C1045   1.418   .     A
C1044  C1046   1.415   .     A
C1045  O1093   1.382   .     S
C1045  C1047   1.398   .     A
C1046  O1101   1.381   .     S
C1046  C1048   1.395   .     A
C1047  O1109   1.384   .     S
C1047  C1049   1.404   .     A
C1048  O1117   1.383   .     S
C1048  C1050   1.400   .     A
C1049  C1488   1.459   1_545 S
C1050  C1487   1.459   .     S
H1051  C1183   1.085   .     S
N1059  Zn1070  2.007   .     S
N1060  Zn1069  2.007   .     S
O1061  Zn1069  1.960   .     S
O1062  Zn1070  1.960   .     S
O1063  Zn1070  1.976   .     S
O1064  Zn1069  1.976   .     S
O1065  Zn1069  1.960   .     S
O1066  Zn1070  1.960   .     S
O1067  Zn1070  1.980   .     S
O1068  Zn1069  1.980   .     S
O1071  C1072   1.419   .     S
C1072  H1074   1.117   .     S
C1072  C1075   1.535   .     S
C1072  H1073   1.109   .     S
C1075  H1076   1.110   .     S
C1075  H1077   1.111   .     S
C1075  C1078   1.528   .     S
C1078  H1079   1.110   .     S
C1078  H1081   1.111   .     S
C1078  H1080   1.110   .     S
O1082  C1083   1.420   .     S
C1083  H1085   1.118   .     S
C1083  C1086   1.532   .     S
C1083  H1084   1.111   .     S
C1086  C1089   1.526   .     S
C1086  H1088   1.109   .     S
C1086  H1087   1.109   .     S
C1089  H1090   1.111   .     S
C1089  H1091   1.110   .     S
C1089  H1092   1.112   .     S
O1093  C1094   1.414   .     S
C1094  C1097   1.518   .     S
C1094  H1096   1.116   .     S
C1094  H1095   1.111   .     S
C1097  H1098   1.109   .     S
C1097  H1099   1.108   .     S
C1097  H1100   1.110   .     S
O1101  C1102   1.420   .     S
C1102  C1105   1.523   .     S
C1102  H1103   1.109   .     S
C1102  H1104   1.119   .     S
C1105  H1106   1.110   .     S
C1105  H1107   1.109   .     S
C1105  H1108   1.110   .     S
O1109  C1110   1.411   .     S
C1110  C1113   1.521   .     S
C1110  H1112   1.114   .     S
C1110  H1111   1.112   .     S
C1113  H1114   1.110   .     S
C1113  H1699   1.111   1_545 S
C1113  H1554   1.110   1_545 S
H1115  C1405   1.111   .     S
H1116  C1551   1.110   .     S
O1117  C1118   1.411   .     S
C1118  H1120   1.114   .     S
C1118  H1119   1.113   .     S
C1118  C1267   1.521   .     S
C1121  H1122   1.111   .     S
C1121  H1123   1.111   .     S
C1121  H1562   1.111   .     S
H1124  C1559   1.111   1_545 S
O1125  C1126   1.417   .     S
C1126  H1128   1.112   .     S
C1126  H1127   1.113   .     S
C1126  C1129   1.527   .     S
C1129  H1130   1.112   .     S
H1131  C1275   1.110   .     S
C1132  H1133   1.111   .     S
C1132  H1134   1.109   .     S
C1132  C1275   1.525   .     S
C1132  H1281   1.111   .     S
O1136  C1137   1.414   .     S
C1137  H1139   1.113   .     S
C1137  C1140   1.527   .     S
C1137  H1138   1.113   .     S
C1140  H1141   1.112   .     S
C1140  H1142   1.111   .     S
C1140  C1289   1.523   .     S
C1143  H1146   1.108   .     S
C1143  H1144   1.111   .     S
C1143  H1145   1.108   .     S
O1147  C1148   1.419   .     S
C1148  C1151   1.537   .     S
C1148  H1150   1.107   .     S
C1148  H1295   1.110   .     S
C1151  C1154   1.525   .     S
C1151  H1152   1.110   .     S
C1151  H1153   1.109   .     S
C1154  H1156   1.110   .     S
C1154  H1301   1.111   .     S
C1154  H1303   1.110   .     S
O1158  C1159   1.412   .     S
C1159  H1161   1.117   .     S
C1159  C1162   1.530   .     S
C1159  H284    1.109   1_556 S
C1162  C1165   1.526   .     S
C1162  H1164   1.106   .     S
C1162  H1163   1.110   .     S
C1165  H1168   1.111   .     S
C1165  H1167   1.110   .     S
C1165  H1166   1.111   .     S
C1169  C1189   1.469   .     S
C1169  O1209   1.296   .     A
C1169  O1207   1.290   .     A
C1170  C1190   1.461   .     S
C1170  O1208   1.291   .     A
C1170  O1210   1.294   .     A
C1171  H1201   1.080   .     S
C1171  C1173   1.409   .     A
C1171  C1179   1.400   .     A
C1172  H1202   1.078   .     S
C1172  C1174   1.410   .     A
C1172  C1180   1.405   .     A
C1173  O1271   1.383   .     S
C1173  N1205   1.368   .     A
C1174  O1282   1.381   .     S
C1174  N1206   1.361   .     A
C1175  N1205   1.362   .     A
C1175  H1203   1.072   .     S
C1175  C1177   1.426   .     A
C1176  H1204   1.082   .     S
C1176  N1206   1.361   .     A
C1176  C1178   1.408   .     A
C1177  O1293   1.396   .     S
C1177  C1179   1.421   .     A
C1178  C1180   1.425   .     A
C1178  O1304   1.382   .     S
C1180  C303    1.518   1_556 S
C1181  C1183   1.401   .     S
C1181  O1211   1.273   .     A
C1181  O1213   1.283   .     A
C1182  O1214   1.282   .     A
C1182  C1184   1.403   .     S
C1182  O1212   1.274   .     A
C1184  C891    1.334   1_655 S
C1184  H906    1.088   1_655 S
C1185  C1195   1.395   .     A
C1185  H1199   1.083   .     S
C1185  C1187   1.382   .     A
C1186  C1188   1.388   .     A
C1186  C1196   1.398   .     A
C1186  H1200   1.081   .     S
C1187  C1189   1.416   .     A
C1187  O1217   1.383   .     S
C1188  O1228   1.387   .     S
C1188  C1190   1.410   .     A
C1189  C1191   1.418   .     A
C1190  C1192   1.415   .     A
C1191  O1239   1.382   .     S
C1191  C1193   1.398   .     A
C1192  O1247   1.381   .     S
C1192  C1194   1.395   .     A
C1193  O1255   1.384   .     S
C1193  C1195   1.404   .     A
C1194  O1263   1.383   .     S
C1194  C1196   1.400   .     A
C1195  C1634   1.459   1_545 S
C1196  C1633   1.459   .     S
H1197  C891    1.085   1_655 S
N1205  Zn1216  2.007   .     S
N1206  Zn1215  2.007   .     S
O1207  Zn1215  1.960   .     S
O1208  Zn1216  1.960   .     S
O1209  Zn1216  1.976   .     S
O1210  Zn1215  1.976   .     S
O1211  Zn1215  1.960   .     S
O1212  Zn1216  1.960   .     S
O1213  Zn1216  1.980   .     S
O1214  Zn1215  1.980   .     S
O1217  C1218   1.419   .     S
C1218  H1220   1.117   .     S
C1218  C1221   1.535   .     S
C1218  H1219   1.109   .     S
C1221  H1222   1.110   .     S
C1221  H1223   1.111   .     S
C1221  C1224   1.528   .     S
C1224  H1225   1.110   .     S
C1224  H1227   1.111   .     S
C1224  H1226   1.110   .     S
O1228  C1229   1.420   .     S
C1229  H1231   1.118   .     S
C1229  C1232   1.532   .     S
C1229  H1230   1.111   .     S
C1232  C1235   1.526   .     S
C1232  H1234   1.109   .     S
C1232  H1233   1.109   .     S
C1235  H1236   1.111   .     S
C1235  H1237   1.110   .     S
C1235  H1238   1.112   .     S
O1239  C1240   1.414   .     S
C1240  C1243   1.518   .     S
C1240  H1242   1.116   .     S
C1240  H1241   1.111   .     S
C1243  H1244   1.109   .     S
C1243  H1245   1.108   .     S
C1243  H1246   1.110   .     S
O1247  C1248   1.420   .     S
C1248  C1251   1.523   .     S
C1248  H1249   1.109   .     S
C1248  H1250   1.119   .     S
C1251  H1252   1.110   .     S
C1251  H1253   1.109   .     S
C1251  H1254   1.110   .     S
O1255  C1256   1.411   .     S
C1256  C1259   1.521   .     S
C1256  H1258   1.114   .     S
C1256  H1257   1.112   .     S
C1259  H1260   1.110   .     S
C1259  H1407   1.111   1_645 S
C1259  H1700   1.110   1_545 S
H1261  C1551   1.111   .     S
H1262  C1697   1.110   .     S
O1263  C1264   1.411   .     S
C1264  H1266   1.114   .     S
C1264  H1265   1.113   .     S
C1264  C975    1.521   1_655 S
C1267  H1268   1.111   .     S
C1267  H1269   1.111   .     S
C1267  H1708   1.111   .     S
H1270  C1705   1.111   1_545 S
O1271  C1272   1.417   .     S
C1272  H1274   1.112   .     S
C1272  H1273   1.113   .     S
C1272  C1275   1.527   .     S
C1275  H1276   1.112   .     S
H1277  C983    1.110   1_655 S
C1278  H1279   1.111   .     S
C1278  H1280   1.109   .     S
C1278  C983    1.525   1_655 S
C1278  H989    1.111   1_655 S
O1282  C1283   1.414   .     S
C1283  H1285   1.113   .     S
C1283  C1286   1.527   .     S
C1283  H1284   1.113   .     S
C1286  H1287   1.112   .     S
C1286  H1288   1.111   .     S
C1286  C997    1.523   1_655 S
C1289  H1292   1.108   .     S
C1289  H1290   1.111   .     S
C1289  H1291   1.108   .     S
O1293  C1294   1.419   .     S
C1294  C1297   1.537   .     S
C1294  H1296   1.107   .     S
C1294  H1003   1.110   1_655 S
C1297  C1300   1.525   .     S
C1297  H1298   1.110   .     S
C1297  H1299   1.109   .     S
C1300  H1302   1.110   .     S
C1300  H1009   1.111   1_655 S
C1300  H1011   1.110   1_655 S
O1304  C1305   1.412   .     S
C1305  H1307   1.117   .     S
C1305  C1308   1.530   .     S
C1305  H430    1.109   1_556 S
C1308  C1311   1.526   .     S
C1308  H1310   1.106   .     S
C1308  H1309   1.110   .     S
C1311  H1314   1.111   .     S
C1311  H1313   1.110   .     S
C1311  H1312   1.111   .     S
C1315  C1335   1.469   .     S
C1315  O1355   1.296   .     A
C1315  O1353   1.290   .     A
C1316  C1336   1.461   .     S
C1316  O1354   1.291   .     A
C1316  O1356   1.294   .     A
C1317  H1347   1.080   .     S
C1317  C1319   1.409   .     A
C1317  C1325   1.400   .     A
C1318  H1348   1.078   .     S
C1318  C1320   1.410   .     A
C1318  C1326   1.405   .     A
C1319  O1417   1.383   .     S
C1319  N1351   1.368   .     A
C1320  O1428   1.381   .     S
C1320  N1352   1.361   .     A
C1321  N1351   1.362   .     A
C1321  H1349   1.072   .     S
C1321  C1323   1.426   .     A
C1322  H1350   1.082   .     S
C1322  N1352   1.361   .     A
C1322  C1324   1.408   .     A
C1323  O1439   1.396   .     S
C1323  C1325   1.421   .     A
C1324  C1326   1.425   .     A
C1324  O1450   1.382   .     S
C1326  C449    1.518   1_556 S
C1327  C1329   1.401   .     S
C1327  O1357   1.273   .     A
C1327  O1359   1.283   .     A
C1328  O1360   1.282   .     A
C1328  C1330   1.403   .     S
C1328  O1358   1.274   .     A
C1329  C1622   1.334   1_455 S
C1329  H1635   1.085   1_455 S
C1330  C1475   1.334   .     S
C1330  H1490   1.088   .     S
C1331  C1341   1.395   .     A
C1331  H1345   1.083   .     S
C1331  C1333   1.382   .     A
C1332  C1334   1.388   .     A
C1332  C1342   1.398   .     A
C1332  H1346   1.081   .     S
C1333  C1335   1.416   .     A
C1333  O1363   1.383   .     S
C1334  O1374   1.387   .     S
C1334  C1336   1.410   .     A
C1335  C1337   1.418   .     A
C1336  C1338   1.415   .     A
C1337  O1385   1.382   .     S
C1337  C1339   1.398   .     A
C1338  O1393   1.381   .     S
C1338  C1340   1.395   .     A
C1339  O1401   1.384   .     S
C1339  C1341   1.404   .     A
C1340  O1409   1.383   .     S
C1340  C1342   1.400   .     A
C1342  C903    1.459   1_565 S
H1343  C1475   1.085   .     S
H1344  C1622   1.088   1_455 S
N1351  Zn1362  2.007   .     S
N1352  Zn1361  2.007   .     S
O1353  Zn1361  1.960   .     S
O1354  Zn1362  1.960   .     S
O1355  Zn1362  1.976   .     S
O1356  Zn1361  1.976   .     S
O1357  Zn1361  1.960   .     S
O1358  Zn1362  1.960   .     S
O1359  Zn1362  1.980   .     S
O1360  Zn1361  1.980   .     S
O1363  C1364   1.419   .     S
C1364  H1366   1.117   .     S
C1364  C1367   1.535   .     S
C1364  H1365   1.109   .     S
C1367  H1368   1.110   .     S
C1367  H1369   1.111   .     S
C1367  C1370   1.528   .     S
C1370  H1371   1.110   .     S
C1370  H1373   1.111   .     S
C1370  H1372   1.110   .     S
O1374  C1375   1.420   .     S
C1375  H1377   1.118   .     S
C1375  C1378   1.532   .     S
C1375  H1376   1.111   .     S
C1378  C1381   1.526   .     S
C1378  H1380   1.109   .     S
C1378  H1379   1.109   .     S
C1381  H1382   1.111   .     S
C1381  H1383   1.110   .     S
C1381  H1384   1.112   .     S
O1385  C1386   1.414   .     S
C1386  C1389   1.518   .     S
C1386  H1388   1.116   .     S
C1386  H1387   1.111   .     S
C1389  H1390   1.109   .     S
C1389  H1391   1.108   .     S
C1389  H1392   1.110   .     S
O1393  C1394   1.420   .     S
C1394  C1397   1.523   .     S
C1394  H1395   1.109   .     S
C1394  H1396   1.119   .     S
C1397  H1398   1.110   .     S
C1397  H1399   1.109   .     S
C1397  H1400   1.110   .     S
O1401  C1402   1.411   .     S
C1402  C1405   1.521   .     S
C1402  H1404   1.114   .     S
C1402  H1403   1.112   .     S
C1405  H1406   1.110   .     S
H1407  C1259   1.111   1_465 S
H1408  C967    1.110   1_565 S
O1409  C1410   1.411   .     S
C1410  H1412   1.114   .     S
C1410  H1411   1.113   .     S
C1410  C1559   1.521   .     S
C1413  H1414   1.111   .     S
C1413  H1415   1.111   .     S
C1413  C1702   1.521   1_455 S
C1413  H978    1.111   1_565 S
O1417  C1418   1.417   .     S
C1418  H1420   1.112   .     S
C1418  H1419   1.113   .     S
C1418  C1421   1.527   .     S
C1421  H1422   1.112   .     S
C1421  H1715   1.110   1_455 S
C1421  C1716   1.525   1_455 S
H1423  C1567   1.110   .     S
C1424  H1425   1.111   .     S
C1424  H1426   1.109   .     S
C1424  C1567   1.525   .     S
C1424  H1573   1.111   .     S
H1427  C1716   1.111   1_455 S
O1428  C1429   1.414   .     S
C1429  H1431   1.113   .     S
C1429  C1432   1.527   .     S
C1429  H1430   1.113   .     S
C1432  H1433   1.112   .     S
C1432  H1434   1.111   .     S
C1432  C1581   1.523   .     S
C1435  H1438   1.108   .     S
C1435  H1436   1.111   .     S
C1435  H1437   1.108   .     S
C1435  C1724   1.523   1_455 S
O1439  C1440   1.419   .     S
C1440  C1443   1.537   .     S
C1440  H1442   1.107   .     S
C1440  H1587   1.110   .     S
H1441  C1732   1.110   1_455 S
C1443  C1446   1.525   .     S
C1443  H1444   1.110   .     S
C1443  H1445   1.109   .     S
C1446  H1448   1.110   .     S
C1446  H1593   1.111   .     S
C1446  H1595   1.110   .     S
H1447  C1738   1.111   1_455 S
H1449  C1738   1.110   1_455 S
O1450  C1451   1.412   .     S
C1451  H1453   1.117   .     S
C1451  C1454   1.530   .     S
C1451  H576    1.109   1_556 S
C1454  C1457   1.526   .     S
C1454  H1456   1.106   .     S
C1454  H1455   1.110   .     S
C1457  H1460   1.111   .     S
C1457  H1459   1.110   .     S
C1457  H1458   1.111   .     S
C1461  C1481   1.469   .     S
C1461  O1501   1.296   .     A
C1461  O1499   1.290   .     A
C1462  C1482   1.461   .     S
C1462  O1500   1.291   .     A
C1462  O1502   1.294   .     A
C1463  H1493   1.080   .     S
C1463  C1465   1.409   .     A
C1463  C1471   1.400   .     A
C1464  H1494   1.078   .     S
C1464  C1466   1.410   .     A
C1464  C1472   1.405   .     A
C1465  O1563   1.383   .     S
C1465  N1497   1.368   .     A
C1466  O1574   1.381   .     S
C1466  N1498   1.361   .     A
C1467  N1497   1.362   .     A
C1467  H1495   1.072   .     S
C1467  C1469   1.426   .     A
C1468  H1496   1.082   .     S
C1468  N1498   1.361   .     A
C1468  C1470   1.408   .     A
C1469  O1585   1.396   .     S
C1469  C1471   1.421   .     A
C1470  C1472   1.425   .     A
C1470  O1596   1.382   .     S
C1472  C595    1.518   1_556 S
C1473  C1475   1.401   .     S
C1473  O1503   1.273   .     A
C1473  O1505   1.283   .     A
C1474  O1506   1.282   .     A
C1474  C1476   1.403   .     S
C1474  O1504   1.274   .     A
C1476  C1621   1.334   .     S
C1476  H1636   1.088   .     S
C1477  C1487   1.395   .     A
C1477  H1491   1.083   .     S
C1477  C1479   1.382   .     A
C1478  C1480   1.388   .     A
C1478  C1488   1.398   .     A
C1478  H1492   1.081   .     S
C1479  C1481   1.416   .     A
C1479  O1509   1.383   .     S
C1480  O1520   1.387   .     S
C1480  C1482   1.410   .     A
C1481  C1483   1.418   .     A
C1482  C1484   1.415   .     A
C1483  O1531   1.382   .     S
C1483  C1485   1.398   .     A
C1484  O1539   1.381   .     S
C1484  C1486   1.395   .     A
C1485  O1547   1.384   .     S
C1485  C1487   1.404   .     A
C1486  O1555   1.383   .     S
C1486  C1488   1.400   .     A
C1488  C1049   1.459   1_565 S
H1489  C1621   1.085   .     S
N1497  Zn1508  2.007   .     S
N1498  Zn1507  2.007   .     S
O1499  Zn1507  1.960   .     S
O1500  Zn1508  1.960   .     S
O1501  Zn1508  1.976   .     S
O1502  Zn1507  1.976   .     S
O1503  Zn1507  1.960   .     S
O1504  Zn1508  1.960   .     S
O1505  Zn1508  1.980   .     S
O1506  Zn1507  1.980   .     S
O1509  C1510   1.419   .     S
C1510  H1512   1.117   .     S
C1510  C1513   1.535   .     S
C1510  H1511   1.109   .     S
C1513  H1514   1.110   .     S
C1513  H1515   1.111   .     S
C1513  C1516   1.528   .     S
C1516  H1517   1.110   .     S
C1516  H1519   1.111   .     S
C1516  H1518   1.110   .     S
O1520  C1521   1.420   .     S
C1521  H1523   1.118   .     S
C1521  C1524   1.532   .     S
C1521  H1522   1.111   .     S
C1524  C1527   1.526   .     S
C1524  H1526   1.109   .     S
C1524  H1525   1.109   .     S
C1527  H1528   1.111   .     S
C1527  H1529   1.110   .     S
C1527  H1530   1.112   .     S
O1531  C1532   1.414   .     S
C1532  C1535   1.518   .     S
C1532  H1534   1.116   .     S
C1532  H1533   1.111   .     S
C1535  H1536   1.109   .     S
C1535  H1537   1.108   .     S
C1535  H1538   1.110   .     S
O1539  C1540   1.420   .     S
C1540  C1543   1.523   .     S
C1540  H1541   1.109   .     S
C1540  H1542   1.119   .     S
C1543  H1544   1.110   .     S
C1543  H1545   1.109   .     S
C1543  H1546   1.110   .     S
O1547  C1548   1.411   .     S
C1548  C1551   1.521   .     S
C1548  H1550   1.114   .     S
C1548  H1549   1.112   .     S
C1551  H1552   1.110   .     S
H1553  C967    1.111   1_565 S
H1554  C1113   1.110   1_565 S
O1555  C1556   1.411   .     S
C1556  H1558   1.114   .     S
C1556  H1557   1.113   .     S
C1556  C1705   1.521   .     S
C1559  H1560   1.111   .     S
C1559  H1561   1.111   .     S
C1559  H1124   1.111   1_565 S
O1563  C1564   1.417   .     S
C1564  H1566   1.112   .     S
C1564  H1565   1.113   .     S
C1564  C1567   1.527   .     S
C1567  H1568   1.112   .     S
H1569  C1713   1.110   .     S
C1570  H1571   1.111   .     S
C1570  H1572   1.109   .     S
C1570  C1713   1.525   .     S
C1570  H1719   1.111   .     S
O1574  C1575   1.414   .     S
C1575  H1577   1.113   .     S
C1575  C1578   1.527   .     S
C1575  H1576   1.113   .     S
C1578  H1579   1.112   .     S
C1578  H1580   1.111   .     S
C1578  C1727   1.523   .     S
C1581  H1584   1.108   .     S
C1581  H1582   1.111   .     S
C1581  H1583   1.108   .     S
O1585  C1586   1.419   .     S
C1586  C1589   1.537   .     S
C1586  H1588   1.107   .     S
C1586  H1733   1.110   .     S
C1589  C1592   1.525   .     S
C1589  H1590   1.110   .     S
C1589  H1591   1.109   .     S
C1592  H1594   1.110   .     S
C1592  H1739   1.111   .     S
C1592  H1741   1.110   .     S
O1596  C1597   1.412   .     S
C1597  H1599   1.117   .     S
C1597  C1600   1.530   .     S
C1597  H722    1.109   1_556 S
C1600  C1603   1.526   .     S
C1600  H1602   1.106   .     S
C1600  H1601   1.110   .     S
C1603  H1606   1.111   .     S
C1603  H1605   1.110   .     S
C1603  H1604   1.111   .     S
C1607  C1627   1.469   .     S
C1607  O1647   1.296   .     A
C1607  O1645   1.290   .     A
C1608  C1628   1.461   .     S
C1608  O1646   1.291   .     A
C1608  O1648   1.294   .     A
C1609  H1639   1.080   .     S
C1609  C1611   1.409   .     A
C1609  C1617   1.400   .     A
C1610  H1640   1.078   .     S
C1610  C1612   1.410   .     A
C1610  C1618   1.405   .     A
C1611  O1709   1.383   .     S
C1611  N1643   1.368   .     A
C1612  O1720   1.381   .     S
C1612  N1644   1.361   .     A
C1613  N1643   1.362   .     A
C1613  H1641   1.072   .     S
C1613  C1615   1.426   .     A
C1614  H1642   1.082   .     S
C1614  N1644   1.361   .     A
C1614  C1616   1.408   .     A
C1615  O1731   1.396   .     S
C1615  C1617   1.421   .     A
C1616  C1618   1.425   .     A
C1616  O1742   1.382   .     S
C1618  C741    1.518   1_556 S
C1619  C1621   1.401   .     S
C1619  O1649   1.273   .     A
C1619  O1651   1.283   .     A
C1620  O1652   1.282   .     A
C1620  C1622   1.403   .     S
C1620  O1650   1.274   .     A
C1622  C1329   1.334   1_655 S
C1622  H1344   1.088   1_655 S
C1623  C1633   1.395   .     A
C1623  H1637   1.083   .     S
C1623  C1625   1.382   .     A
C1624  C1626   1.388   .     A
C1624  C1634   1.398   .     A
C1624  H1638   1.081   .     S
C1625  C1627   1.416   .     A
C1625  O1655   1.383   .     S
C1626  O1666   1.387   .     S
C1626  C1628   1.410   .     A
C1627  C1629   1.418   .     A
C1628  C1630   1.415   .     A
C1629  O1677   1.382   .     S
C1629  C1631   1.398   .     A
C1630  O1685   1.381   .     S
C1630  C1632   1.395   .     A
C1631  O1693   1.384   .     S
C1631  C1633   1.404   .     A
C1632  O1701   1.383   .     S
C1632  C1634   1.400   .     A
C1634  C1195   1.459   1_565 S
H1635  C1329   1.085   1_655 S
N1643  Zn1654  2.007   .     S
N1644  Zn1653  2.007   .     S
O1645  Zn1653  1.960   .     S
O1646  Zn1654  1.960   .     S
O1647  Zn1654  1.976   .     S
O1648  Zn1653  1.976   .     S
O1649  Zn1653  1.960   .     S
O1650  Zn1654  1.960   .     S
O1651  Zn1654  1.980   .     S
O1652  Zn1653  1.980   .     S
O1655  C1656   1.419   .     S
C1656  H1658   1.117   .     S
C1656  C1659   1.535   .     S
C1656  H1657   1.109   .     S
C1659  H1660   1.110   .     S
C1659  H1661   1.111   .     S
C1659  C1662   1.528   .     S
C1662  H1663   1.110   .     S
C1662  H1665   1.111   .     S
C1662  H1664   1.110   .     S
O1666  C1667   1.420   .     S
C1667  H1669   1.118   .     S
C1667  C1670   1.532   .     S
C1667  H1668   1.111   .     S
C1670  C1673   1.526   .     S
C1670  H1672   1.109   .     S
C1670  H1671   1.109   .     S
C1673  H1674   1.111   .     S
C1673  H1675   1.110   .     S
C1673  H1676   1.112   .     S
O1677  C1678   1.414   .     S
C1678  C1681   1.518   .     S
C1678  H1680   1.116   .     S
C1678  H1679   1.111   .     S
C1681  H1682   1.109   .     S
C1681  H1683   1.108   .     S
C1681  H1684   1.110   .     S
O1685  C1686   1.420   .     S
C1686  C1689   1.523   .     S
C1686  H1687   1.109   .     S
C1686  H1688   1.119   .     S
C1689  H1690   1.110   .     S
C1689  H1691   1.109   .     S
C1689  H1692   1.110   .     S
O1693  C1694   1.411   .     S
C1694  C1697   1.521   .     S
C1694  H1696   1.114   .     S
C1694  H1695   1.112   .     S
C1697  H1698   1.110   .     S
C1697  H969    1.111   1_655 S
H1699  C1113   1.111   1_565 S
H1700  C1259   1.110   1_565 S
O1701  C1702   1.411   .     S
C1702  H1704   1.114   .     S
C1702  H1703   1.113   .     S
C1702  C1413   1.521   1_655 S
C1705  H1706   1.111   .     S
C1705  H1707   1.111   .     S
C1705  H1270   1.111   1_565 S
O1709  C1710   1.417   .     S
C1710  H1712   1.112   .     S
C1710  H1711   1.113   .     S
C1710  C1713   1.527   .     S
C1713  H1714   1.112   .     S
H1715  C1421   1.110   1_655 S
C1716  H1717   1.111   .     S
C1716  H1718   1.109   .     S
C1716  C1421   1.525   1_655 S
C1716  H1427   1.111   1_655 S
O1720  C1721   1.414   .     S
C1721  H1723   1.113   .     S
C1721  C1724   1.527   .     S
C1721  H1722   1.113   .     S
C1724  H1725   1.112   .     S
C1724  H1726   1.111   .     S
C1724  C1435   1.523   1_655 S
C1727  H1730   1.108   .     S
C1727  H1728   1.111   .     S
C1727  H1729   1.108   .     S
O1731  C1732   1.419   .     S
C1732  C1735   1.537   .     S
C1732  H1734   1.107   .     S
C1732  H1441   1.110   1_655 S
C1735  C1738   1.525   .     S
C1735  H1736   1.110   .     S
C1735  H1737   1.109   .     S
C1738  H1740   1.110   .     S
C1738  H1447   1.111   1_655 S
C1738  H1449   1.110   1_655 S
O1742  C1743   1.412   .     S
C1743  H1745   1.117   .     S
C1743  C1746   1.530   .     S
C1743  H868    1.109   1_556 S
C1746  C1749   1.526   .     S
C1746  H1748   1.106   .     S
C1746  H1747   1.110   .     S
C1749  H1752   1.111   .     S
C1749  H1751   1.110   .     S
C1749  H1750   1.111   .     S
