data_str_m3_o2_o10_pcu_sym.195
_audit_creation_date              2020-01-03
_audit_creation_method            'Materials Studio'
_symmetry_space_group_name_H-M    'P1'
_symmetry_Int_Tables_number       1
_symmetry_cell_setting            triclinic
loop_
_symmetry_equiv_pos_as_xyz
  x,y,z
_cell_length_a                    25.7714
_cell_length_b                    29.8048
_cell_length_c                    28.3308
_cell_angle_alpha                 89.2973
_cell_angle_beta                  98.5955
_cell_angle_gamma                 90.0949
loop_
_atom_site_label
_atom_site_type_symbol
_atom_site_fract_x
_atom_site_fract_y
_atom_site_fract_z
_atom_site_U_iso_or_equiv
_atom_site_adp_type
_atom_site_occupancy
O1     O     0.16667   0.18453   0.28974   0.00000  Uiso   1.00
O2     O     0.16666   0.31546   0.21026   0.00000  Uiso   1.00
O3     O     0.16667   0.18453   0.21026   0.00000  Uiso   1.00
O4     O     0.16666   0.31547   0.28974   0.00000  Uiso   1.00
C5     C     0.16474   0.16375   0.25009   0.00000  Uiso   1.00
C6     C     0.16469   0.33625   0.24937   0.00000  Uiso   1.00
O7     O     0.09058   0.25000   0.28044   0.00000  Uiso   1.00
O8     O     0.24275   0.25000   0.21955   0.00000  Uiso   1.00
O9     O     0.09058   0.24999   0.20096   0.00000  Uiso   1.00
O10    O     0.24275   0.25000   0.29904   0.00000  Uiso   1.00
C11    C     0.06700   0.25004   0.23754   0.00000  Uiso   1.00
C12    C     0.26633   0.25001   0.26246   0.00000  Uiso   1.00
Zn13   Zn    0.16667   0.25000   0.30307   0.00000  Uiso   1.00
Zn14   Zn    0.16667   0.24999   0.19693   0.00000  Uiso   1.00
C15    C     0.01201   0.25016   0.23080   0.00000  Uiso   1.00
C16    C     0.32134   0.24998   0.26920   0.00000  Uiso   1.00
H17    H     0.32478   0.25044   0.19436   0.00000  Uiso   1.00
H18    H     0.00859   0.24977   0.30564   0.00000  Uiso   1.00
C19    C     0.11704   0.04892   0.27889   0.00000  Uiso   1.00
C20    C     0.11749   0.45115   0.20720   0.00000  Uiso   1.00
C21    C     0.12537   0.09530   0.28105   0.00000  Uiso   1.00
C22    C     0.12574   0.40474   0.20741   0.00000  Uiso   1.00
C23    C     0.15648   0.11583   0.24976   0.00000  Uiso   1.00
C24    C     0.15637   0.38418   0.24742   0.00000  Uiso   1.00
C25    C     0.17779   0.09071   0.21611   0.00000  Uiso   1.00
C26    C     0.17720   0.40929   0.28703   0.00000  Uiso   1.00
C27    C     0.16989   0.04504   0.21418   0.00000  Uiso   1.00
C28    C     0.16932   0.45496   0.28673   0.00000  Uiso   1.00
C29    C     0.14029   0.02421   0.24560   0.00000  Uiso   1.00
C30    C     0.14025   0.47582   0.24700   0.00000  Uiso   1.00
C31    C     0.12156   0.26227   0.04620   0.00000  Uiso   1.00
C32    C     0.21067   0.26470   0.45331   0.00000  Uiso   1.00
H33    H     0.08600   0.27246   0.02325   0.00000  Uiso   1.00
H34    H     0.24538   0.27679   0.47589   0.00000  Uiso   1.00
C35    C     0.12252   0.26220   0.09602   0.00000  Uiso   1.00
C36    C     0.20979   0.26458   0.40352   0.00000  Uiso   1.00
N37    N     0.16667   0.24999   0.12623   0.00000  Uiso   1.00
N38    N     0.16667   0.25001   0.37376   0.00000  Uiso   1.00
C39    C     0.21075   0.23779   0.10820   0.00000  Uiso   1.00
C40    C     0.12353   0.23549   0.39220   0.00000  Uiso   1.00
H41    H     0.24551   0.22772   0.13217   0.00000  Uiso   1.00
H42    H     0.08961   0.22362   0.36854   0.00000  Uiso   1.00
C43    C     0.21164   0.23792   0.05866   0.00000  Uiso   1.00
C44    C     0.12258   0.23552   0.44174   0.00000  Uiso   1.00
H45    H     0.24716   0.22775   0.04557   0.00000  Uiso   1.00
H46    H     0.08788   0.22344   0.45519   0.00000  Uiso   1.00
C47    C     0.16660   0.25015   0.02660   0.00000  Uiso   1.00
C48    C     0.16660   0.25016   0.47335   0.00000  Uiso   1.00
N49    N     0.08432   0.02713   0.30925   0.00000  Uiso   1.00
O50    O     0.05044   0.49687   0.29209   0.00000  Uiso   1.00
O51    O     0.08882   0.03676   0.35433   0.00000  Uiso   1.00
N52    N     0.08531   0.47297   0.16763   0.00000  Uiso   1.00
O53    O     0.05129   0.00329   0.17515   0.00000  Uiso   1.00
O54    O     0.09052   0.46340   0.12391   0.00000  Uiso   1.00
N55    N     0.09910   0.12172   0.31215   0.00000  Uiso   1.00
O56    O     0.12002   0.12697   0.35645   0.00000  Uiso   1.00
O57    O     0.05700   0.14404   0.29502   0.00000  Uiso   1.00
N58    N     0.09978   0.37835   0.16900   0.00000  Uiso   1.00
O59    O     0.05801   0.35555   0.17459   0.00000  Uiso   1.00
O60    O     0.12108   0.37313   0.13059   0.00000  Uiso   1.00
H61    H     0.20141   0.10635   0.19189   0.00000  Uiso   1.00
H62    H     0.20044   0.39363   0.31788   0.00000  Uiso   1.00
H63    H     0.18823   0.02556   0.18913   0.00000  Uiso   1.00
H64    H     0.18729   0.47442   0.31693   0.00000  Uiso   1.00
H65    H     0.08776   0.27208   0.11044   0.00000  Uiso   1.00
H66    H     0.24375   0.27629   0.38870   0.00000  Uiso   1.00
O67    O     0.50000   0.18453   0.28974   0.00000  Uiso   1.00
O68    O     0.50000   0.31546   0.21026   0.00000  Uiso   1.00
O69    O     0.50000   0.18453   0.21026   0.00000  Uiso   1.00
O70    O     0.50000   0.31547   0.28974   0.00000  Uiso   1.00
C71    C     0.49807   0.16375   0.25009   0.00000  Uiso   1.00
C72    C     0.49803   0.33625   0.24937   0.00000  Uiso   1.00
O73    O     0.42392   0.25000   0.28044   0.00000  Uiso   1.00
O74    O     0.57608   0.25000   0.21955   0.00000  Uiso   1.00
O75    O     0.42392   0.24999   0.20096   0.00000  Uiso   1.00
O76    O     0.57608   0.25000   0.29904   0.00000  Uiso   1.00
C77    C     0.40034   0.25004   0.23754   0.00000  Uiso   1.00
C78    C     0.59967   0.25001   0.26246   0.00000  Uiso   1.00
Zn79   Zn    0.50000   0.25000   0.30307   0.00000  Uiso   1.00
Zn80   Zn    0.50000   0.24999   0.19693   0.00000  Uiso   1.00
C81    C     0.34534   0.25016   0.23080   0.00000  Uiso   1.00
C82    C     0.65467   0.24998   0.26920   0.00000  Uiso   1.00
H83    H     0.65811   0.25044   0.19436   0.00000  Uiso   1.00
H84    H     0.34192   0.24977   0.30564   0.00000  Uiso   1.00
C85    C     0.45037   0.04892   0.27889   0.00000  Uiso   1.00
C86    C     0.45082   0.45115   0.20720   0.00000  Uiso   1.00
C87    C     0.45871   0.09530   0.28105   0.00000  Uiso   1.00
C88    C     0.45907   0.40474   0.20741   0.00000  Uiso   1.00
C89    C     0.48981   0.11583   0.24976   0.00000  Uiso   1.00
C90    C     0.48970   0.38418   0.24742   0.00000  Uiso   1.00
C91    C     0.51113   0.09071   0.21611   0.00000  Uiso   1.00
C92    C     0.51054   0.40929   0.28703   0.00000  Uiso   1.00
C93    C     0.50322   0.04504   0.21418   0.00000  Uiso   1.00
C94    C     0.50265   0.45496   0.28673   0.00000  Uiso   1.00
C95    C     0.47362   0.02421   0.24560   0.00000  Uiso   1.00
C96    C     0.47359   0.47582   0.24700   0.00000  Uiso   1.00
C97    C     0.45489   0.26227   0.04620   0.00000  Uiso   1.00
C98    C     0.54401   0.26470   0.45331   0.00000  Uiso   1.00
H99    H     0.41934   0.27246   0.02325   0.00000  Uiso   1.00
H100   H     0.57871   0.27679   0.47589   0.00000  Uiso   1.00
C101   C     0.45585   0.26220   0.09602   0.00000  Uiso   1.00
C102   C     0.54312   0.26458   0.40352   0.00000  Uiso   1.00
N103   N     0.50000   0.24999   0.12623   0.00000  Uiso   1.00
N104   N     0.50000   0.25001   0.37376   0.00000  Uiso   1.00
C105   C     0.54408   0.23779   0.10820   0.00000  Uiso   1.00
C106   C     0.45687   0.23549   0.39220   0.00000  Uiso   1.00
H107   H     0.57885   0.22772   0.13217   0.00000  Uiso   1.00
H108   H     0.42294   0.22362   0.36854   0.00000  Uiso   1.00
C109   C     0.54498   0.23792   0.05866   0.00000  Uiso   1.00
C110   C     0.45592   0.23552   0.44174   0.00000  Uiso   1.00
H111   H     0.58050   0.22775   0.04557   0.00000  Uiso   1.00
H112   H     0.42122   0.22344   0.45519   0.00000  Uiso   1.00
C113   C     0.49993   0.25015   0.02660   0.00000  Uiso   1.00
C114   C     0.49994   0.25016   0.47335   0.00000  Uiso   1.00
N115   N     0.41765   0.02713   0.30925   0.00000  Uiso   1.00
O116   O     0.38377   0.49687   0.29209   0.00000  Uiso   1.00
O117   O     0.42215   0.03676   0.35433   0.00000  Uiso   1.00
N118   N     0.41864   0.47297   0.16763   0.00000  Uiso   1.00
O119   O     0.38463   0.00329   0.17515   0.00000  Uiso   1.00
O120   O     0.42386   0.46340   0.12391   0.00000  Uiso   1.00
N121   N     0.43243   0.12172   0.31215   0.00000  Uiso   1.00
O122   O     0.45336   0.12697   0.35645   0.00000  Uiso   1.00
O123   O     0.39033   0.14404   0.29502   0.00000  Uiso   1.00
N124   N     0.43311   0.37835   0.16900   0.00000  Uiso   1.00
O125   O     0.39134   0.35555   0.17459   0.00000  Uiso   1.00
O126   O     0.45441   0.37313   0.13059   0.00000  Uiso   1.00
H127   H     0.53474   0.10635   0.19189   0.00000  Uiso   1.00
H128   H     0.53377   0.39363   0.31788   0.00000  Uiso   1.00
H129   H     0.52156   0.02556   0.18913   0.00000  Uiso   1.00
H130   H     0.52062   0.47442   0.31693   0.00000  Uiso   1.00
H131   H     0.42109   0.27208   0.11044   0.00000  Uiso   1.00
H132   H     0.57708   0.27629   0.38870   0.00000  Uiso   1.00
O133   O     0.83334   0.18453   0.28974   0.00000  Uiso   1.00
O134   O     0.83333   0.31546   0.21026   0.00000  Uiso   1.00
O135   O     0.83334   0.18453   0.21026   0.00000  Uiso   1.00
O136   O     0.83333   0.31547   0.28974   0.00000  Uiso   1.00
C137   C     0.83141   0.16375   0.25009   0.00000  Uiso   1.00
C138   C     0.83136   0.33625   0.24937   0.00000  Uiso   1.00
O139   O     0.75725   0.25000   0.28044   0.00000  Uiso   1.00
O140   O     0.90942   0.25000   0.21955   0.00000  Uiso   1.00
O141   O     0.75725   0.24999   0.20096   0.00000  Uiso   1.00
O142   O     0.90942   0.25000   0.29904   0.00000  Uiso   1.00
C143   C     0.73367   0.25004   0.23754   0.00000  Uiso   1.00
C144   C     0.93300   0.25001   0.26246   0.00000  Uiso   1.00
Zn145  Zn    0.83333   0.25000   0.30307   0.00000  Uiso   1.00
Zn146  Zn    0.83333   0.24999   0.19693   0.00000  Uiso   1.00
C147   C     0.67868   0.25016   0.23080   0.00000  Uiso   1.00
C148   C     0.98801   0.24998   0.26920   0.00000  Uiso   1.00
H149   H     0.99144   0.25044   0.19436   0.00000  Uiso   1.00
H150   H     0.67526   0.24977   0.30564   0.00000  Uiso   1.00
C151   C     0.78371   0.04892   0.27889   0.00000  Uiso   1.00
C152   C     0.78416   0.45115   0.20720   0.00000  Uiso   1.00
C153   C     0.79204   0.09530   0.28105   0.00000  Uiso   1.00
C154   C     0.79240   0.40474   0.20741   0.00000  Uiso   1.00
C155   C     0.82314   0.11583   0.24976   0.00000  Uiso   1.00
C156   C     0.82304   0.38418   0.24742   0.00000  Uiso   1.00
C157   C     0.84446   0.09071   0.21611   0.00000  Uiso   1.00
C158   C     0.84387   0.40929   0.28703   0.00000  Uiso   1.00
C159   C     0.83656   0.04504   0.21418   0.00000  Uiso   1.00
C160   C     0.83599   0.45496   0.28673   0.00000  Uiso   1.00
C161   C     0.80696   0.02421   0.24560   0.00000  Uiso   1.00
C162   C     0.80692   0.47582   0.24700   0.00000  Uiso   1.00
C163   C     0.78823   0.26227   0.04620   0.00000  Uiso   1.00
C164   C     0.87734   0.26470   0.45331   0.00000  Uiso   1.00
H165   H     0.75267   0.27246   0.02325   0.00000  Uiso   1.00
H166   H     0.91204   0.27679   0.47589   0.00000  Uiso   1.00
C167   C     0.78918   0.26220   0.09602   0.00000  Uiso   1.00
C168   C     0.87645   0.26458   0.40352   0.00000  Uiso   1.00
N169   N     0.83333   0.24999   0.12623   0.00000  Uiso   1.00
N170   N     0.83333   0.25001   0.37376   0.00000  Uiso   1.00
C171   C     0.87741   0.23779   0.10820   0.00000  Uiso   1.00
C172   C     0.79020   0.23549   0.39220   0.00000  Uiso   1.00
H173   H     0.91218   0.22772   0.13217   0.00000  Uiso   1.00
H174   H     0.75627   0.22362   0.36854   0.00000  Uiso   1.00
C175   C     0.87831   0.23792   0.05866   0.00000  Uiso   1.00
C176   C     0.78925   0.23552   0.44174   0.00000  Uiso   1.00
H177   H     0.91383   0.22775   0.04557   0.00000  Uiso   1.00
H178   H     0.75455   0.22344   0.45519   0.00000  Uiso   1.00
C179   C     0.83327   0.25015   0.02660   0.00000  Uiso   1.00
C180   C     0.83327   0.25016   0.47335   0.00000  Uiso   1.00
N181   N     0.75098   0.02713   0.30925   0.00000  Uiso   1.00
O182   O     0.71710   0.49687   0.29209   0.00000  Uiso   1.00
O183   O     0.75548   0.03676   0.35433   0.00000  Uiso   1.00
N184   N     0.75198   0.47297   0.16763   0.00000  Uiso   1.00
O185   O     0.71796   0.00329   0.17515   0.00000  Uiso   1.00
O186   O     0.75719   0.46340   0.12391   0.00000  Uiso   1.00
N187   N     0.76576   0.12172   0.31215   0.00000  Uiso   1.00
O188   O     0.78669   0.12697   0.35645   0.00000  Uiso   1.00
O189   O     0.72366   0.14404   0.29502   0.00000  Uiso   1.00
N190   N     0.76644   0.37835   0.16900   0.00000  Uiso   1.00
O191   O     0.72467   0.35555   0.17459   0.00000  Uiso   1.00
O192   O     0.78775   0.37313   0.13059   0.00000  Uiso   1.00
H193   H     0.86807   0.10635   0.19189   0.00000  Uiso   1.00
H194   H     0.86711   0.39363   0.31788   0.00000  Uiso   1.00
H195   H     0.85490   0.02556   0.18913   0.00000  Uiso   1.00
H196   H     0.85395   0.47442   0.31693   0.00000  Uiso   1.00
H197   H     0.75442   0.27208   0.11044   0.00000  Uiso   1.00
H198   H     0.91042   0.27629   0.38870   0.00000  Uiso   1.00
O199   O     0.16667   0.68453   0.28974   0.00000  Uiso   1.00
O200   O     0.16666   0.81546   0.21026   0.00000  Uiso   1.00
O201   O     0.16667   0.68453   0.21026   0.00000  Uiso   1.00
O202   O     0.16666   0.81547   0.28974   0.00000  Uiso   1.00
C203   C     0.16474   0.66375   0.25009   0.00000  Uiso   1.00
C204   C     0.16469   0.83625   0.24937   0.00000  Uiso   1.00
O205   O     0.09058   0.75000   0.28044   0.00000  Uiso   1.00
O206   O     0.24275   0.75000   0.21955   0.00000  Uiso   1.00
O207   O     0.09058   0.74999   0.20096   0.00000  Uiso   1.00
O208   O     0.24275   0.75000   0.29904   0.00000  Uiso   1.00
C209   C     0.06700   0.75004   0.23754   0.00000  Uiso   1.00
C210   C     0.26633   0.75001   0.26246   0.00000  Uiso   1.00
Zn211  Zn    0.16667   0.75000   0.30307   0.00000  Uiso   1.00
Zn212  Zn    0.16667   0.74999   0.19693   0.00000  Uiso   1.00
C213   C     0.01201   0.75016   0.23080   0.00000  Uiso   1.00
C214   C     0.32134   0.74998   0.26920   0.00000  Uiso   1.00
H215   H     0.32478   0.75044   0.19436   0.00000  Uiso   1.00
H216   H     0.00859   0.74977   0.30564   0.00000  Uiso   1.00
C217   C     0.11704   0.54892   0.27889   0.00000  Uiso   1.00
C218   C     0.11749   0.95115   0.20720   0.00000  Uiso   1.00
C219   C     0.12537   0.59530   0.28105   0.00000  Uiso   1.00
C220   C     0.12574   0.90474   0.20741   0.00000  Uiso   1.00
C221   C     0.15648   0.61583   0.24976   0.00000  Uiso   1.00
C222   C     0.15637   0.88418   0.24742   0.00000  Uiso   1.00
C223   C     0.17779   0.59071   0.21611   0.00000  Uiso   1.00
C224   C     0.17720   0.90929   0.28703   0.00000  Uiso   1.00
C225   C     0.16989   0.54504   0.21418   0.00000  Uiso   1.00
C226   C     0.16932   0.95496   0.28673   0.00000  Uiso   1.00
C227   C     0.14029   0.52421   0.24560   0.00000  Uiso   1.00
C228   C     0.14025   0.97582   0.24700   0.00000  Uiso   1.00
C229   C     0.12156   0.76227   0.04620   0.00000  Uiso   1.00
C230   C     0.21067   0.76470   0.45331   0.00000  Uiso   1.00
H231   H     0.08600   0.77246   0.02325   0.00000  Uiso   1.00
H232   H     0.24538   0.77679   0.47589   0.00000  Uiso   1.00
C233   C     0.12252   0.76220   0.09602   0.00000  Uiso   1.00
C234   C     0.20979   0.76458   0.40352   0.00000  Uiso   1.00
N235   N     0.16667   0.74999   0.12623   0.00000  Uiso   1.00
N236   N     0.16667   0.75001   0.37376   0.00000  Uiso   1.00
C237   C     0.21075   0.73779   0.10820   0.00000  Uiso   1.00
C238   C     0.12353   0.73549   0.39220   0.00000  Uiso   1.00
H239   H     0.24551   0.72772   0.13217   0.00000  Uiso   1.00
H240   H     0.08961   0.72362   0.36854   0.00000  Uiso   1.00
C241   C     0.21164   0.73792   0.05866   0.00000  Uiso   1.00
C242   C     0.12258   0.73552   0.44174   0.00000  Uiso   1.00
H243   H     0.24716   0.72775   0.04557   0.00000  Uiso   1.00
H244   H     0.08788   0.72344   0.45519   0.00000  Uiso   1.00
C245   C     0.16660   0.75015   0.02660   0.00000  Uiso   1.00
C246   C     0.16660   0.75016   0.47335   0.00000  Uiso   1.00
N247   N     0.08432   0.52713   0.30925   0.00000  Uiso   1.00
O248   O     0.05044   0.99687   0.29209   0.00000  Uiso   1.00
O249   O     0.08882   0.53676   0.35433   0.00000  Uiso   1.00
N250   N     0.08531   0.97297   0.16763   0.00000  Uiso   1.00
O251   O     0.05129   0.50329   0.17515   0.00000  Uiso   1.00
O252   O     0.09052   0.96340   0.12391   0.00000  Uiso   1.00
N253   N     0.09910   0.62172   0.31215   0.00000  Uiso   1.00
O254   O     0.12002   0.62697   0.35645   0.00000  Uiso   1.00
O255   O     0.05700   0.64404   0.29502   0.00000  Uiso   1.00
N256   N     0.09978   0.87835   0.16900   0.00000  Uiso   1.00
O257   O     0.05801   0.85555   0.17459   0.00000  Uiso   1.00
O258   O     0.12108   0.87313   0.13059   0.00000  Uiso   1.00
H259   H     0.20141   0.60635   0.19189   0.00000  Uiso   1.00
H260   H     0.20044   0.89363   0.31788   0.00000  Uiso   1.00
H261   H     0.18823   0.52556   0.18913   0.00000  Uiso   1.00
H262   H     0.18729   0.97442   0.31693   0.00000  Uiso   1.00
H263   H     0.08776   0.77208   0.11044   0.00000  Uiso   1.00
H264   H     0.24375   0.77629   0.38870   0.00000  Uiso   1.00
O265   O     0.50000   0.68453   0.28974   0.00000  Uiso   1.00
O266   O     0.50000   0.81546   0.21026   0.00000  Uiso   1.00
O267   O     0.50000   0.68453   0.21026   0.00000  Uiso   1.00
O268   O     0.50000   0.81547   0.28974   0.00000  Uiso   1.00
C269   C     0.49807   0.66375   0.25009   0.00000  Uiso   1.00
C270   C     0.49803   0.83625   0.24937   0.00000  Uiso   1.00
O271   O     0.42392   0.75000   0.28044   0.00000  Uiso   1.00
O272   O     0.57608   0.75000   0.21955   0.00000  Uiso   1.00
O273   O     0.42392   0.74999   0.20096   0.00000  Uiso   1.00
O274   O     0.57608   0.75000   0.29904   0.00000  Uiso   1.00
C275   C     0.40034   0.75004   0.23754   0.00000  Uiso   1.00
C276   C     0.59967   0.75001   0.26246   0.00000  Uiso   1.00
Zn277  Zn    0.50000   0.75000   0.30307   0.00000  Uiso   1.00
Zn278  Zn    0.50000   0.74999   0.19693   0.00000  Uiso   1.00
C279   C     0.34534   0.75016   0.23080   0.00000  Uiso   1.00
C280   C     0.65467   0.74998   0.26920   0.00000  Uiso   1.00
H281   H     0.65811   0.75044   0.19436   0.00000  Uiso   1.00
H282   H     0.34192   0.74977   0.30564   0.00000  Uiso   1.00
C283   C     0.45037   0.54892   0.27889   0.00000  Uiso   1.00
C284   C     0.45082   0.95115   0.20720   0.00000  Uiso   1.00
C285   C     0.45871   0.59530   0.28105   0.00000  Uiso   1.00
C286   C     0.45907   0.90474   0.20741   0.00000  Uiso   1.00
C287   C     0.48981   0.61583   0.24976   0.00000  Uiso   1.00
C288   C     0.48970   0.88418   0.24742   0.00000  Uiso   1.00
C289   C     0.51113   0.59071   0.21611   0.00000  Uiso   1.00
C290   C     0.51054   0.90929   0.28703   0.00000  Uiso   1.00
C291   C     0.50322   0.54504   0.21418   0.00000  Uiso   1.00
C292   C     0.50265   0.95496   0.28673   0.00000  Uiso   1.00
C293   C     0.47362   0.52421   0.24560   0.00000  Uiso   1.00
C294   C     0.47359   0.97582   0.24700   0.00000  Uiso   1.00
C295   C     0.45489   0.76227   0.04620   0.00000  Uiso   1.00
C296   C     0.54401   0.76470   0.45331   0.00000  Uiso   1.00
H297   H     0.41934   0.77246   0.02325   0.00000  Uiso   1.00
H298   H     0.57871   0.77679   0.47589   0.00000  Uiso   1.00
C299   C     0.45585   0.76220   0.09602   0.00000  Uiso   1.00
C300   C     0.54312   0.76458   0.40352   0.00000  Uiso   1.00
N301   N     0.50000   0.74999   0.12623   0.00000  Uiso   1.00
N302   N     0.50000   0.75001   0.37376   0.00000  Uiso   1.00
C303   C     0.54408   0.73779   0.10820   0.00000  Uiso   1.00
C304   C     0.45687   0.73549   0.39220   0.00000  Uiso   1.00
H305   H     0.57885   0.72772   0.13217   0.00000  Uiso   1.00
H306   H     0.42294   0.72362   0.36854   0.00000  Uiso   1.00
C307   C     0.54498   0.73792   0.05866   0.00000  Uiso   1.00
C308   C     0.45592   0.73552   0.44174   0.00000  Uiso   1.00
H309   H     0.58050   0.72775   0.04557   0.00000  Uiso   1.00
H310   H     0.42122   0.72344   0.45519   0.00000  Uiso   1.00
C311   C     0.49993   0.75015   0.02660   0.00000  Uiso   1.00
C312   C     0.49994   0.75016   0.47335   0.00000  Uiso   1.00
N313   N     0.41765   0.52713   0.30925   0.00000  Uiso   1.00
O314   O     0.38377   0.99687   0.29209   0.00000  Uiso   1.00
O315   O     0.42215   0.53676   0.35433   0.00000  Uiso   1.00
N316   N     0.41864   0.97297   0.16763   0.00000  Uiso   1.00
O317   O     0.38463   0.50329   0.17515   0.00000  Uiso   1.00
O318   O     0.42386   0.96340   0.12391   0.00000  Uiso   1.00
N319   N     0.43243   0.62172   0.31215   0.00000  Uiso   1.00
O320   O     0.45336   0.62697   0.35645   0.00000  Uiso   1.00
O321   O     0.39033   0.64404   0.29502   0.00000  Uiso   1.00
N322   N     0.43311   0.87835   0.16900   0.00000  Uiso   1.00
O323   O     0.39134   0.85555   0.17459   0.00000  Uiso   1.00
O324   O     0.45441   0.87313   0.13059   0.00000  Uiso   1.00
H325   H     0.53474   0.60635   0.19189   0.00000  Uiso   1.00
H326   H     0.53377   0.89363   0.31788   0.00000  Uiso   1.00
H327   H     0.52156   0.52556   0.18913   0.00000  Uiso   1.00
H328   H     0.52062   0.97442   0.31693   0.00000  Uiso   1.00
H329   H     0.42109   0.77208   0.11044   0.00000  Uiso   1.00
H330   H     0.57708   0.77629   0.38870   0.00000  Uiso   1.00
O331   O     0.83334   0.68453   0.28974   0.00000  Uiso   1.00
O332   O     0.83333   0.81546   0.21026   0.00000  Uiso   1.00
O333   O     0.83334   0.68453   0.21026   0.00000  Uiso   1.00
O334   O     0.83333   0.81547   0.28974   0.00000  Uiso   1.00
C335   C     0.83141   0.66375   0.25009   0.00000  Uiso   1.00
C336   C     0.83136   0.83625   0.24937   0.00000  Uiso   1.00
O337   O     0.75725   0.75000   0.28044   0.00000  Uiso   1.00
O338   O     0.90942   0.75000   0.21955   0.00000  Uiso   1.00
O339   O     0.75725   0.74999   0.20096   0.00000  Uiso   1.00
O340   O     0.90942   0.75000   0.29904   0.00000  Uiso   1.00
C341   C     0.73367   0.75004   0.23754   0.00000  Uiso   1.00
C342   C     0.93300   0.75001   0.26246   0.00000  Uiso   1.00
Zn343  Zn    0.83333   0.75000   0.30307   0.00000  Uiso   1.00
Zn344  Zn    0.83333   0.74999   0.19693   0.00000  Uiso   1.00
C345   C     0.67868   0.75016   0.23080   0.00000  Uiso   1.00
C346   C     0.98801   0.74998   0.26920   0.00000  Uiso   1.00
H347   H     0.99144   0.75044   0.19436   0.00000  Uiso   1.00
H348   H     0.67526   0.74977   0.30564   0.00000  Uiso   1.00
C349   C     0.78371   0.54892   0.27889   0.00000  Uiso   1.00
C350   C     0.78416   0.95115   0.20720   0.00000  Uiso   1.00
C351   C     0.79204   0.59530   0.28105   0.00000  Uiso   1.00
C352   C     0.79240   0.90474   0.20741   0.00000  Uiso   1.00
C353   C     0.82314   0.61583   0.24976   0.00000  Uiso   1.00
C354   C     0.82304   0.88418   0.24742   0.00000  Uiso   1.00
C355   C     0.84446   0.59071   0.21611   0.00000  Uiso   1.00
C356   C     0.84387   0.90929   0.28703   0.00000  Uiso   1.00
C357   C     0.83656   0.54504   0.21418   0.00000  Uiso   1.00
C358   C     0.83599   0.95496   0.28673   0.00000  Uiso   1.00
C359   C     0.80696   0.52421   0.24560   0.00000  Uiso   1.00
C360   C     0.80692   0.97582   0.24700   0.00000  Uiso   1.00
C361   C     0.78823   0.76227   0.04620   0.00000  Uiso   1.00
C362   C     0.87734   0.76470   0.45331   0.00000  Uiso   1.00
H363   H     0.75267   0.77246   0.02325   0.00000  Uiso   1.00
H364   H     0.91204   0.77679   0.47589   0.00000  Uiso   1.00
C365   C     0.78918   0.76220   0.09602   0.00000  Uiso   1.00
C366   C     0.87645   0.76458   0.40352   0.00000  Uiso   1.00
N367   N     0.83333   0.74999   0.12623   0.00000  Uiso   1.00
N368   N     0.83333   0.75001   0.37376   0.00000  Uiso   1.00
C369   C     0.87741   0.73779   0.10820   0.00000  Uiso   1.00
C370   C     0.79020   0.73549   0.39220   0.00000  Uiso   1.00
H371   H     0.91218   0.72772   0.13217   0.00000  Uiso   1.00
H372   H     0.75627   0.72362   0.36854   0.00000  Uiso   1.00
C373   C     0.87831   0.73792   0.05866   0.00000  Uiso   1.00
C374   C     0.78925   0.73552   0.44174   0.00000  Uiso   1.00
H375   H     0.91383   0.72775   0.04557   0.00000  Uiso   1.00
H376   H     0.75455   0.72344   0.45519   0.00000  Uiso   1.00
C377   C     0.83327   0.75015   0.02660   0.00000  Uiso   1.00
C378   C     0.83327   0.75016   0.47335   0.00000  Uiso   1.00
N379   N     0.75098   0.52713   0.30925   0.00000  Uiso   1.00
O380   O     0.71710   0.99687   0.29209   0.00000  Uiso   1.00
O381   O     0.75548   0.53676   0.35433   0.00000  Uiso   1.00
N382   N     0.75198   0.97297   0.16763   0.00000  Uiso   1.00
O383   O     0.71796   0.50329   0.17515   0.00000  Uiso   1.00
O384   O     0.75719   0.96340   0.12391   0.00000  Uiso   1.00
N385   N     0.76576   0.62172   0.31215   0.00000  Uiso   1.00
O386   O     0.78669   0.62697   0.35645   0.00000  Uiso   1.00
O387   O     0.72366   0.64404   0.29502   0.00000  Uiso   1.00
N388   N     0.76644   0.87835   0.16900   0.00000  Uiso   1.00
O389   O     0.72467   0.85555   0.17459   0.00000  Uiso   1.00
O390   O     0.78775   0.87313   0.13059   0.00000  Uiso   1.00
H391   H     0.86807   0.60635   0.19189   0.00000  Uiso   1.00
H392   H     0.86711   0.89363   0.31788   0.00000  Uiso   1.00
H393   H     0.85490   0.52556   0.18913   0.00000  Uiso   1.00
H394   H     0.85395   0.97442   0.31693   0.00000  Uiso   1.00
H395   H     0.75442   0.77208   0.11044   0.00000  Uiso   1.00
H396   H     0.91042   0.77629   0.38870   0.00000  Uiso   1.00
O397   O     0.16667   0.18453   0.78974   0.00000  Uiso   1.00
O398   O     0.16666   0.31546   0.71026   0.00000  Uiso   1.00
O399   O     0.16667   0.18453   0.71026   0.00000  Uiso   1.00
O400   O     0.16666   0.31547   0.78974   0.00000  Uiso   1.00
C401   C     0.16474   0.16375   0.75009   0.00000  Uiso   1.00
C402   C     0.16469   0.33625   0.74937   0.00000  Uiso   1.00
O403   O     0.09058   0.25000   0.78044   0.00000  Uiso   1.00
O404   O     0.24275   0.25000   0.71955   0.00000  Uiso   1.00
O405   O     0.09058   0.24999   0.70096   0.00000  Uiso   1.00
O406   O     0.24275   0.25000   0.79904   0.00000  Uiso   1.00
C407   C     0.06700   0.25004   0.73754   0.00000  Uiso   1.00
C408   C     0.26633   0.25001   0.76246   0.00000  Uiso   1.00
Zn409  Zn    0.16667   0.25000   0.80307   0.00000  Uiso   1.00
Zn410  Zn    0.16667   0.24999   0.69693   0.00000  Uiso   1.00
C411   C     0.01201   0.25016   0.73080   0.00000  Uiso   1.00
C412   C     0.32134   0.24998   0.76920   0.00000  Uiso   1.00
H413   H     0.32478   0.25044   0.69436   0.00000  Uiso   1.00
H414   H     0.00859   0.24977   0.80564   0.00000  Uiso   1.00
C415   C     0.11704   0.04892   0.77889   0.00000  Uiso   1.00
C416   C     0.11749   0.45115   0.70720   0.00000  Uiso   1.00
C417   C     0.12537   0.09530   0.78105   0.00000  Uiso   1.00
C418   C     0.12574   0.40474   0.70741   0.00000  Uiso   1.00
C419   C     0.15648   0.11583   0.74976   0.00000  Uiso   1.00
C420   C     0.15637   0.38418   0.74742   0.00000  Uiso   1.00
C421   C     0.17779   0.09071   0.71611   0.00000  Uiso   1.00
C422   C     0.17720   0.40929   0.78703   0.00000  Uiso   1.00
C423   C     0.16989   0.04504   0.71418   0.00000  Uiso   1.00
C424   C     0.16932   0.45496   0.78673   0.00000  Uiso   1.00
C425   C     0.14029   0.02421   0.74560   0.00000  Uiso   1.00
C426   C     0.14025   0.47582   0.74700   0.00000  Uiso   1.00
C427   C     0.12156   0.26227   0.54620   0.00000  Uiso   1.00
C428   C     0.21067   0.26470   0.95331   0.00000  Uiso   1.00
H429   H     0.08600   0.27246   0.52325   0.00000  Uiso   1.00
H430   H     0.24538   0.27679   0.97589   0.00000  Uiso   1.00
C431   C     0.12252   0.26220   0.59602   0.00000  Uiso   1.00
C432   C     0.20979   0.26458   0.90352   0.00000  Uiso   1.00
N433   N     0.16667   0.24999   0.62623   0.00000  Uiso   1.00
N434   N     0.16667   0.25001   0.87376   0.00000  Uiso   1.00
C435   C     0.21075   0.23779   0.60820   0.00000  Uiso   1.00
C436   C     0.12353   0.23549   0.89220   0.00000  Uiso   1.00
H437   H     0.24551   0.22772   0.63217   0.00000  Uiso   1.00
H438   H     0.08961   0.22362   0.86854   0.00000  Uiso   1.00
C439   C     0.21164   0.23792   0.55866   0.00000  Uiso   1.00
C440   C     0.12258   0.23552   0.94174   0.00000  Uiso   1.00
H441   H     0.24716   0.22775   0.54557   0.00000  Uiso   1.00
H442   H     0.08788   0.22344   0.95519   0.00000  Uiso   1.00
C443   C     0.16660   0.25015   0.52660   0.00000  Uiso   1.00
C444   C     0.16660   0.25016   0.97335   0.00000  Uiso   1.00
N445   N     0.08432   0.02713   0.80925   0.00000  Uiso   1.00
O446   O     0.05044   0.49687   0.79209   0.00000  Uiso   1.00
O447   O     0.08882   0.03676   0.85433   0.00000  Uiso   1.00
N448   N     0.08531   0.47297   0.66763   0.00000  Uiso   1.00
O449   O     0.05129   0.00329   0.67515   0.00000  Uiso   1.00
O450   O     0.09052   0.46340   0.62391   0.00000  Uiso   1.00
N451   N     0.09910   0.12172   0.81215   0.00000  Uiso   1.00
O452   O     0.12002   0.12697   0.85645   0.00000  Uiso   1.00
O453   O     0.05700   0.14404   0.79502   0.00000  Uiso   1.00
N454   N     0.09978   0.37835   0.66900   0.00000  Uiso   1.00
O455   O     0.05801   0.35555   0.67459   0.00000  Uiso   1.00
O456   O     0.12108   0.37313   0.63059   0.00000  Uiso   1.00
H457   H     0.20141   0.10635   0.69189   0.00000  Uiso   1.00
H458   H     0.20044   0.39363   0.81788   0.00000  Uiso   1.00
H459   H     0.18823   0.02556   0.68913   0.00000  Uiso   1.00
H460   H     0.18729   0.47442   0.81693   0.00000  Uiso   1.00
H461   H     0.08776   0.27208   0.61044   0.00000  Uiso   1.00
H462   H     0.24375   0.27629   0.88870   0.00000  Uiso   1.00
O463   O     0.50000   0.18453   0.78974   0.00000  Uiso   1.00
O464   O     0.50000   0.31546   0.71026   0.00000  Uiso   1.00
O465   O     0.50000   0.18453   0.71026   0.00000  Uiso   1.00
O466   O     0.50000   0.31547   0.78974   0.00000  Uiso   1.00
C467   C     0.49807   0.16375   0.75009   0.00000  Uiso   1.00
C468   C     0.49803   0.33625   0.74937   0.00000  Uiso   1.00
O469   O     0.42392   0.25000   0.78044   0.00000  Uiso   1.00
O470   O     0.57608   0.25000   0.71955   0.00000  Uiso   1.00
O471   O     0.42392   0.24999   0.70096   0.00000  Uiso   1.00
O472   O     0.57608   0.25000   0.79904   0.00000  Uiso   1.00
C473   C     0.40034   0.25004   0.73754   0.00000  Uiso   1.00
C474   C     0.59967   0.25001   0.76246   0.00000  Uiso   1.00
Zn475  Zn    0.50000   0.25000   0.80307   0.00000  Uiso   1.00
Zn476  Zn    0.50000   0.24999   0.69693   0.00000  Uiso   1.00
C477   C     0.34534   0.25016   0.73080   0.00000  Uiso   1.00
C478   C     0.65467   0.24998   0.76920   0.00000  Uiso   1.00
H479   H     0.65811   0.25044   0.69436   0.00000  Uiso   1.00
H480   H     0.34192   0.24977   0.80564   0.00000  Uiso   1.00
C481   C     0.45037   0.04892   0.77889   0.00000  Uiso   1.00
C482   C     0.45082   0.45115   0.70720   0.00000  Uiso   1.00
C483   C     0.45871   0.09530   0.78105   0.00000  Uiso   1.00
C484   C     0.45907   0.40474   0.70741   0.00000  Uiso   1.00
C485   C     0.48981   0.11583   0.74976   0.00000  Uiso   1.00
C486   C     0.48970   0.38418   0.74742   0.00000  Uiso   1.00
C487   C     0.51113   0.09071   0.71611   0.00000  Uiso   1.00
C488   C     0.51054   0.40929   0.78703   0.00000  Uiso   1.00
C489   C     0.50322   0.04504   0.71418   0.00000  Uiso   1.00
C490   C     0.50265   0.45496   0.78673   0.00000  Uiso   1.00
C491   C     0.47362   0.02421   0.74560   0.00000  Uiso   1.00
C492   C     0.47359   0.47582   0.74700   0.00000  Uiso   1.00
C493   C     0.45489   0.26227   0.54620   0.00000  Uiso   1.00
C494   C     0.54401   0.26470   0.95331   0.00000  Uiso   1.00
H495   H     0.41934   0.27246   0.52325   0.00000  Uiso   1.00
H496   H     0.57871   0.27679   0.97589   0.00000  Uiso   1.00
C497   C     0.45585   0.26220   0.59602   0.00000  Uiso   1.00
C498   C     0.54312   0.26458   0.90352   0.00000  Uiso   1.00
N499   N     0.50000   0.24999   0.62623   0.00000  Uiso   1.00
N500   N     0.50000   0.25001   0.87376   0.00000  Uiso   1.00
C501   C     0.54408   0.23779   0.60820   0.00000  Uiso   1.00
C502   C     0.45687   0.23549   0.89220   0.00000  Uiso   1.00
H503   H     0.57885   0.22772   0.63217   0.00000  Uiso   1.00
H504   H     0.42294   0.22362   0.86854   0.00000  Uiso   1.00
C505   C     0.54498   0.23792   0.55866   0.00000  Uiso   1.00
C506   C     0.45592   0.23552   0.94174   0.00000  Uiso   1.00
H507   H     0.58050   0.22775   0.54557   0.00000  Uiso   1.00
H508   H     0.42122   0.22344   0.95519   0.00000  Uiso   1.00
C509   C     0.49993   0.25015   0.52660   0.00000  Uiso   1.00
C510   C     0.49994   0.25016   0.97335   0.00000  Uiso   1.00
N511   N     0.41765   0.02713   0.80925   0.00000  Uiso   1.00
O512   O     0.38377   0.49687   0.79209   0.00000  Uiso   1.00
O513   O     0.42215   0.03676   0.85433   0.00000  Uiso   1.00
N514   N     0.41864   0.47297   0.66763   0.00000  Uiso   1.00
O515   O     0.38463   0.00329   0.67515   0.00000  Uiso   1.00
O516   O     0.42386   0.46340   0.62391   0.00000  Uiso   1.00
N517   N     0.43243   0.12172   0.81215   0.00000  Uiso   1.00
O518   O     0.45336   0.12697   0.85645   0.00000  Uiso   1.00
O519   O     0.39033   0.14404   0.79502   0.00000  Uiso   1.00
N520   N     0.43311   0.37835   0.66900   0.00000  Uiso   1.00
O521   O     0.39134   0.35555   0.67459   0.00000  Uiso   1.00
O522   O     0.45441   0.37313   0.63059   0.00000  Uiso   1.00
H523   H     0.53474   0.10635   0.69189   0.00000  Uiso   1.00
H524   H     0.53377   0.39363   0.81788   0.00000  Uiso   1.00
H525   H     0.52156   0.02556   0.68913   0.00000  Uiso   1.00
H526   H     0.52062   0.47442   0.81693   0.00000  Uiso   1.00
H527   H     0.42109   0.27208   0.61044   0.00000  Uiso   1.00
H528   H     0.57708   0.27629   0.88870   0.00000  Uiso   1.00
O529   O     0.83334   0.18453   0.78974   0.00000  Uiso   1.00
O530   O     0.83333   0.31546   0.71026   0.00000  Uiso   1.00
O531   O     0.83334   0.18453   0.71026   0.00000  Uiso   1.00
O532   O     0.83333   0.31547   0.78974   0.00000  Uiso   1.00
C533   C     0.83141   0.16375   0.75009   0.00000  Uiso   1.00
C534   C     0.83136   0.33625   0.74937   0.00000  Uiso   1.00
O535   O     0.75725   0.25000   0.78044   0.00000  Uiso   1.00
O536   O     0.90942   0.25000   0.71955   0.00000  Uiso   1.00
O537   O     0.75725   0.24999   0.70096   0.00000  Uiso   1.00
O538   O     0.90942   0.25000   0.79904   0.00000  Uiso   1.00
C539   C     0.73367   0.25004   0.73754   0.00000  Uiso   1.00
C540   C     0.93300   0.25001   0.76246   0.00000  Uiso   1.00
Zn541  Zn    0.83333   0.25000   0.80307   0.00000  Uiso   1.00
Zn542  Zn    0.83333   0.24999   0.69693   0.00000  Uiso   1.00
C543   C     0.67868   0.25016   0.73080   0.00000  Uiso   1.00
C544   C     0.98801   0.24998   0.76920   0.00000  Uiso   1.00
H545   H     0.99144   0.25044   0.69436   0.00000  Uiso   1.00
H546   H     0.67526   0.24977   0.80564   0.00000  Uiso   1.00
C547   C     0.78371   0.04892   0.77889   0.00000  Uiso   1.00
C548   C     0.78416   0.45115   0.70720   0.00000  Uiso   1.00
C549   C     0.79204   0.09530   0.78105   0.00000  Uiso   1.00
C550   C     0.79240   0.40474   0.70741   0.00000  Uiso   1.00
C551   C     0.82314   0.11583   0.74976   0.00000  Uiso   1.00
C552   C     0.82304   0.38418   0.74742   0.00000  Uiso   1.00
C553   C     0.84446   0.09071   0.71611   0.00000  Uiso   1.00
C554   C     0.84387   0.40929   0.78703   0.00000  Uiso   1.00
C555   C     0.83656   0.04504   0.71418   0.00000  Uiso   1.00
C556   C     0.83599   0.45496   0.78673   0.00000  Uiso   1.00
C557   C     0.80696   0.02421   0.74560   0.00000  Uiso   1.00
C558   C     0.80692   0.47582   0.74700   0.00000  Uiso   1.00
C559   C     0.78823   0.26227   0.54620   0.00000  Uiso   1.00
C560   C     0.87734   0.26470   0.95331   0.00000  Uiso   1.00
H561   H     0.75267   0.27246   0.52325   0.00000  Uiso   1.00
H562   H     0.91204   0.27679   0.97589   0.00000  Uiso   1.00
C563   C     0.78918   0.26220   0.59602   0.00000  Uiso   1.00
C564   C     0.87645   0.26458   0.90352   0.00000  Uiso   1.00
N565   N     0.83333   0.24999   0.62623   0.00000  Uiso   1.00
N566   N     0.83333   0.25001   0.87376   0.00000  Uiso   1.00
C567   C     0.87741   0.23779   0.60820   0.00000  Uiso   1.00
C568   C     0.79020   0.23549   0.89220   0.00000  Uiso   1.00
H569   H     0.91218   0.22772   0.63217   0.00000  Uiso   1.00
H570   H     0.75627   0.22362   0.86854   0.00000  Uiso   1.00
C571   C     0.87831   0.23792   0.55866   0.00000  Uiso   1.00
C572   C     0.78925   0.23552   0.94174   0.00000  Uiso   1.00
H573   H     0.91383   0.22775   0.54557   0.00000  Uiso   1.00
H574   H     0.75455   0.22344   0.95519   0.00000  Uiso   1.00
C575   C     0.83327   0.25015   0.52660   0.00000  Uiso   1.00
C576   C     0.83327   0.25016   0.97335   0.00000  Uiso   1.00
N577   N     0.75098   0.02713   0.80925   0.00000  Uiso   1.00
O578   O     0.71710   0.49687   0.79209   0.00000  Uiso   1.00
O579   O     0.75548   0.03676   0.85433   0.00000  Uiso   1.00
N580   N     0.75198   0.47297   0.66763   0.00000  Uiso   1.00
O581   O     0.71796   0.00329   0.67515   0.00000  Uiso   1.00
O582   O     0.75719   0.46340   0.62391   0.00000  Uiso   1.00
N583   N     0.76576   0.12172   0.81215   0.00000  Uiso   1.00
O584   O     0.78669   0.12697   0.85645   0.00000  Uiso   1.00
O585   O     0.72366   0.14404   0.79502   0.00000  Uiso   1.00
N586   N     0.76644   0.37835   0.66900   0.00000  Uiso   1.00
O587   O     0.72467   0.35555   0.67459   0.00000  Uiso   1.00
O588   O     0.78775   0.37313   0.63059   0.00000  Uiso   1.00
H589   H     0.86807   0.10635   0.69189   0.00000  Uiso   1.00
H590   H     0.86711   0.39363   0.81788   0.00000  Uiso   1.00
H591   H     0.85490   0.02556   0.68913   0.00000  Uiso   1.00
H592   H     0.85395   0.47442   0.81693   0.00000  Uiso   1.00
H593   H     0.75442   0.27208   0.61044   0.00000  Uiso   1.00
H594   H     0.91042   0.27629   0.88870   0.00000  Uiso   1.00
O595   O     0.16667   0.68453   0.78974   0.00000  Uiso   1.00
O596   O     0.16666   0.81546   0.71026   0.00000  Uiso   1.00
O597   O     0.16667   0.68453   0.71026   0.00000  Uiso   1.00
O598   O     0.16666   0.81547   0.78974   0.00000  Uiso   1.00
C599   C     0.16474   0.66375   0.75009   0.00000  Uiso   1.00
C600   C     0.16469   0.83625   0.74937   0.00000  Uiso   1.00
O601   O     0.09058   0.75000   0.78044   0.00000  Uiso   1.00
O602   O     0.24275   0.75000   0.71955   0.00000  Uiso   1.00
O603   O     0.09058   0.74999   0.70096   0.00000  Uiso   1.00
O604   O     0.24275   0.75000   0.79904   0.00000  Uiso   1.00
C605   C     0.06700   0.75004   0.73754   0.00000  Uiso   1.00
C606   C     0.26633   0.75001   0.76246   0.00000  Uiso   1.00
Zn607  Zn    0.16667   0.75000   0.80307   0.00000  Uiso   1.00
Zn608  Zn    0.16667   0.74999   0.69693   0.00000  Uiso   1.00
C609   C     0.01201   0.75016   0.73080   0.00000  Uiso   1.00
C610   C     0.32134   0.74998   0.76920   0.00000  Uiso   1.00
H611   H     0.32478   0.75044   0.69436   0.00000  Uiso   1.00
H612   H     0.00859   0.74977   0.80564   0.00000  Uiso   1.00
C613   C     0.11704   0.54892   0.77889   0.00000  Uiso   1.00
C614   C     0.11749   0.95115   0.70720   0.00000  Uiso   1.00
C615   C     0.12537   0.59530   0.78105   0.00000  Uiso   1.00
C616   C     0.12574   0.90474   0.70741   0.00000  Uiso   1.00
C617   C     0.15648   0.61583   0.74976   0.00000  Uiso   1.00
C618   C     0.15637   0.88418   0.74742   0.00000  Uiso   1.00
C619   C     0.17779   0.59071   0.71611   0.00000  Uiso   1.00
C620   C     0.17720   0.90929   0.78703   0.00000  Uiso   1.00
C621   C     0.16989   0.54504   0.71418   0.00000  Uiso   1.00
C622   C     0.16932   0.95496   0.78673   0.00000  Uiso   1.00
C623   C     0.14029   0.52421   0.74560   0.00000  Uiso   1.00
C624   C     0.14025   0.97582   0.74700   0.00000  Uiso   1.00
C625   C     0.12156   0.76227   0.54620   0.00000  Uiso   1.00
C626   C     0.21067   0.76470   0.95331   0.00000  Uiso   1.00
H627   H     0.08600   0.77246   0.52325   0.00000  Uiso   1.00
H628   H     0.24538   0.77679   0.97589   0.00000  Uiso   1.00
C629   C     0.12252   0.76220   0.59602   0.00000  Uiso   1.00
C630   C     0.20979   0.76458   0.90352   0.00000  Uiso   1.00
N631   N     0.16667   0.74999   0.62623   0.00000  Uiso   1.00
N632   N     0.16667   0.75001   0.87376   0.00000  Uiso   1.00
C633   C     0.21075   0.73779   0.60820   0.00000  Uiso   1.00
C634   C     0.12353   0.73549   0.89220   0.00000  Uiso   1.00
H635   H     0.24551   0.72772   0.63217   0.00000  Uiso   1.00
H636   H     0.08961   0.72362   0.86854   0.00000  Uiso   1.00
C637   C     0.21164   0.73792   0.55866   0.00000  Uiso   1.00
C638   C     0.12258   0.73552   0.94174   0.00000  Uiso   1.00
H639   H     0.24716   0.72775   0.54557   0.00000  Uiso   1.00
H640   H     0.08788   0.72344   0.95519   0.00000  Uiso   1.00
C641   C     0.16660   0.75015   0.52660   0.00000  Uiso   1.00
C642   C     0.16660   0.75016   0.97335   0.00000  Uiso   1.00
N643   N     0.08432   0.52713   0.80925   0.00000  Uiso   1.00
O644   O     0.05044   0.99687   0.79209   0.00000  Uiso   1.00
O645   O     0.08882   0.53676   0.85433   0.00000  Uiso   1.00
N646   N     0.08531   0.97297   0.66763   0.00000  Uiso   1.00
O647   O     0.05129   0.50329   0.67515   0.00000  Uiso   1.00
O648   O     0.09052   0.96340   0.62391   0.00000  Uiso   1.00
N649   N     0.09910   0.62172   0.81215   0.00000  Uiso   1.00
O650   O     0.12002   0.62697   0.85645   0.00000  Uiso   1.00
O651   O     0.05700   0.64404   0.79502   0.00000  Uiso   1.00
N652   N     0.09978   0.87835   0.66900   0.00000  Uiso   1.00
O653   O     0.05801   0.85555   0.67459   0.00000  Uiso   1.00
O654   O     0.12108   0.87313   0.63059   0.00000  Uiso   1.00
H655   H     0.20141   0.60635   0.69189   0.00000  Uiso   1.00
H656   H     0.20044   0.89363   0.81788   0.00000  Uiso   1.00
H657   H     0.18823   0.52556   0.68913   0.00000  Uiso   1.00
H658   H     0.18729   0.97442   0.81693   0.00000  Uiso   1.00
H659   H     0.08776   0.77208   0.61044   0.00000  Uiso   1.00
H660   H     0.24375   0.77629   0.88870   0.00000  Uiso   1.00
O661   O     0.50000   0.68453   0.78974   0.00000  Uiso   1.00
O662   O     0.50000   0.81546   0.71026   0.00000  Uiso   1.00
O663   O     0.50000   0.68453   0.71026   0.00000  Uiso   1.00
O664   O     0.50000   0.81547   0.78974   0.00000  Uiso   1.00
C665   C     0.49807   0.66375   0.75009   0.00000  Uiso   1.00
C666   C     0.49803   0.83625   0.74937   0.00000  Uiso   1.00
O667   O     0.42392   0.75000   0.78044   0.00000  Uiso   1.00
O668   O     0.57608   0.75000   0.71955   0.00000  Uiso   1.00
O669   O     0.42392   0.74999   0.70096   0.00000  Uiso   1.00
O670   O     0.57608   0.75000   0.79904   0.00000  Uiso   1.00
C671   C     0.40034   0.75004   0.73754   0.00000  Uiso   1.00
C672   C     0.59967   0.75001   0.76246   0.00000  Uiso   1.00
Zn673  Zn    0.50000   0.75000   0.80307   0.00000  Uiso   1.00
Zn674  Zn    0.50000   0.74999   0.69693   0.00000  Uiso   1.00
C675   C     0.34534   0.75016   0.73080   0.00000  Uiso   1.00
C676   C     0.65467   0.74998   0.76920   0.00000  Uiso   1.00
H677   H     0.65811   0.75044   0.69436   0.00000  Uiso   1.00
H678   H     0.34192   0.74977   0.80564   0.00000  Uiso   1.00
C679   C     0.45037   0.54892   0.77889   0.00000  Uiso   1.00
C680   C     0.45082   0.95115   0.70720   0.00000  Uiso   1.00
C681   C     0.45871   0.59530   0.78105   0.00000  Uiso   1.00
C682   C     0.45907   0.90474   0.70741   0.00000  Uiso   1.00
C683   C     0.48981   0.61583   0.74976   0.00000  Uiso   1.00
C684   C     0.48970   0.88418   0.74742   0.00000  Uiso   1.00
C685   C     0.51113   0.59071   0.71611   0.00000  Uiso   1.00
C686   C     0.51054   0.90929   0.78703   0.00000  Uiso   1.00
C687   C     0.50322   0.54504   0.71418   0.00000  Uiso   1.00
C688   C     0.50265   0.95496   0.78673   0.00000  Uiso   1.00
C689   C     0.47362   0.52421   0.74560   0.00000  Uiso   1.00
C690   C     0.47359   0.97582   0.74700   0.00000  Uiso   1.00
C691   C     0.45489   0.76227   0.54620   0.00000  Uiso   1.00
C692   C     0.54401   0.76470   0.95331   0.00000  Uiso   1.00
H693   H     0.41934   0.77246   0.52325   0.00000  Uiso   1.00
H694   H     0.57871   0.77679   0.97589   0.00000  Uiso   1.00
C695   C     0.45585   0.76220   0.59602   0.00000  Uiso   1.00
C696   C     0.54312   0.76458   0.90352   0.00000  Uiso   1.00
N697   N     0.50000   0.74999   0.62623   0.00000  Uiso   1.00
N698   N     0.50000   0.75001   0.87376   0.00000  Uiso   1.00
C699   C     0.54408   0.73779   0.60820   0.00000  Uiso   1.00
C700   C     0.45687   0.73549   0.89220   0.00000  Uiso   1.00
H701   H     0.57885   0.72772   0.63217   0.00000  Uiso   1.00
H702   H     0.42294   0.72362   0.86854   0.00000  Uiso   1.00
C703   C     0.54498   0.73792   0.55866   0.00000  Uiso   1.00
C704   C     0.45592   0.73552   0.94174   0.00000  Uiso   1.00
H705   H     0.58050   0.72775   0.54557   0.00000  Uiso   1.00
H706   H     0.42122   0.72344   0.95519   0.00000  Uiso   1.00
C707   C     0.49993   0.75015   0.52660   0.00000  Uiso   1.00
C708   C     0.49994   0.75016   0.97335   0.00000  Uiso   1.00
N709   N     0.41765   0.52713   0.80925   0.00000  Uiso   1.00
O710   O     0.38377   0.99687   0.79209   0.00000  Uiso   1.00
O711   O     0.42215   0.53676   0.85433   0.00000  Uiso   1.00
N712   N     0.41864   0.97297   0.66763   0.00000  Uiso   1.00
O713   O     0.38463   0.50329   0.67515   0.00000  Uiso   1.00
O714   O     0.42386   0.96340   0.62391   0.00000  Uiso   1.00
N715   N     0.43243   0.62172   0.81215   0.00000  Uiso   1.00
O716   O     0.45336   0.62697   0.85645   0.00000  Uiso   1.00
O717   O     0.39033   0.64404   0.79502   0.00000  Uiso   1.00
N718   N     0.43311   0.87835   0.66900   0.00000  Uiso   1.00
O719   O     0.39134   0.85555   0.67459   0.00000  Uiso   1.00
O720   O     0.45441   0.87313   0.63059   0.00000  Uiso   1.00
H721   H     0.53474   0.60635   0.69189   0.00000  Uiso   1.00
H722   H     0.53377   0.89363   0.81788   0.00000  Uiso   1.00
H723   H     0.52156   0.52556   0.68913   0.00000  Uiso   1.00
H724   H     0.52062   0.97442   0.81693   0.00000  Uiso   1.00
H725   H     0.42109   0.77208   0.61044   0.00000  Uiso   1.00
H726   H     0.57708   0.77629   0.88870   0.00000  Uiso   1.00
O727   O     0.83334   0.68453   0.78974   0.00000  Uiso   1.00
O728   O     0.83333   0.81546   0.71026   0.00000  Uiso   1.00
O729   O     0.83334   0.68453   0.71026   0.00000  Uiso   1.00
O730   O     0.83333   0.81547   0.78974   0.00000  Uiso   1.00
C731   C     0.83141   0.66375   0.75009   0.00000  Uiso   1.00
C732   C     0.83136   0.83625   0.74937   0.00000  Uiso   1.00
O733   O     0.75725   0.75000   0.78044   0.00000  Uiso   1.00
O734   O     0.90942   0.75000   0.71955   0.00000  Uiso   1.00
O735   O     0.75725   0.74999   0.70096   0.00000  Uiso   1.00
O736   O     0.90942   0.75000   0.79904   0.00000  Uiso   1.00
C737   C     0.73367   0.75004   0.73754   0.00000  Uiso   1.00
C738   C     0.93300   0.75001   0.76246   0.00000  Uiso   1.00
Zn739  Zn    0.83333   0.75000   0.80307   0.00000  Uiso   1.00
Zn740  Zn    0.83333   0.74999   0.69693   0.00000  Uiso   1.00
C741   C     0.67868   0.75016   0.73080   0.00000  Uiso   1.00
C742   C     0.98801   0.74998   0.76920   0.00000  Uiso   1.00
H743   H     0.99144   0.75044   0.69436   0.00000  Uiso   1.00
H744   H     0.67526   0.74977   0.80564   0.00000  Uiso   1.00
C745   C     0.78371   0.54892   0.77889   0.00000  Uiso   1.00
C746   C     0.78416   0.95115   0.70720   0.00000  Uiso   1.00
C747   C     0.79204   0.59530   0.78105   0.00000  Uiso   1.00
C748   C     0.79240   0.90474   0.70741   0.00000  Uiso   1.00
C749   C     0.82314   0.61583   0.74976   0.00000  Uiso   1.00
C750   C     0.82304   0.88418   0.74742   0.00000  Uiso   1.00
C751   C     0.84446   0.59071   0.71611   0.00000  Uiso   1.00
C752   C     0.84387   0.90929   0.78703   0.00000  Uiso   1.00
C753   C     0.83656   0.54504   0.71418   0.00000  Uiso   1.00
C754   C     0.83599   0.95496   0.78673   0.00000  Uiso   1.00
C755   C     0.80696   0.52421   0.74560   0.00000  Uiso   1.00
C756   C     0.80692   0.97582   0.74700   0.00000  Uiso   1.00
C757   C     0.78823   0.76227   0.54620   0.00000  Uiso   1.00
C758   C     0.87734   0.76470   0.95331   0.00000  Uiso   1.00
H759   H     0.75267   0.77246   0.52325   0.00000  Uiso   1.00
H760   H     0.91204   0.77679   0.97589   0.00000  Uiso   1.00
C761   C     0.78918   0.76220   0.59602   0.00000  Uiso   1.00
C762   C     0.87645   0.76458   0.90352   0.00000  Uiso   1.00
N763   N     0.83333   0.74999   0.62623   0.00000  Uiso   1.00
N764   N     0.83333   0.75001   0.87376   0.00000  Uiso   1.00
C765   C     0.87741   0.73779   0.60820   0.00000  Uiso   1.00
C766   C     0.79020   0.73549   0.89220   0.00000  Uiso   1.00
H767   H     0.91218   0.72772   0.63217   0.00000  Uiso   1.00
H768   H     0.75627   0.72362   0.86854   0.00000  Uiso   1.00
C769   C     0.87831   0.73792   0.55866   0.00000  Uiso   1.00
C770   C     0.78925   0.73552   0.94174   0.00000  Uiso   1.00
H771   H     0.91383   0.72775   0.54557   0.00000  Uiso   1.00
H772   H     0.75455   0.72344   0.95519   0.00000  Uiso   1.00
C773   C     0.83327   0.75015   0.52660   0.00000  Uiso   1.00
C774   C     0.83327   0.75016   0.97335   0.00000  Uiso   1.00
N775   N     0.75098   0.52713   0.80925   0.00000  Uiso   1.00
O776   O     0.71710   0.99687   0.79209   0.00000  Uiso   1.00
O777   O     0.75548   0.53676   0.85433   0.00000  Uiso   1.00
N778   N     0.75198   0.97297   0.66763   0.00000  Uiso   1.00
O779   O     0.71796   0.50329   0.67515   0.00000  Uiso   1.00
O780   O     0.75719   0.96340   0.62391   0.00000  Uiso   1.00
N781   N     0.76576   0.62172   0.81215   0.00000  Uiso   1.00
O782   O     0.78669   0.62697   0.85645   0.00000  Uiso   1.00
O783   O     0.72366   0.64404   0.79502   0.00000  Uiso   1.00
N784   N     0.76644   0.87835   0.66900   0.00000  Uiso   1.00
O785   O     0.72467   0.85555   0.67459   0.00000  Uiso   1.00
O786   O     0.78775   0.87313   0.63059   0.00000  Uiso   1.00
H787   H     0.86807   0.60635   0.69189   0.00000  Uiso   1.00
H788   H     0.86711   0.89363   0.81788   0.00000  Uiso   1.00
H789   H     0.85490   0.52556   0.68913   0.00000  Uiso   1.00
H790   H     0.85395   0.97442   0.81693   0.00000  Uiso   1.00
H791   H     0.75442   0.77208   0.61044   0.00000  Uiso   1.00
H792   H     0.91042   0.77629   0.88870   0.00000  Uiso   1.00
loop_
_geom_bond_atom_site_label_1
_geom_bond_atom_site_label_2
_geom_bond_distance
_geom_bond_site_symmetry_2
_ccdc_geom_bond_type
O1     C5      1.284   .     A
O1     Zn13    1.992   .     S
O2     C6      1.284   .     A
O2     Zn14    1.992   .     S
O3     Zn14    1.983   .     S
O3     C5      1.288   .     A
O4     C6      1.288   .     A
O4     Zn13    1.983   .     S
C5     C23     1.444   .     S
C6     C24     1.444   .     S
O7     C11     1.275   .     A
O7     Zn13    1.970   .     S
O8     C12     1.275   .     A
O8     Zn14    1.970   .     S
O9     Zn14    1.981   .     S
O9     C11     1.277   .     A
O10    C12     1.277   .     A
O10    Zn13    1.981   .     S
C11    C15     1.401   .     S
C12    C16     1.402   .     S
Zn13   N38     2.003   .     S
Zn14   N37     2.003   .     S
C15    C148    1.329   1_455 S
C15    H149    1.088   1_455 S
C16    C81     1.329   .     S
C16    H84     1.088   .     S
H17    C81     1.088   .     S
H18    C148    1.088   1_455 S
C19    N49     1.440   .     S
C19    C21     1.399   .     A
C19    C29     1.406   .     A
C20    C30     1.406   .     A
C20    C22     1.399   .     A
C20    N52     1.440   .     S
C21    N55     1.433   .     S
C21    C23     1.414   .     A
C22    N58     1.433   .     S
C22    C24     1.415   .     A
C23    C25     1.395   .     A
C24    C26     1.395   .     A
C25    C27     1.377   .     A
C25    H61     1.084   .     S
C26    C28     1.377   .     A
C26    H62     1.084   .     S
C27    C29     1.395   .     A
C27    H63     1.084   .     S
C28    C30     1.395   .     A
C28    H64     1.084   .     S
C29    C228    1.442   1_545 S
C30    C227    1.442   .     S
C31    H33     1.083   .     S
C31    C47     1.409   .     A
C31    C35     1.408   .     A
C32    C48     1.409   .     A
C32    C36     1.408   .     A
C32    H34     1.083   .     S
C35    H65     1.081   .     S
C35    N37     1.365   .     A
C36    N38     1.364   .     A
C36    H66     1.081   .     S
N37    C39     1.365   .     A
N38    C40     1.365   .     A
C39    C43     1.407   .     A
C39    H41     1.081   .     S
C40    C44     1.407   .     A
C40    H42     1.081   .     S
C43    H45     1.083   .     S
C43    C47     1.408   .     A
C44    H46     1.083   .     S
C44    C48     1.408   .     A
C47    C444    1.509   1_554 S
C48    C443    1.509   .     S
N49    O51     1.301   .     A
N49    O248    1.301   1_545 S
O50    N247    1.301   .     S
N52    O54     1.301   .     A
N52    O251    1.301   .     S
O53    N250    1.301   1_545 S
N55    O56     1.301   .     A
N55    O57     1.301   .     A
N58    O60     1.301   .     A
N58    O59     1.301   .     A
O67    C71     1.284   .     A
O67    Zn79    1.992   .     S
O68    C72     1.284   .     A
O68    Zn80    1.992   .     S
O69    Zn80    1.983   .     S
O69    C71     1.288   .     A
O70    C72     1.288   .     A
O70    Zn79    1.983   .     S
C71    C89     1.444   .     S
C72    C90     1.444   .     S
O73    C77     1.275   .     A
O73    Zn79    1.970   .     S
O74    C78     1.275   .     A
O74    Zn80    1.970   .     S
O75    Zn80    1.981   .     S
O75    C77     1.277   .     A
O76    C78     1.277   .     A
O76    Zn79    1.981   .     S
C77    C81     1.401   .     S
C78    C82     1.402   .     S
Zn79   N104    2.003   .     S
Zn80   N103    2.003   .     S
C82    C147    1.329   .     S
C82    H150    1.088   .     S
H83    C147    1.088   .     S
C85    N115    1.440   .     S
C85    C87     1.399   .     A
C85    C95     1.406   .     A
C86    C96     1.406   .     A
C86    C88     1.399   .     A
C86    N118    1.440   .     S
C87    N121    1.433   .     S
C87    C89     1.414   .     A
C88    N124    1.433   .     S
C88    C90     1.415   .     A
C89    C91     1.395   .     A
C90    C92     1.395   .     A
C91    C93     1.377   .     A
C91    H127    1.084   .     S
C92    C94     1.377   .     A
C92    H128    1.084   .     S
C93    C95     1.395   .     A
C93    H129    1.084   .     S
C94    C96     1.395   .     A
C94    H130    1.084   .     S
C95    C294    1.442   1_545 S
C96    C293    1.442   .     S
C97    H99     1.083   .     S
C97    C113    1.409   .     A
C97    C101    1.408   .     A
C98    C114    1.409   .     A
C98    C102    1.408   .     A
C98    H100    1.083   .     S
C101   H131    1.081   .     S
C101   N103    1.365   .     A
C102   N104    1.364   .     A
C102   H132    1.081   .     S
N103   C105    1.365   .     A
N104   C106    1.365   .     A
C105   C109    1.407   .     A
C105   H107    1.081   .     S
C106   C110    1.407   .     A
C106   H108    1.081   .     S
C109   H111    1.083   .     S
C109   C113    1.408   .     A
C110   H112    1.083   .     S
C110   C114    1.408   .     A
C113   C510    1.509   1_554 S
C114   C509    1.509   .     S
N115   O117    1.301   .     A
N115   O314    1.301   1_545 S
O116   N313    1.301   .     S
N118   O120    1.301   .     A
N118   O317    1.301   .     S
O119   N316    1.301   1_545 S
N121   O122    1.301   .     A
N121   O123    1.301   .     A
N124   O126    1.301   .     A
N124   O125    1.301   .     A
O133   C137    1.284   .     A
O133   Zn145   1.992   .     S
O134   C138    1.284   .     A
O134   Zn146   1.992   .     S
O135   Zn146   1.983   .     S
O135   C137    1.288   .     A
O136   C138    1.288   .     A
O136   Zn145   1.983   .     S
C137   C155    1.444   .     S
C138   C156    1.444   .     S
O139   C143    1.275   .     A
O139   Zn145   1.970   .     S
O140   C144    1.275   .     A
O140   Zn146   1.970   .     S
O141   Zn146   1.981   .     S
O141   C143    1.277   .     A
O142   C144    1.277   .     A
O142   Zn145   1.981   .     S
C143   C147    1.401   .     S
C144   C148    1.402   .     S
Zn145  N170    2.003   .     S
Zn146  N169    2.003   .     S
C148   C15     1.329   1_655 S
C148   H18     1.088   1_655 S
H149   C15     1.088   1_655 S
C151   N181    1.440   .     S
C151   C153    1.399   .     A
C151   C161    1.406   .     A
C152   C162    1.406   .     A
C152   C154    1.399   .     A
C152   N184    1.440   .     S
C153   N187    1.433   .     S
C153   C155    1.414   .     A
C154   N190    1.433   .     S
C154   C156    1.415   .     A
C155   C157    1.395   .     A
C156   C158    1.395   .     A
C157   C159    1.377   .     A
C157   H193    1.084   .     S
C158   C160    1.377   .     A
C158   H194    1.084   .     S
C159   C161    1.395   .     A
C159   H195    1.084   .     S
C160   C162    1.395   .     A
C160   H196    1.084   .     S
C161   C360    1.442   1_545 S
C162   C359    1.442   .     S
C163   H165    1.083   .     S
C163   C179    1.409   .     A
C163   C167    1.408   .     A
C164   C180    1.409   .     A
C164   C168    1.408   .     A
C164   H166    1.083   .     S
C167   H197    1.081   .     S
C167   N169    1.365   .     A
C168   N170    1.364   .     A
C168   H198    1.081   .     S
N169   C171    1.365   .     A
N170   C172    1.365   .     A
C171   C175    1.407   .     A
C171   H173    1.081   .     S
C172   C176    1.407   .     A
C172   H174    1.081   .     S
C175   H177    1.083   .     S
C175   C179    1.408   .     A
C176   H178    1.083   .     S
C176   C180    1.408   .     A
C179   C576    1.509   1_554 S
C180   C575    1.509   .     S
N181   O183    1.301   .     A
N181   O380    1.301   1_545 S
O182   N379    1.301   .     S
N184   O186    1.301   .     A
N184   O383    1.301   .     S
O185   N382    1.301   1_545 S
N187   O188    1.301   .     A
N187   O189    1.301   .     A
N190   O192    1.301   .     A
N190   O191    1.301   .     A
O199   C203    1.284   .     A
O199   Zn211   1.992   .     S
O200   C204    1.284   .     A
O200   Zn212   1.992   .     S
O201   Zn212   1.983   .     S
O201   C203    1.288   .     A
O202   C204    1.288   .     A
O202   Zn211   1.983   .     S
C203   C221    1.444   .     S
C204   C222    1.444   .     S
O205   C209    1.275   .     A
O205   Zn211   1.970   .     S
O206   C210    1.275   .     A
O206   Zn212   1.970   .     S
O207   Zn212   1.981   .     S
O207   C209    1.277   .     A
O208   C210    1.277   .     A
O208   Zn211   1.981   .     S
C209   C213    1.401   .     S
C210   C214    1.402   .     S
Zn211  N236    2.003   .     S
Zn212  N235    2.003   .     S
C213   C346    1.329   1_455 S
C213   H347    1.088   1_455 S
C214   C279    1.329   .     S
C214   H282    1.088   .     S
H215   C279    1.088   .     S
H216   C346    1.088   1_455 S
C217   N247    1.440   .     S
C217   C219    1.399   .     A
C217   C227    1.406   .     A
C218   C228    1.406   .     A
C218   C220    1.399   .     A
C218   N250    1.440   .     S
C219   N253    1.433   .     S
C219   C221    1.414   .     A
C220   N256    1.433   .     S
C220   C222    1.415   .     A
C221   C223    1.395   .     A
C222   C224    1.395   .     A
C223   C225    1.377   .     A
C223   H259    1.084   .     S
C224   C226    1.377   .     A
C224   H260    1.084   .     S
C225   C227    1.395   .     A
C225   H261    1.084   .     S
C226   C228    1.395   .     A
C226   H262    1.084   .     S
C228   C29     1.442   1_565 S
C229   H231    1.083   .     S
C229   C245    1.409   .     A
C229   C233    1.408   .     A
C230   C246    1.409   .     A
C230   C234    1.408   .     A
C230   H232    1.083   .     S
C233   H263    1.081   .     S
C233   N235    1.365   .     A
C234   N236    1.364   .     A
C234   H264    1.081   .     S
N235   C237    1.365   .     A
N236   C238    1.365   .     A
C237   C241    1.407   .     A
C237   H239    1.081   .     S
C238   C242    1.407   .     A
C238   H240    1.081   .     S
C241   H243    1.083   .     S
C241   C245    1.408   .     A
C242   H244    1.083   .     S
C242   C246    1.408   .     A
C245   C642    1.509   1_554 S
C246   C641    1.509   .     S
N247   O249    1.301   .     A
O248   N49     1.301   1_565 S
N250   O252    1.301   .     A
N250   O53     1.301   1_565 S
N253   O254    1.301   .     A
N253   O255    1.301   .     A
N256   O258    1.301   .     A
N256   O257    1.301   .     A
O265   C269    1.284   .     A
O265   Zn277   1.992   .     S
O266   C270    1.284   .     A
O266   Zn278   1.992   .     S
O267   Zn278   1.983   .     S
O267   C269    1.288   .     A
O268   C270    1.288   .     A
O268   Zn277   1.983   .     S
C269   C287    1.444   .     S
C270   C288    1.444   .     S
O271   C275    1.275   .     A
O271   Zn277   1.970   .     S
O272   C276    1.275   .     A
O272   Zn278   1.970   .     S
O273   Zn278   1.981   .     S
O273   C275    1.277   .     A
O274   C276    1.277   .     A
O274   Zn277   1.981   .     S
C275   C279    1.401   .     S
C276   C280    1.402   .     S
Zn277  N302    2.003   .     S
Zn278  N301    2.003   .     S
C280   C345    1.329   .     S
C280   H348    1.088   .     S
H281   C345    1.088   .     S
C283   N313    1.440   .     S
C283   C285    1.399   .     A
C283   C293    1.406   .     A
C284   C294    1.406   .     A
C284   C286    1.399   .     A
C284   N316    1.440   .     S
C285   N319    1.433   .     S
C285   C287    1.414   .     A
C286   N322    1.433   .     S
C286   C288    1.415   .     A
C287   C289    1.395   .     A
C288   C290    1.395   .     A
C289   C291    1.377   .     A
C289   H325    1.084   .     S
C290   C292    1.377   .     A
C290   H326    1.084   .     S
C291   C293    1.395   .     A
C291   H327    1.084   .     S
C292   C294    1.395   .     A
C292   H328    1.084   .     S
C294   C95     1.442   1_565 S
C295   H297    1.083   .     S
C295   C311    1.409   .     A
C295   C299    1.408   .     A
C296   C312    1.409   .     A
C296   C300    1.408   .     A
C296   H298    1.083   .     S
C299   H329    1.081   .     S
C299   N301    1.365   .     A
C300   N302    1.364   .     A
C300   H330    1.081   .     S
N301   C303    1.365   .     A
N302   C304    1.365   .     A
C303   C307    1.407   .     A
C303   H305    1.081   .     S
C304   C308    1.407   .     A
C304   H306    1.081   .     S
C307   H309    1.083   .     S
C307   C311    1.408   .     A
C308   H310    1.083   .     S
C308   C312    1.408   .     A
C311   C708    1.509   1_554 S
C312   C707    1.509   .     S
N313   O315    1.301   .     A
O314   N115    1.301   1_565 S
N316   O318    1.301   .     A
N316   O119    1.301   1_565 S
N319   O320    1.301   .     A
N319   O321    1.301   .     A
N322   O324    1.301   .     A
N322   O323    1.301   .     A
O331   C335    1.284   .     A
O331   Zn343   1.992   .     S
O332   C336    1.284   .     A
O332   Zn344   1.992   .     S
O333   Zn344   1.983   .     S
O333   C335    1.288   .     A
O334   C336    1.288   .     A
O334   Zn343   1.983   .     S
C335   C353    1.444   .     S
C336   C354    1.444   .     S
O337   C341    1.275   .     A
O337   Zn343   1.970   .     S
O338   C342    1.275   .     A
O338   Zn344   1.970   .     S
O339   Zn344   1.981   .     S
O339   C341    1.277   .     A
O340   C342    1.277   .     A
O340   Zn343   1.981   .     S
C341   C345    1.401   .     S
C342   C346    1.402   .     S
Zn343  N368    2.003   .     S
Zn344  N367    2.003   .     S
C346   C213    1.329   1_655 S
C346   H216    1.088   1_655 S
H347   C213    1.088   1_655 S
C349   N379    1.440   .     S
C349   C351    1.399   .     A
C349   C359    1.406   .     A
C350   C360    1.406   .     A
C350   C352    1.399   .     A
C350   N382    1.440   .     S
C351   N385    1.433   .     S
C351   C353    1.414   .     A
C352   N388    1.433   .     S
C352   C354    1.415   .     A
C353   C355    1.395   .     A
C354   C356    1.395   .     A
C355   C357    1.377   .     A
C355   H391    1.084   .     S
C356   C358    1.377   .     A
C356   H392    1.084   .     S
C357   C359    1.395   .     A
C357   H393    1.084   .     S
C358   C360    1.395   .     A
C358   H394    1.084   .     S
C360   C161    1.442   1_565 S
C361   H363    1.083   .     S
C361   C377    1.409   .     A
C361   C365    1.408   .     A
C362   C378    1.409   .     A
C362   C366    1.408   .     A
C362   H364    1.083   .     S
C365   H395    1.081   .     S
C365   N367    1.365   .     A
C366   N368    1.364   .     A
C366   H396    1.081   .     S
N367   C369    1.365   .     A
N368   C370    1.365   .     A
C369   C373    1.407   .     A
C369   H371    1.081   .     S
C370   C374    1.407   .     A
C370   H372    1.081   .     S
C373   H375    1.083   .     S
C373   C377    1.408   .     A
C374   H376    1.083   .     S
C374   C378    1.408   .     A
C377   C774    1.509   1_554 S
C378   C773    1.509   .     S
N379   O381    1.301   .     A
O380   N181    1.301   1_565 S
N382   O384    1.301   .     A
N382   O185    1.301   1_565 S
N385   O386    1.301   .     A
N385   O387    1.301   .     A
N388   O390    1.301   .     A
N388   O389    1.301   .     A
O397   C401    1.284   .     A
O397   Zn409   1.992   .     S
O398   C402    1.284   .     A
O398   Zn410   1.992   .     S
O399   Zn410   1.983   .     S
O399   C401    1.288   .     A
O400   C402    1.288   .     A
O400   Zn409   1.983   .     S
C401   C419    1.444   .     S
C402   C420    1.444   .     S
O403   C407    1.275   .     A
O403   Zn409   1.970   .     S
O404   C408    1.275   .     A
O404   Zn410   1.970   .     S
O405   Zn410   1.981   .     S
O405   C407    1.277   .     A
O406   C408    1.277   .     A
O406   Zn409   1.981   .     S
C407   C411    1.401   .     S
C408   C412    1.402   .     S
Zn409  N434    2.003   .     S
Zn410  N433    2.003   .     S
C411   C544    1.329   1_455 S
C411   H545    1.088   1_455 S
C412   C477    1.329   .     S
C412   H480    1.088   .     S
H413   C477    1.088   .     S
H414   C544    1.088   1_455 S
C415   N445    1.440   .     S
C415   C417    1.399   .     A
C415   C425    1.406   .     A
C416   C426    1.406   .     A
C416   C418    1.399   .     A
C416   N448    1.440   .     S
C417   N451    1.433   .     S
C417   C419    1.414   .     A
C418   N454    1.433   .     S
C418   C420    1.415   .     A
C419   C421    1.395   .     A
C420   C422    1.395   .     A
C421   C423    1.377   .     A
C421   H457    1.084   .     S
C422   C424    1.377   .     A
C422   H458    1.084   .     S
C423   C425    1.395   .     A
C423   H459    1.084   .     S
C424   C426    1.395   .     A
C424   H460    1.084   .     S
C425   C624    1.442   1_545 S
C426   C623    1.442   .     S
C427   H429    1.083   .     S
C427   C443    1.409   .     A
C427   C431    1.408   .     A
C428   C444    1.409   .     A
C428   C432    1.408   .     A
C428   H430    1.083   .     S
C431   H461    1.081   .     S
C431   N433    1.365   .     A
C432   N434    1.364   .     A
C432   H462    1.081   .     S
N433   C435    1.365   .     A
N434   C436    1.365   .     A
C435   C439    1.407   .     A
C435   H437    1.081   .     S
C436   C440    1.407   .     A
C436   H438    1.081   .     S
C439   H441    1.083   .     S
C439   C443    1.408   .     A
C440   H442    1.083   .     S
C440   C444    1.408   .     A
C444   C47     1.509   1_556 S
N445   O447    1.301   .     A
N445   O644    1.301   1_545 S
O446   N643    1.301   .     S
N448   O450    1.301   .     A
N448   O647    1.301   .     S
O449   N646    1.301   1_545 S
N451   O452    1.301   .     A
N451   O453    1.301   .     A
N454   O456    1.301   .     A
N454   O455    1.301   .     A
O463   C467    1.284   .     A
O463   Zn475   1.992   .     S
O464   C468    1.284   .     A
O464   Zn476   1.992   .     S
O465   Zn476   1.983   .     S
O465   C467    1.288   .     A
O466   C468    1.288   .     A
O466   Zn475   1.983   .     S
C467   C485    1.444   .     S
C468   C486    1.444   .     S
O469   C473    1.275   .     A
O469   Zn475   1.970   .     S
O470   C474    1.275   .     A
O470   Zn476   1.970   .     S
O471   Zn476   1.981   .     S
O471   C473    1.277   .     A
O472   C474    1.277   .     A
O472   Zn475   1.981   .     S
C473   C477    1.401   .     S
C474   C478    1.402   .     S
Zn475  N500    2.003   .     S
Zn476  N499    2.003   .     S
C478   C543    1.329   .     S
C478   H546    1.088   .     S
H479   C543    1.088   .     S
C481   N511    1.440   .     S
C481   C483    1.399   .     A
C481   C491    1.406   .     A
C482   C492    1.406   .     A
C482   C484    1.399   .     A
C482   N514    1.440   .     S
C483   N517    1.433   .     S
C483   C485    1.414   .     A
C484   N520    1.433   .     S
C484   C486    1.415   .     A
C485   C487    1.395   .     A
C486   C488    1.395   .     A
C487   C489    1.377   .     A
C487   H523    1.084   .     S
C488   C490    1.377   .     A
C488   H524    1.084   .     S
C489   C491    1.395   .     A
C489   H525    1.084   .     S
C490   C492    1.395   .     A
C490   H526    1.084   .     S
C491   C690    1.442   1_545 S
C492   C689    1.442   .     S
C493   H495    1.083   .     S
C493   C509    1.409   .     A
C493   C497    1.408   .     A
C494   C510    1.409   .     A
C494   C498    1.408   .     A
C494   H496    1.083   .     S
C497   H527    1.081   .     S
C497   N499    1.365   .     A
C498   N500    1.364   .     A
C498   H528    1.081   .     S
N499   C501    1.365   .     A
N500   C502    1.365   .     A
C501   C505    1.407   .     A
C501   H503    1.081   .     S
C502   C506    1.407   .     A
C502   H504    1.081   .     S
C505   H507    1.083   .     S
C505   C509    1.408   .     A
C506   H508    1.083   .     S
C506   C510    1.408   .     A
C510   C113    1.509   1_556 S
N511   O513    1.301   .     A
N511   O710    1.301   1_545 S
O512   N709    1.301   .     S
N514   O516    1.301   .     A
N514   O713    1.301   .     S
O515   N712    1.301   1_545 S
N517   O518    1.301   .     A
N517   O519    1.301   .     A
N520   O522    1.301   .     A
N520   O521    1.301   .     A
O529   C533    1.284   .     A
O529   Zn541   1.992   .     S
O530   C534    1.284   .     A
O530   Zn542   1.992   .     S
O531   Zn542   1.983   .     S
O531   C533    1.288   .     A
O532   C534    1.288   .     A
O532   Zn541   1.983   .     S
C533   C551    1.444   .     S
C534   C552    1.444   .     S
O535   C539    1.275   .     A
O535   Zn541   1.970   .     S
O536   C540    1.275   .     A
O536   Zn542   1.970   .     S
O537   Zn542   1.981   .     S
O537   C539    1.277   .     A
O538   C540    1.277   .     A
O538   Zn541   1.981   .     S
C539   C543    1.401   .     S
C540   C544    1.402   .     S
Zn541  N566    2.003   .     S
Zn542  N565    2.003   .     S
C544   C411    1.329   1_655 S
C544   H414    1.088   1_655 S
H545   C411    1.088   1_655 S
C547   N577    1.440   .     S
C547   C549    1.399   .     A
C547   C557    1.406   .     A
C548   C558    1.406   .     A
C548   C550    1.399   .     A
C548   N580    1.440   .     S
C549   N583    1.433   .     S
C549   C551    1.414   .     A
C550   N586    1.433   .     S
C550   C552    1.415   .     A
C551   C553    1.395   .     A
C552   C554    1.395   .     A
C553   C555    1.377   .     A
C553   H589    1.084   .     S
C554   C556    1.377   .     A
C554   H590    1.084   .     S
C555   C557    1.395   .     A
C555   H591    1.084   .     S
C556   C558    1.395   .     A
C556   H592    1.084   .     S
C557   C756    1.442   1_545 S
C558   C755    1.442   .     S
C559   H561    1.083   .     S
C559   C575    1.409   .     A
C559   C563    1.408   .     A
C560   C576    1.409   .     A
C560   C564    1.408   .     A
C560   H562    1.083   .     S
C563   H593    1.081   .     S
C563   N565    1.365   .     A
C564   N566    1.364   .     A
C564   H594    1.081   .     S
N565   C567    1.365   .     A
N566   C568    1.365   .     A
C567   C571    1.407   .     A
C567   H569    1.081   .     S
C568   C572    1.407   .     A
C568   H570    1.081   .     S
C571   H573    1.083   .     S
C571   C575    1.408   .     A
C572   H574    1.083   .     S
C572   C576    1.408   .     A
C576   C179    1.509   1_556 S
N577   O579    1.301   .     A
N577   O776    1.301   1_545 S
O578   N775    1.301   .     S
N580   O582    1.301   .     A
N580   O779    1.301   .     S
O581   N778    1.301   1_545 S
N583   O584    1.301   .     A
N583   O585    1.301   .     A
N586   O588    1.301   .     A
N586   O587    1.301   .     A
O595   C599    1.284   .     A
O595   Zn607   1.992   .     S
O596   C600    1.284   .     A
O596   Zn608   1.992   .     S
O597   Zn608   1.983   .     S
O597   C599    1.288   .     A
O598   C600    1.288   .     A
O598   Zn607   1.983   .     S
C599   C617    1.444   .     S
C600   C618    1.444   .     S
O601   C605    1.275   .     A
O601   Zn607   1.970   .     S
O602   C606    1.275   .     A
O602   Zn608   1.970   .     S
O603   Zn608   1.981   .     S
O603   C605    1.277   .     A
O604   C606    1.277   .     A
O604   Zn607   1.981   .     S
C605   C609    1.401   .     S
C606   C610    1.402   .     S
Zn607  N632    2.003   .     S
Zn608  N631    2.003   .     S
C609   C742    1.329   1_455 S
C609   H743    1.088   1_455 S
C610   C675    1.329   .     S
C610   H678    1.088   .     S
H611   C675    1.088   .     S
H612   C742    1.088   1_455 S
C613   N643    1.440   .     S
C613   C615    1.399   .     A
C613   C623    1.406   .     A
C614   C624    1.406   .     A
C614   C616    1.399   .     A
C614   N646    1.440   .     S
C615   N649    1.433   .     S
C615   C617    1.414   .     A
C616   N652    1.433   .     S
C616   C618    1.415   .     A
C617   C619    1.395   .     A
C618   C620    1.395   .     A
C619   C621    1.377   .     A
C619   H655    1.084   .     S
C620   C622    1.377   .     A
C620   H656    1.084   .     S
C621   C623    1.395   .     A
C621   H657    1.084   .     S
C622   C624    1.395   .     A
C622   H658    1.084   .     S
C624   C425    1.442   1_565 S
C625   H627    1.083   .     S
C625   C641    1.409   .     A
C625   C629    1.408   .     A
C626   C642    1.409   .     A
C626   C630    1.408   .     A
C626   H628    1.083   .     S
C629   H659    1.081   .     S
C629   N631    1.365   .     A
C630   N632    1.364   .     A
C630   H660    1.081   .     S
N631   C633    1.365   .     A
N632   C634    1.365   .     A
C633   C637    1.407   .     A
C633   H635    1.081   .     S
C634   C638    1.407   .     A
C634   H636    1.081   .     S
C637   H639    1.083   .     S
C637   C641    1.408   .     A
C638   H640    1.083   .     S
C638   C642    1.408   .     A
C642   C245    1.509   1_556 S
N643   O645    1.301   .     A
O644   N445    1.301   1_565 S
N646   O648    1.301   .     A
N646   O449    1.301   1_565 S
N649   O650    1.301   .     A
N649   O651    1.301   .     A
N652   O654    1.301   .     A
N652   O653    1.301   .     A
O661   C665    1.284   .     A
O661   Zn673   1.992   .     S
O662   C666    1.284   .     A
O662   Zn674   1.992   .     S
O663   Zn674   1.983   .     S
O663   C665    1.288   .     A
O664   C666    1.288   .     A
O664   Zn673   1.983   .     S
C665   C683    1.444   .     S
C666   C684    1.444   .     S
O667   C671    1.275   .     A
O667   Zn673   1.970   .     S
O668   C672    1.275   .     A
O668   Zn674   1.970   .     S
O669   Zn674   1.981   .     S
O669   C671    1.277   .     A
O670   C672    1.277   .     A
O670   Zn673   1.981   .     S
C671   C675    1.401   .     S
C672   C676    1.402   .     S
Zn673  N698    2.003   .     S
Zn674  N697    2.003   .     S
C676   C741    1.329   .     S
C676   H744    1.088   .     S
H677   C741    1.088   .     S
C679   N709    1.440   .     S
C679   C681    1.399   .     A
C679   C689    1.406   .     A
C680   C690    1.406   .     A
C680   C682    1.399   .     A
C680   N712    1.440   .     S
C681   N715    1.433   .     S
C681   C683    1.414   .     A
C682   N718    1.433   .     S
C682   C684    1.415   .     A
C683   C685    1.395   .     A
C684   C686    1.395   .     A
C685   C687    1.377   .     A
C685   H721    1.084   .     S
C686   C688    1.377   .     A
C686   H722    1.084   .     S
C687   C689    1.395   .     A
C687   H723    1.084   .     S
C688   C690    1.395   .     A
C688   H724    1.084   .     S
C690   C491    1.442   1_565 S
C691   H693    1.083   .     S
C691   C707    1.409   .     A
C691   C695    1.408   .     A
C692   C708    1.409   .     A
C692   C696    1.408   .     A
C692   H694    1.083   .     S
C695   H725    1.081   .     S
C695   N697    1.365   .     A
C696   N698    1.364   .     A
C696   H726    1.081   .     S
N697   C699    1.365   .     A
N698   C700    1.365   .     A
C699   C703    1.407   .     A
C699   H701    1.081   .     S
C700   C704    1.407   .     A
C700   H702    1.081   .     S
C703   H705    1.083   .     S
C703   C707    1.408   .     A
C704   H706    1.083   .     S
C704   C708    1.408   .     A
C708   C311    1.509   1_556 S
N709   O711    1.301   .     A
O710   N511    1.301   1_565 S
N712   O714    1.301   .     A
N712   O515    1.301   1_565 S
N715   O716    1.301   .     A
N715   O717    1.301   .     A
N718   O720    1.301   .     A
N718   O719    1.301   .     A
O727   C731    1.284   .     A
O727   Zn739   1.992   .     S
O728   C732    1.284   .     A
O728   Zn740   1.992   .     S
O729   Zn740   1.983   .     S
O729   C731    1.288   .     A
O730   C732    1.288   .     A
O730   Zn739   1.983   .     S
C731   C749    1.444   .     S
C732   C750    1.444   .     S
O733   C737    1.275   .     A
O733   Zn739   1.970   .     S
O734   C738    1.275   .     A
O734   Zn740   1.970   .     S
O735   Zn740   1.981   .     S
O735   C737    1.277   .     A
O736   C738    1.277   .     A
O736   Zn739   1.981   .     S
C737   C741    1.401   .     S
C738   C742    1.402   .     S
Zn739  N764    2.003   .     S
Zn740  N763    2.003   .     S
C742   C609    1.329   1_655 S
C742   H612    1.088   1_655 S
H743   C609    1.088   1_655 S
C745   N775    1.440   .     S
C745   C747    1.399   .     A
C745   C755    1.406   .     A
C746   C756    1.406   .     A
C746   C748    1.399   .     A
C746   N778    1.440   .     S
C747   N781    1.433   .     S
C747   C749    1.414   .     A
C748   N784    1.433   .     S
C748   C750    1.415   .     A
C749   C751    1.395   .     A
C750   C752    1.395   .     A
C751   C753    1.377   .     A
C751   H787    1.084   .     S
C752   C754    1.377   .     A
C752   H788    1.084   .     S
C753   C755    1.395   .     A
C753   H789    1.084   .     S
C754   C756    1.395   .     A
C754   H790    1.084   .     S
C756   C557    1.442   1_565 S
C757   H759    1.083   .     S
C757   C773    1.409   .     A
C757   C761    1.408   .     A
C758   C774    1.409   .     A
C758   C762    1.408   .     A
C758   H760    1.083   .     S
C761   H791    1.081   .     S
C761   N763    1.365   .     A
C762   N764    1.364   .     A
C762   H792    1.081   .     S
N763   C765    1.365   .     A
N764   C766    1.365   .     A
C765   C769    1.407   .     A
C765   H767    1.081   .     S
C766   C770    1.407   .     A
C766   H768    1.081   .     S
C769   H771    1.083   .     S
C769   C773    1.408   .     A
C770   H772    1.083   .     S
C770   C774    1.408   .     A
C774   C377    1.509   1_556 S
N775   O777    1.301   .     A
O776   N577    1.301   1_565 S
N778   O780    1.301   .     A
N778   O581    1.301   1_565 S
N781   O782    1.301   .     A
N781   O783    1.301   .     A
N784   O786    1.301   .     A
N784   O785    1.301   .     A
