data_str_m3_o2_o10_pcu_sym.59
_audit_creation_date              2020-01-03
_audit_creation_method            'Materials Studio'
_symmetry_space_group_name_H-M    'P1'
_symmetry_Int_Tables_number       1
_symmetry_cell_setting            triclinic
loop_
_symmetry_equiv_pos_as_xyz
  x,y,z
_cell_length_a                    25.7200
_cell_length_b                    29.8330
_cell_length_c                    28.3241
_cell_angle_alpha                 88.9107
_cell_angle_beta                  98.4954
_cell_angle_gamma                 90.0235
loop_
_atom_site_label
_atom_site_type_symbol
_atom_site_fract_x
_atom_site_fract_y
_atom_site_fract_z
_atom_site_U_iso_or_equiv
_atom_site_adp_type
_atom_site_occupancy
C1     C     0.16493   0.16373   0.25031   0.00000  Uiso   1.00
C2     C     0.12250   0.23577   0.44192   0.00000  Uiso   1.00
C3     C     0.16668   0.25007   0.02662   0.00000  Uiso   1.00
C4     C     0.16668   0.25014   0.47336   0.00000  Uiso   1.00
C5     C     0.06701   0.25029   0.23756   0.00000  Uiso   1.00
C6     C     0.26632   0.24976   0.26244   0.00000  Uiso   1.00
C7     C     0.01202   0.25110   0.23082   0.00000  Uiso   1.00
C8     C     0.32130   0.24912   0.26918   0.00000  Uiso   1.00
C9     C     0.11582   0.04823   0.27710   0.00000  Uiso   1.00
C10    C     0.10714   0.45009   0.21819   0.00000  Uiso   1.00
C11    C     0.12240   0.09508   0.27819   0.00000  Uiso   1.00
C12    C     0.16480   0.33601   0.24928   0.00000  Uiso   1.00
C13    C     0.11293   0.40310   0.21929   0.00000  Uiso   1.00
C14    C     0.15853   0.11542   0.25073   0.00000  Uiso   1.00
C15    C     0.15804   0.38386   0.24733   0.00000  Uiso   1.00
C16    C     0.18517   0.08965   0.22049   0.00000  Uiso   1.00
C17    C     0.19439   0.41010   0.27677   0.00000  Uiso   1.00
C18    C     0.17587   0.04414   0.21797   0.00000  Uiso   1.00
C19    C     0.18592   0.45567   0.27797   0.00000  Uiso   1.00
C20    C     0.14279   0.02373   0.24649   0.00000  Uiso   1.00
C21    C     0.14369   0.47540   0.24846   0.00000  Uiso   1.00
C22    C     0.08290   0.02388   0.30847   0.00000  Uiso   1.00
C23    C     0.12159   0.26236   0.04617   0.00000  Uiso   1.00
C24    C     0.06525   0.47365   0.18480   0.00000  Uiso   1.00
C25    C     0.08948   0.12256   0.30566   0.00000  Uiso   1.00
C26    C     0.07078   0.37393   0.19439   0.00000  Uiso   1.00
C27    C     0.22506   0.10857   0.19285   0.00000  Uiso   1.00
C28    C     0.21828   0.10515   0.14291   0.00000  Uiso   1.00
C29    C     0.25671   0.12166   0.11705   0.00000  Uiso   1.00
C30    C     0.30241   0.14111   0.14087   0.00000  Uiso   1.00
C31    C     0.30955   0.14438   0.19054   0.00000  Uiso   1.00
C32    C     0.27089   0.12850   0.21649   0.00000  Uiso   1.00
C33    C     0.24255   0.39097   0.30525   0.00000  Uiso   1.00
C34    C     0.21082   0.26458   0.45313   0.00000  Uiso   1.00
C35    C     0.24976   0.39242   0.35532   0.00000  Uiso   1.00
C36    C     0.29542   0.37458   0.38203   0.00000  Uiso   1.00
C37    C     0.00109   0.35585   0.35892   0.00000  Uiso   1.00
C38    C     0.32776   0.35480   0.30909   0.00000  Uiso   1.00
C39    C     0.28178   0.37190   0.28229   0.00000  Uiso   1.00
C40    C     0.12249   0.26231   0.09598   0.00000  Uiso   1.00
C41    C     0.20988   0.26450   0.40332   0.00000  Uiso   1.00
C42    C     0.21081   0.23766   0.10827   0.00000  Uiso   1.00
C43    C     0.12341   0.23575   0.39238   0.00000  Uiso   1.00
C44    C     0.21173   0.23765   0.05873   0.00000  Uiso   1.00
H45    H     0.32483   0.25306   0.19439   0.00000  Uiso   1.00
H46    H     0.08933   0.22414   0.36885   0.00000  Uiso   1.00
H47    H     0.24728   0.22730   0.04569   0.00000  Uiso   1.00
H48    H     0.08770   0.22387   0.45552   0.00000  Uiso   1.00
H49    H     0.06532   0.49190   0.29770   0.00000  Uiso   1.00
H50    H     0.04998   0.00561   0.19432   0.00000  Uiso   1.00
H51    H     0.10723   0.14591   0.33207   0.00000  Uiso   1.00
H52    H     0.08027   0.34322   0.17778   0.00000  Uiso   1.00
H53    H     0.18322   0.08985   0.12408   0.00000  Uiso   1.00
H54    H     0.25117   0.11922   0.07856   0.00000  Uiso   1.00
H55    H     0.33226   0.15366   0.12085   0.00000  Uiso   1.00
H56    H     0.00850   0.24722   0.30560   0.00000  Uiso   1.00
H57    H     0.01187   0.15901   0.20891   0.00000  Uiso   1.00
H58    H     0.27679   0.13124   0.25496   0.00000  Uiso   1.00
H59    H     0.21988   0.40699   0.37358   0.00000  Uiso   1.00
H60    H     0.30064   0.37540   0.42063   0.00000  Uiso   1.00
H61    H     0.03651   0.34224   0.37961   0.00000  Uiso   1.00
H62    H     0.02486   0.34065   0.29124   0.00000  Uiso   1.00
H63    H     0.27680   0.37061   0.24371   0.00000  Uiso   1.00
H64    H     0.19706   0.02378   0.19572   0.00000  Uiso   1.00
H65    H     0.21400   0.47644   0.30010   0.00000  Uiso   1.00
H66    H     0.08603   0.27268   0.02318   0.00000  Uiso   1.00
H67    H     0.24560   0.27655   0.47556   0.00000  Uiso   1.00
H68    H     0.08769   0.27229   0.11037   0.00000  Uiso   1.00
H69    H     0.24387   0.27616   0.38833   0.00000  Uiso   1.00
H70    H     0.24561   0.22766   0.13233   0.00000  Uiso   1.00
N71    N     0.16667   0.24999   0.12623   0.00000  Uiso   1.00
N72    N     0.16667   0.25001   0.37376   0.00000  Uiso   1.00
O73    O     0.16667   0.18454   0.28974   0.00000  Uiso   1.00
O74    O     0.04913   0.45874   0.14550   0.00000  Uiso   1.00
O75    O     0.04175   0.11867   0.29931   0.00000  Uiso   1.00
O76    O     0.02445   0.38335   0.19349   0.00000  Uiso   1.00
O77    O     0.16666   0.31547   0.21026   0.00000  Uiso   1.00
O78    O     0.16667   0.18453   0.21026   0.00000  Uiso   1.00
O79    O     0.16666   0.31547   0.28974   0.00000  Uiso   1.00
O80    O     0.09058   0.25000   0.28044   0.00000  Uiso   1.00
O81    O     0.24275   0.25000   0.21955   0.00000  Uiso   1.00
O82    O     0.09058   0.25000   0.20096   0.00000  Uiso   1.00
O83    O     0.24275   0.25001   0.29903   0.00000  Uiso   1.00
O84    O     0.07676   0.03819   0.34737   0.00000  Uiso   1.00
Zn85   Zn    0.16667   0.25001   0.30307   0.00000  Uiso   1.00
Zn86   Zn    0.16667   0.25000   0.19693   0.00000  Uiso   1.00
C87    C     0.49826   0.16373   0.25031   0.00000  Uiso   1.00
C88    C     0.45584   0.23577   0.44192   0.00000  Uiso   1.00
C89    C     0.50001   0.25007   0.02662   0.00000  Uiso   1.00
C90    C     0.50001   0.25014   0.47336   0.00000  Uiso   1.00
C91    C     0.40034   0.25029   0.23756   0.00000  Uiso   1.00
C92    C     0.59965   0.24976   0.26244   0.00000  Uiso   1.00
C93    C     0.34536   0.25110   0.23082   0.00000  Uiso   1.00
C94    C     0.65463   0.24912   0.26918   0.00000  Uiso   1.00
C95    C     0.44915   0.04823   0.27710   0.00000  Uiso   1.00
C96    C     0.44047   0.45009   0.21819   0.00000  Uiso   1.00
C97    C     0.45573   0.09508   0.27819   0.00000  Uiso   1.00
C98    C     0.49813   0.33601   0.24928   0.00000  Uiso   1.00
C99    C     0.44626   0.40310   0.21929   0.00000  Uiso   1.00
C100   C     0.49186   0.11542   0.25073   0.00000  Uiso   1.00
C101   C     0.49137   0.38386   0.24733   0.00000  Uiso   1.00
C102   C     0.51851   0.08965   0.22049   0.00000  Uiso   1.00
C103   C     0.52772   0.41010   0.27677   0.00000  Uiso   1.00
C104   C     0.50920   0.04414   0.21797   0.00000  Uiso   1.00
C105   C     0.51925   0.45567   0.27797   0.00000  Uiso   1.00
C106   C     0.47613   0.02373   0.24649   0.00000  Uiso   1.00
C107   C     0.47702   0.47540   0.24846   0.00000  Uiso   1.00
C108   C     0.41623   0.02388   0.30847   0.00000  Uiso   1.00
C109   C     0.45492   0.26236   0.04617   0.00000  Uiso   1.00
C110   C     0.39858   0.47365   0.18480   0.00000  Uiso   1.00
C111   C     0.42282   0.12256   0.30566   0.00000  Uiso   1.00
C112   C     0.40411   0.37393   0.19439   0.00000  Uiso   1.00
C113   C     0.55839   0.10857   0.19285   0.00000  Uiso   1.00
C114   C     0.55162   0.10515   0.14291   0.00000  Uiso   1.00
C115   C     0.59005   0.12166   0.11705   0.00000  Uiso   1.00
C116   C     0.63574   0.14111   0.14087   0.00000  Uiso   1.00
C117   C     0.64289   0.14438   0.19054   0.00000  Uiso   1.00
C118   C     0.60422   0.12850   0.21649   0.00000  Uiso   1.00
C119   C     0.57589   0.39097   0.30525   0.00000  Uiso   1.00
C120   C     0.54415   0.26458   0.45313   0.00000  Uiso   1.00
C121   C     0.58310   0.39242   0.35532   0.00000  Uiso   1.00
C122   C     0.62876   0.37458   0.38203   0.00000  Uiso   1.00
C123   C     0.33443   0.35585   0.35892   0.00000  Uiso   1.00
C124   C     0.66110   0.35480   0.30909   0.00000  Uiso   1.00
C125   C     0.61511   0.37190   0.28229   0.00000  Uiso   1.00
C126   C     0.45583   0.26231   0.09598   0.00000  Uiso   1.00
C127   C     0.54321   0.26450   0.40332   0.00000  Uiso   1.00
C128   C     0.54414   0.23766   0.10827   0.00000  Uiso   1.00
C129   C     0.45674   0.23575   0.39238   0.00000  Uiso   1.00
C130   C     0.54507   0.23765   0.05873   0.00000  Uiso   1.00
H131   H     0.65817   0.25306   0.19439   0.00000  Uiso   1.00
H132   H     0.42267   0.22414   0.36885   0.00000  Uiso   1.00
H133   H     0.58061   0.22730   0.04569   0.00000  Uiso   1.00
H134   H     0.42104   0.22387   0.45552   0.00000  Uiso   1.00
H135   H     0.39865   0.49190   0.29770   0.00000  Uiso   1.00
H136   H     0.38332   0.00561   0.19432   0.00000  Uiso   1.00
H137   H     0.44057   0.14591   0.33207   0.00000  Uiso   1.00
H138   H     0.41360   0.34322   0.17778   0.00000  Uiso   1.00
H139   H     0.51655   0.08985   0.12408   0.00000  Uiso   1.00
H140   H     0.58450   0.11922   0.07856   0.00000  Uiso   1.00
H141   H     0.66559   0.15366   0.12085   0.00000  Uiso   1.00
H142   H     0.34183   0.24722   0.30560   0.00000  Uiso   1.00
H143   H     0.34520   0.15901   0.20891   0.00000  Uiso   1.00
H144   H     0.61012   0.13124   0.25496   0.00000  Uiso   1.00
H145   H     0.55322   0.40699   0.37358   0.00000  Uiso   1.00
H146   H     0.63397   0.37540   0.42063   0.00000  Uiso   1.00
H147   H     0.36985   0.34224   0.37961   0.00000  Uiso   1.00
H148   H     0.35819   0.34065   0.29124   0.00000  Uiso   1.00
H149   H     0.61014   0.37061   0.24371   0.00000  Uiso   1.00
H150   H     0.53039   0.02378   0.19572   0.00000  Uiso   1.00
H151   H     0.54733   0.47644   0.30010   0.00000  Uiso   1.00
H152   H     0.41936   0.27268   0.02318   0.00000  Uiso   1.00
H153   H     0.57893   0.27655   0.47556   0.00000  Uiso   1.00
H154   H     0.42102   0.27229   0.11037   0.00000  Uiso   1.00
H155   H     0.57720   0.27616   0.38833   0.00000  Uiso   1.00
H156   H     0.57894   0.22766   0.13233   0.00000  Uiso   1.00
N157   N     0.50000   0.24999   0.12623   0.00000  Uiso   1.00
N158   N     0.50000   0.25001   0.37376   0.00000  Uiso   1.00
O159   O     0.50000   0.18454   0.28974   0.00000  Uiso   1.00
O160   O     0.38246   0.45874   0.14550   0.00000  Uiso   1.00
O161   O     0.37508   0.11867   0.29931   0.00000  Uiso   1.00
O162   O     0.35779   0.38335   0.19349   0.00000  Uiso   1.00
O163   O     0.50000   0.31547   0.21026   0.00000  Uiso   1.00
O164   O     0.50000   0.18453   0.21026   0.00000  Uiso   1.00
O165   O     0.50000   0.31547   0.28974   0.00000  Uiso   1.00
O166   O     0.42392   0.25000   0.28044   0.00000  Uiso   1.00
O167   O     0.57608   0.25000   0.21955   0.00000  Uiso   1.00
O168   O     0.42392   0.25000   0.20096   0.00000  Uiso   1.00
O169   O     0.57608   0.25001   0.29903   0.00000  Uiso   1.00
O170   O     0.41009   0.03819   0.34737   0.00000  Uiso   1.00
Zn171  Zn    0.50000   0.25001   0.30307   0.00000  Uiso   1.00
Zn172  Zn    0.50000   0.25000   0.19693   0.00000  Uiso   1.00
C173   C     0.83160   0.16373   0.25031   0.00000  Uiso   1.00
C174   C     0.78917   0.23577   0.44192   0.00000  Uiso   1.00
C175   C     0.83335   0.25007   0.02662   0.00000  Uiso   1.00
C176   C     0.83335   0.25014   0.47336   0.00000  Uiso   1.00
C177   C     0.73368   0.25029   0.23756   0.00000  Uiso   1.00
C178   C     0.93298   0.24976   0.26244   0.00000  Uiso   1.00
C179   C     0.67869   0.25110   0.23082   0.00000  Uiso   1.00
C180   C     0.98797   0.24912   0.26918   0.00000  Uiso   1.00
C181   C     0.78248   0.04823   0.27710   0.00000  Uiso   1.00
C182   C     0.77381   0.45009   0.21819   0.00000  Uiso   1.00
C183   C     0.78906   0.09508   0.27819   0.00000  Uiso   1.00
C184   C     0.83147   0.33601   0.24928   0.00000  Uiso   1.00
C185   C     0.77959   0.40310   0.21929   0.00000  Uiso   1.00
C186   C     0.82520   0.11542   0.25073   0.00000  Uiso   1.00
C187   C     0.82470   0.38386   0.24733   0.00000  Uiso   1.00
C188   C     0.85184   0.08965   0.22049   0.00000  Uiso   1.00
C189   C     0.86106   0.41010   0.27677   0.00000  Uiso   1.00
C190   C     0.84253   0.04414   0.21797   0.00000  Uiso   1.00
C191   C     0.85259   0.45567   0.27797   0.00000  Uiso   1.00
C192   C     0.80946   0.02373   0.24649   0.00000  Uiso   1.00
C193   C     0.81035   0.47540   0.24846   0.00000  Uiso   1.00
C194   C     0.74957   0.02388   0.30847   0.00000  Uiso   1.00
C195   C     0.78825   0.26236   0.04617   0.00000  Uiso   1.00
C196   C     0.73192   0.47365   0.18480   0.00000  Uiso   1.00
C197   C     0.75615   0.12256   0.30566   0.00000  Uiso   1.00
C198   C     0.73744   0.37393   0.19439   0.00000  Uiso   1.00
C199   C     0.89172   0.10857   0.19285   0.00000  Uiso   1.00
C200   C     0.88495   0.10515   0.14291   0.00000  Uiso   1.00
C201   C     0.92338   0.12166   0.11705   0.00000  Uiso   1.00
C202   C     0.96907   0.14111   0.14087   0.00000  Uiso   1.00
C203   C     0.97622   0.14438   0.19054   0.00000  Uiso   1.00
C204   C     0.93755   0.12850   0.21649   0.00000  Uiso   1.00
C205   C     0.90922   0.39097   0.30525   0.00000  Uiso   1.00
C206   C     0.87748   0.26458   0.45313   0.00000  Uiso   1.00
C207   C     0.91643   0.39242   0.35532   0.00000  Uiso   1.00
C208   C     0.96209   0.37458   0.38203   0.00000  Uiso   1.00
C209   C     0.66776   0.35585   0.35892   0.00000  Uiso   1.00
C210   C     0.99443   0.35480   0.30909   0.00000  Uiso   1.00
C211   C     0.94845   0.37190   0.28229   0.00000  Uiso   1.00
C212   C     0.78916   0.26231   0.09598   0.00000  Uiso   1.00
C213   C     0.87654   0.26450   0.40332   0.00000  Uiso   1.00
C214   C     0.87748   0.23766   0.10827   0.00000  Uiso   1.00
C215   C     0.79008   0.23575   0.39238   0.00000  Uiso   1.00
C216   C     0.87840   0.23765   0.05873   0.00000  Uiso   1.00
H217   H     0.99150   0.25306   0.19439   0.00000  Uiso   1.00
H218   H     0.75600   0.22414   0.36885   0.00000  Uiso   1.00
H219   H     0.91395   0.22730   0.04569   0.00000  Uiso   1.00
H220   H     0.75437   0.22387   0.45552   0.00000  Uiso   1.00
H221   H     0.73199   0.49190   0.29770   0.00000  Uiso   1.00
H222   H     0.71665   0.00561   0.19432   0.00000  Uiso   1.00
H223   H     0.77390   0.14591   0.33207   0.00000  Uiso   1.00
H224   H     0.74694   0.34322   0.17778   0.00000  Uiso   1.00
H225   H     0.84989   0.08985   0.12408   0.00000  Uiso   1.00
H226   H     0.91784   0.11922   0.07856   0.00000  Uiso   1.00
H227   H     0.99893   0.15366   0.12085   0.00000  Uiso   1.00
H228   H     0.67516   0.24722   0.30560   0.00000  Uiso   1.00
H229   H     0.67854   0.15901   0.20891   0.00000  Uiso   1.00
H230   H     0.94346   0.13124   0.25496   0.00000  Uiso   1.00
H231   H     0.88655   0.40699   0.37358   0.00000  Uiso   1.00
H232   H     0.96730   0.37540   0.42063   0.00000  Uiso   1.00
H233   H     0.70318   0.34224   0.37961   0.00000  Uiso   1.00
H234   H     0.69153   0.34065   0.29124   0.00000  Uiso   1.00
H235   H     0.94347   0.37061   0.24371   0.00000  Uiso   1.00
H236   H     0.86372   0.02378   0.19572   0.00000  Uiso   1.00
H237   H     0.88067   0.47644   0.30010   0.00000  Uiso   1.00
H238   H     0.75269   0.27268   0.02318   0.00000  Uiso   1.00
H239   H     0.91227   0.27655   0.47556   0.00000  Uiso   1.00
H240   H     0.75435   0.27229   0.11037   0.00000  Uiso   1.00
H241   H     0.91054   0.27616   0.38833   0.00000  Uiso   1.00
H242   H     0.91228   0.22766   0.13233   0.00000  Uiso   1.00
N243   N     0.83333   0.24999   0.12623   0.00000  Uiso   1.00
N244   N     0.83333   0.25001   0.37376   0.00000  Uiso   1.00
O245   O     0.83334   0.18454   0.28974   0.00000  Uiso   1.00
O246   O     0.71580   0.45874   0.14550   0.00000  Uiso   1.00
O247   O     0.70841   0.11867   0.29931   0.00000  Uiso   1.00
O248   O     0.69112   0.38335   0.19349   0.00000  Uiso   1.00
O249   O     0.83333   0.31547   0.21026   0.00000  Uiso   1.00
O250   O     0.83334   0.18453   0.21026   0.00000  Uiso   1.00
O251   O     0.83333   0.31547   0.28974   0.00000  Uiso   1.00
O252   O     0.75725   0.25000   0.28044   0.00000  Uiso   1.00
O253   O     0.90942   0.25000   0.21955   0.00000  Uiso   1.00
O254   O     0.75725   0.25000   0.20096   0.00000  Uiso   1.00
O255   O     0.90942   0.25001   0.29903   0.00000  Uiso   1.00
O256   O     0.74342   0.03819   0.34737   0.00000  Uiso   1.00
Zn257  Zn    0.83333   0.25001   0.30307   0.00000  Uiso   1.00
Zn258  Zn    0.83333   0.25000   0.19693   0.00000  Uiso   1.00
C259   C     0.16493   0.66373   0.25031   0.00000  Uiso   1.00
C260   C     0.12250   0.73577   0.44192   0.00000  Uiso   1.00
C261   C     0.16668   0.75007   0.02662   0.00000  Uiso   1.00
C262   C     0.16668   0.75014   0.47336   0.00000  Uiso   1.00
C263   C     0.06701   0.75029   0.23756   0.00000  Uiso   1.00
C264   C     0.26632   0.74976   0.26244   0.00000  Uiso   1.00
C265   C     0.01202   0.75110   0.23082   0.00000  Uiso   1.00
C266   C     0.32130   0.74912   0.26918   0.00000  Uiso   1.00
C267   C     0.11582   0.54823   0.27710   0.00000  Uiso   1.00
C268   C     0.10714   0.95009   0.21819   0.00000  Uiso   1.00
C269   C     0.12240   0.59508   0.27819   0.00000  Uiso   1.00
C270   C     0.16480   0.83601   0.24928   0.00000  Uiso   1.00
C271   C     0.11293   0.90310   0.21929   0.00000  Uiso   1.00
C272   C     0.15853   0.61542   0.25073   0.00000  Uiso   1.00
C273   C     0.15804   0.88386   0.24733   0.00000  Uiso   1.00
C274   C     0.18517   0.58965   0.22049   0.00000  Uiso   1.00
C275   C     0.19439   0.91010   0.27677   0.00000  Uiso   1.00
C276   C     0.17587   0.54414   0.21797   0.00000  Uiso   1.00
C277   C     0.18592   0.95567   0.27797   0.00000  Uiso   1.00
C278   C     0.14279   0.52373   0.24649   0.00000  Uiso   1.00
C279   C     0.14369   0.97540   0.24846   0.00000  Uiso   1.00
C280   C     0.08290   0.52388   0.30847   0.00000  Uiso   1.00
C281   C     0.12159   0.76236   0.04617   0.00000  Uiso   1.00
C282   C     0.06525   0.97365   0.18480   0.00000  Uiso   1.00
C283   C     0.08948   0.62256   0.30566   0.00000  Uiso   1.00
C284   C     0.07078   0.87393   0.19439   0.00000  Uiso   1.00
C285   C     0.22506   0.60857   0.19285   0.00000  Uiso   1.00
C286   C     0.21828   0.60515   0.14291   0.00000  Uiso   1.00
C287   C     0.25671   0.62166   0.11705   0.00000  Uiso   1.00
C288   C     0.30241   0.64111   0.14087   0.00000  Uiso   1.00
C289   C     0.30955   0.64438   0.19054   0.00000  Uiso   1.00
C290   C     0.27089   0.62850   0.21649   0.00000  Uiso   1.00
C291   C     0.24255   0.89097   0.30525   0.00000  Uiso   1.00
C292   C     0.21082   0.76458   0.45313   0.00000  Uiso   1.00
C293   C     0.24976   0.89242   0.35532   0.00000  Uiso   1.00
C294   C     0.29542   0.87458   0.38203   0.00000  Uiso   1.00
C295   C     0.00109   0.85585   0.35892   0.00000  Uiso   1.00
C296   C     0.32776   0.85480   0.30909   0.00000  Uiso   1.00
C297   C     0.28178   0.87190   0.28229   0.00000  Uiso   1.00
C298   C     0.12249   0.76231   0.09598   0.00000  Uiso   1.00
C299   C     0.20988   0.76450   0.40332   0.00000  Uiso   1.00
C300   C     0.21081   0.73766   0.10827   0.00000  Uiso   1.00
C301   C     0.12341   0.73575   0.39238   0.00000  Uiso   1.00
C302   C     0.21173   0.73765   0.05873   0.00000  Uiso   1.00
H303   H     0.32483   0.75306   0.19439   0.00000  Uiso   1.00
H304   H     0.08933   0.72414   0.36885   0.00000  Uiso   1.00
H305   H     0.24728   0.72730   0.04569   0.00000  Uiso   1.00
H306   H     0.08770   0.72387   0.45552   0.00000  Uiso   1.00
H307   H     0.06532   0.99190   0.29770   0.00000  Uiso   1.00
H308   H     0.04998   0.50561   0.19432   0.00000  Uiso   1.00
H309   H     0.10723   0.64591   0.33207   0.00000  Uiso   1.00
H310   H     0.08027   0.84322   0.17778   0.00000  Uiso   1.00
H311   H     0.18322   0.58985   0.12408   0.00000  Uiso   1.00
H312   H     0.25117   0.61922   0.07856   0.00000  Uiso   1.00
H313   H     0.33226   0.65366   0.12085   0.00000  Uiso   1.00
H314   H     0.00850   0.74722   0.30560   0.00000  Uiso   1.00
H315   H     0.01187   0.65901   0.20891   0.00000  Uiso   1.00
H316   H     0.27679   0.63124   0.25496   0.00000  Uiso   1.00
H317   H     0.21988   0.90699   0.37358   0.00000  Uiso   1.00
H318   H     0.30064   0.87540   0.42063   0.00000  Uiso   1.00
H319   H     0.03651   0.84224   0.37961   0.00000  Uiso   1.00
H320   H     0.02486   0.84065   0.29124   0.00000  Uiso   1.00
H321   H     0.27680   0.87061   0.24371   0.00000  Uiso   1.00
H322   H     0.19706   0.52378   0.19572   0.00000  Uiso   1.00
H323   H     0.21400   0.97644   0.30010   0.00000  Uiso   1.00
H324   H     0.08603   0.77268   0.02318   0.00000  Uiso   1.00
H325   H     0.24560   0.77655   0.47556   0.00000  Uiso   1.00
H326   H     0.08769   0.77229   0.11037   0.00000  Uiso   1.00
H327   H     0.24387   0.77616   0.38833   0.00000  Uiso   1.00
H328   H     0.24561   0.72766   0.13233   0.00000  Uiso   1.00
N329   N     0.16667   0.74999   0.12623   0.00000  Uiso   1.00
N330   N     0.16667   0.75001   0.37376   0.00000  Uiso   1.00
O331   O     0.16667   0.68454   0.28974   0.00000  Uiso   1.00
O332   O     0.04913   0.95874   0.14550   0.00000  Uiso   1.00
O333   O     0.04175   0.61867   0.29931   0.00000  Uiso   1.00
O334   O     0.02445   0.88335   0.19349   0.00000  Uiso   1.00
O335   O     0.16666   0.81547   0.21026   0.00000  Uiso   1.00
O336   O     0.16667   0.68453   0.21026   0.00000  Uiso   1.00
O337   O     0.16666   0.81547   0.28974   0.00000  Uiso   1.00
O338   O     0.09058   0.75000   0.28044   0.00000  Uiso   1.00
O339   O     0.24275   0.75000   0.21955   0.00000  Uiso   1.00
O340   O     0.09058   0.75000   0.20096   0.00000  Uiso   1.00
O341   O     0.24275   0.75001   0.29903   0.00000  Uiso   1.00
O342   O     0.07676   0.53819   0.34737   0.00000  Uiso   1.00
Zn343  Zn    0.16667   0.75001   0.30307   0.00000  Uiso   1.00
Zn344  Zn    0.16667   0.75000   0.19693   0.00000  Uiso   1.00
C345   C     0.49826   0.66373   0.25031   0.00000  Uiso   1.00
C346   C     0.45584   0.73577   0.44192   0.00000  Uiso   1.00
C347   C     0.50001   0.75007   0.02662   0.00000  Uiso   1.00
C348   C     0.50001   0.75014   0.47336   0.00000  Uiso   1.00
C349   C     0.40034   0.75029   0.23756   0.00000  Uiso   1.00
C350   C     0.59965   0.74976   0.26244   0.00000  Uiso   1.00
C351   C     0.34536   0.75110   0.23082   0.00000  Uiso   1.00
C352   C     0.65463   0.74912   0.26918   0.00000  Uiso   1.00
C353   C     0.44915   0.54823   0.27710   0.00000  Uiso   1.00
C354   C     0.44047   0.95009   0.21819   0.00000  Uiso   1.00
C355   C     0.45573   0.59508   0.27819   0.00000  Uiso   1.00
C356   C     0.49813   0.83601   0.24928   0.00000  Uiso   1.00
C357   C     0.44626   0.90310   0.21929   0.00000  Uiso   1.00
C358   C     0.49186   0.61542   0.25073   0.00000  Uiso   1.00
C359   C     0.49137   0.88386   0.24733   0.00000  Uiso   1.00
C360   C     0.51851   0.58965   0.22049   0.00000  Uiso   1.00
C361   C     0.52772   0.91010   0.27677   0.00000  Uiso   1.00
C362   C     0.50920   0.54414   0.21797   0.00000  Uiso   1.00
C363   C     0.51925   0.95567   0.27797   0.00000  Uiso   1.00
C364   C     0.47613   0.52373   0.24649   0.00000  Uiso   1.00
C365   C     0.47702   0.97540   0.24846   0.00000  Uiso   1.00
C366   C     0.41623   0.52388   0.30847   0.00000  Uiso   1.00
C367   C     0.45492   0.76236   0.04617   0.00000  Uiso   1.00
C368   C     0.39858   0.97365   0.18480   0.00000  Uiso   1.00
C369   C     0.42282   0.62256   0.30566   0.00000  Uiso   1.00
C370   C     0.40411   0.87393   0.19439   0.00000  Uiso   1.00
C371   C     0.55839   0.60857   0.19285   0.00000  Uiso   1.00
C372   C     0.55162   0.60515   0.14291   0.00000  Uiso   1.00
C373   C     0.59005   0.62166   0.11705   0.00000  Uiso   1.00
C374   C     0.63574   0.64111   0.14087   0.00000  Uiso   1.00
C375   C     0.64289   0.64438   0.19054   0.00000  Uiso   1.00
C376   C     0.60422   0.62850   0.21649   0.00000  Uiso   1.00
C377   C     0.57589   0.89097   0.30525   0.00000  Uiso   1.00
C378   C     0.54415   0.76458   0.45313   0.00000  Uiso   1.00
C379   C     0.58310   0.89242   0.35532   0.00000  Uiso   1.00
C380   C     0.62876   0.87458   0.38203   0.00000  Uiso   1.00
C381   C     0.33443   0.85585   0.35892   0.00000  Uiso   1.00
C382   C     0.66110   0.85480   0.30909   0.00000  Uiso   1.00
C383   C     0.61511   0.87190   0.28229   0.00000  Uiso   1.00
C384   C     0.45583   0.76231   0.09598   0.00000  Uiso   1.00
C385   C     0.54321   0.76450   0.40332   0.00000  Uiso   1.00
C386   C     0.54414   0.73766   0.10827   0.00000  Uiso   1.00
C387   C     0.45674   0.73575   0.39238   0.00000  Uiso   1.00
C388   C     0.54507   0.73765   0.05873   0.00000  Uiso   1.00
H389   H     0.65817   0.75306   0.19439   0.00000  Uiso   1.00
H390   H     0.42267   0.72414   0.36885   0.00000  Uiso   1.00
H391   H     0.58061   0.72730   0.04569   0.00000  Uiso   1.00
H392   H     0.42104   0.72387   0.45552   0.00000  Uiso   1.00
H393   H     0.39865   0.99190   0.29770   0.00000  Uiso   1.00
H394   H     0.38332   0.50561   0.19432   0.00000  Uiso   1.00
H395   H     0.44057   0.64591   0.33207   0.00000  Uiso   1.00
H396   H     0.41360   0.84322   0.17778   0.00000  Uiso   1.00
H397   H     0.51655   0.58985   0.12408   0.00000  Uiso   1.00
H398   H     0.58450   0.61922   0.07856   0.00000  Uiso   1.00
H399   H     0.66559   0.65366   0.12085   0.00000  Uiso   1.00
H400   H     0.34183   0.74722   0.30560   0.00000  Uiso   1.00
H401   H     0.34520   0.65901   0.20891   0.00000  Uiso   1.00
H402   H     0.61012   0.63124   0.25496   0.00000  Uiso   1.00
H403   H     0.55322   0.90699   0.37358   0.00000  Uiso   1.00
H404   H     0.63397   0.87540   0.42063   0.00000  Uiso   1.00
H405   H     0.36985   0.84224   0.37961   0.00000  Uiso   1.00
H406   H     0.35819   0.84065   0.29124   0.00000  Uiso   1.00
H407   H     0.61014   0.87061   0.24371   0.00000  Uiso   1.00
H408   H     0.53039   0.52378   0.19572   0.00000  Uiso   1.00
H409   H     0.54733   0.97644   0.30010   0.00000  Uiso   1.00
H410   H     0.41936   0.77268   0.02318   0.00000  Uiso   1.00
H411   H     0.57893   0.77655   0.47556   0.00000  Uiso   1.00
H412   H     0.42102   0.77229   0.11037   0.00000  Uiso   1.00
H413   H     0.57720   0.77616   0.38833   0.00000  Uiso   1.00
H414   H     0.57894   0.72766   0.13233   0.00000  Uiso   1.00
N415   N     0.50000   0.74999   0.12623   0.00000  Uiso   1.00
N416   N     0.50000   0.75001   0.37376   0.00000  Uiso   1.00
O417   O     0.50000   0.68454   0.28974   0.00000  Uiso   1.00
O418   O     0.38246   0.95874   0.14550   0.00000  Uiso   1.00
O419   O     0.37508   0.61867   0.29931   0.00000  Uiso   1.00
O420   O     0.35779   0.88335   0.19349   0.00000  Uiso   1.00
O421   O     0.50000   0.81547   0.21026   0.00000  Uiso   1.00
O422   O     0.50000   0.68453   0.21026   0.00000  Uiso   1.00
O423   O     0.50000   0.81547   0.28974   0.00000  Uiso   1.00
O424   O     0.42392   0.75000   0.28044   0.00000  Uiso   1.00
O425   O     0.57608   0.75000   0.21955   0.00000  Uiso   1.00
O426   O     0.42392   0.75000   0.20096   0.00000  Uiso   1.00
O427   O     0.57608   0.75001   0.29903   0.00000  Uiso   1.00
O428   O     0.41009   0.53819   0.34737   0.00000  Uiso   1.00
Zn429  Zn    0.50000   0.75001   0.30307   0.00000  Uiso   1.00
Zn430  Zn    0.50000   0.75000   0.19693   0.00000  Uiso   1.00
C431   C     0.83160   0.66373   0.25031   0.00000  Uiso   1.00
C432   C     0.78917   0.73577   0.44192   0.00000  Uiso   1.00
C433   C     0.83335   0.75007   0.02662   0.00000  Uiso   1.00
C434   C     0.83335   0.75014   0.47336   0.00000  Uiso   1.00
C435   C     0.73368   0.75029   0.23756   0.00000  Uiso   1.00
C436   C     0.93298   0.74976   0.26244   0.00000  Uiso   1.00
C437   C     0.67869   0.75110   0.23082   0.00000  Uiso   1.00
C438   C     0.98797   0.74912   0.26918   0.00000  Uiso   1.00
C439   C     0.78248   0.54823   0.27710   0.00000  Uiso   1.00
C440   C     0.77381   0.95009   0.21819   0.00000  Uiso   1.00
C441   C     0.78906   0.59508   0.27819   0.00000  Uiso   1.00
C442   C     0.83147   0.83601   0.24928   0.00000  Uiso   1.00
C443   C     0.77959   0.90310   0.21929   0.00000  Uiso   1.00
C444   C     0.82520   0.61542   0.25073   0.00000  Uiso   1.00
C445   C     0.82470   0.88386   0.24733   0.00000  Uiso   1.00
C446   C     0.85184   0.58965   0.22049   0.00000  Uiso   1.00
C447   C     0.86106   0.91010   0.27677   0.00000  Uiso   1.00
C448   C     0.84253   0.54414   0.21797   0.00000  Uiso   1.00
C449   C     0.85259   0.95567   0.27797   0.00000  Uiso   1.00
C450   C     0.80946   0.52373   0.24649   0.00000  Uiso   1.00
C451   C     0.81035   0.97540   0.24846   0.00000  Uiso   1.00
C452   C     0.74957   0.52388   0.30847   0.00000  Uiso   1.00
C453   C     0.78825   0.76236   0.04617   0.00000  Uiso   1.00
C454   C     0.73192   0.97365   0.18480   0.00000  Uiso   1.00
C455   C     0.75615   0.62256   0.30566   0.00000  Uiso   1.00
C456   C     0.73744   0.87393   0.19439   0.00000  Uiso   1.00
C457   C     0.89172   0.60857   0.19285   0.00000  Uiso   1.00
C458   C     0.88495   0.60515   0.14291   0.00000  Uiso   1.00
C459   C     0.92338   0.62166   0.11705   0.00000  Uiso   1.00
C460   C     0.96907   0.64111   0.14087   0.00000  Uiso   1.00
C461   C     0.97622   0.64438   0.19054   0.00000  Uiso   1.00
C462   C     0.93755   0.62850   0.21649   0.00000  Uiso   1.00
C463   C     0.90922   0.89097   0.30525   0.00000  Uiso   1.00
C464   C     0.87748   0.76458   0.45313   0.00000  Uiso   1.00
C465   C     0.91643   0.89242   0.35532   0.00000  Uiso   1.00
C466   C     0.96209   0.87458   0.38203   0.00000  Uiso   1.00
C467   C     0.66776   0.85585   0.35892   0.00000  Uiso   1.00
C468   C     0.99443   0.85480   0.30909   0.00000  Uiso   1.00
C469   C     0.94845   0.87190   0.28229   0.00000  Uiso   1.00
C470   C     0.78916   0.76231   0.09598   0.00000  Uiso   1.00
C471   C     0.87654   0.76450   0.40332   0.00000  Uiso   1.00
C472   C     0.87748   0.73766   0.10827   0.00000  Uiso   1.00
C473   C     0.79008   0.73575   0.39238   0.00000  Uiso   1.00
C474   C     0.87840   0.73765   0.05873   0.00000  Uiso   1.00
H475   H     0.99150   0.75306   0.19439   0.00000  Uiso   1.00
H476   H     0.75600   0.72414   0.36885   0.00000  Uiso   1.00
H477   H     0.91395   0.72730   0.04569   0.00000  Uiso   1.00
H478   H     0.75437   0.72387   0.45552   0.00000  Uiso   1.00
H479   H     0.73199   0.99190   0.29770   0.00000  Uiso   1.00
H480   H     0.71665   0.50561   0.19432   0.00000  Uiso   1.00
H481   H     0.77390   0.64591   0.33207   0.00000  Uiso   1.00
H482   H     0.74694   0.84322   0.17778   0.00000  Uiso   1.00
H483   H     0.84989   0.58985   0.12408   0.00000  Uiso   1.00
H484   H     0.91784   0.61922   0.07856   0.00000  Uiso   1.00
H485   H     0.99893   0.65366   0.12085   0.00000  Uiso   1.00
H486   H     0.67516   0.74722   0.30560   0.00000  Uiso   1.00
H487   H     0.67854   0.65901   0.20891   0.00000  Uiso   1.00
H488   H     0.94346   0.63124   0.25496   0.00000  Uiso   1.00
H489   H     0.88655   0.90699   0.37358   0.00000  Uiso   1.00
H490   H     0.96730   0.87540   0.42063   0.00000  Uiso   1.00
H491   H     0.70318   0.84224   0.37961   0.00000  Uiso   1.00
H492   H     0.69153   0.84065   0.29124   0.00000  Uiso   1.00
H493   H     0.94347   0.87061   0.24371   0.00000  Uiso   1.00
H494   H     0.86372   0.52378   0.19572   0.00000  Uiso   1.00
H495   H     0.88067   0.97644   0.30010   0.00000  Uiso   1.00
H496   H     0.75269   0.77268   0.02318   0.00000  Uiso   1.00
H497   H     0.91227   0.77655   0.47556   0.00000  Uiso   1.00
H498   H     0.75435   0.77229   0.11037   0.00000  Uiso   1.00
H499   H     0.91054   0.77616   0.38833   0.00000  Uiso   1.00
H500   H     0.91228   0.72766   0.13233   0.00000  Uiso   1.00
N501   N     0.83333   0.74999   0.12623   0.00000  Uiso   1.00
N502   N     0.83333   0.75001   0.37376   0.00000  Uiso   1.00
O503   O     0.83334   0.68454   0.28974   0.00000  Uiso   1.00
O504   O     0.71580   0.95874   0.14550   0.00000  Uiso   1.00
O505   O     0.70841   0.61867   0.29931   0.00000  Uiso   1.00
O506   O     0.69112   0.88335   0.19349   0.00000  Uiso   1.00
O507   O     0.83333   0.81547   0.21026   0.00000  Uiso   1.00
O508   O     0.83334   0.68453   0.21026   0.00000  Uiso   1.00
O509   O     0.83333   0.81547   0.28974   0.00000  Uiso   1.00
O510   O     0.75725   0.75000   0.28044   0.00000  Uiso   1.00
O511   O     0.90942   0.75000   0.21955   0.00000  Uiso   1.00
O512   O     0.75725   0.75000   0.20096   0.00000  Uiso   1.00
O513   O     0.90942   0.75001   0.29903   0.00000  Uiso   1.00
O514   O     0.74342   0.53819   0.34737   0.00000  Uiso   1.00
Zn515  Zn    0.83333   0.75001   0.30307   0.00000  Uiso   1.00
Zn516  Zn    0.83333   0.75000   0.19693   0.00000  Uiso   1.00
C517   C     0.16493   0.16373   0.75031   0.00000  Uiso   1.00
C518   C     0.12250   0.23577   0.94192   0.00000  Uiso   1.00
C519   C     0.16668   0.25007   0.52662   0.00000  Uiso   1.00
C520   C     0.16668   0.25014   0.97336   0.00000  Uiso   1.00
C521   C     0.06701   0.25029   0.73756   0.00000  Uiso   1.00
C522   C     0.26632   0.24976   0.76244   0.00000  Uiso   1.00
C523   C     0.01202   0.25110   0.73082   0.00000  Uiso   1.00
C524   C     0.32130   0.24912   0.76918   0.00000  Uiso   1.00
C525   C     0.11582   0.04823   0.77710   0.00000  Uiso   1.00
C526   C     0.10714   0.45009   0.71819   0.00000  Uiso   1.00
C527   C     0.12240   0.09508   0.77819   0.00000  Uiso   1.00
C528   C     0.16480   0.33601   0.74928   0.00000  Uiso   1.00
C529   C     0.11293   0.40310   0.71929   0.00000  Uiso   1.00
C530   C     0.15853   0.11542   0.75073   0.00000  Uiso   1.00
C531   C     0.15804   0.38386   0.74733   0.00000  Uiso   1.00
C532   C     0.18517   0.08965   0.72049   0.00000  Uiso   1.00
C533   C     0.19439   0.41010   0.77677   0.00000  Uiso   1.00
C534   C     0.17587   0.04414   0.71797   0.00000  Uiso   1.00
C535   C     0.18592   0.45567   0.77797   0.00000  Uiso   1.00
C536   C     0.14279   0.02373   0.74649   0.00000  Uiso   1.00
C537   C     0.14369   0.47540   0.74846   0.00000  Uiso   1.00
C538   C     0.08290   0.02388   0.80847   0.00000  Uiso   1.00
C539   C     0.12159   0.26236   0.54617   0.00000  Uiso   1.00
C540   C     0.06525   0.47365   0.68480   0.00000  Uiso   1.00
C541   C     0.08948   0.12256   0.80566   0.00000  Uiso   1.00
C542   C     0.07078   0.37393   0.69439   0.00000  Uiso   1.00
C543   C     0.22506   0.10857   0.69285   0.00000  Uiso   1.00
C544   C     0.21828   0.10515   0.64291   0.00000  Uiso   1.00
C545   C     0.25671   0.12166   0.61705   0.00000  Uiso   1.00
C546   C     0.30241   0.14111   0.64087   0.00000  Uiso   1.00
C547   C     0.30955   0.14438   0.69054   0.00000  Uiso   1.00
C548   C     0.27089   0.12850   0.71649   0.00000  Uiso   1.00
C549   C     0.24255   0.39097   0.80525   0.00000  Uiso   1.00
C550   C     0.21082   0.26458   0.95313   0.00000  Uiso   1.00
C551   C     0.24976   0.39242   0.85532   0.00000  Uiso   1.00
C552   C     0.29542   0.37458   0.88203   0.00000  Uiso   1.00
C553   C     0.00109   0.35585   0.85892   0.00000  Uiso   1.00
C554   C     0.32776   0.35480   0.80909   0.00000  Uiso   1.00
C555   C     0.28178   0.37190   0.78229   0.00000  Uiso   1.00
C556   C     0.12249   0.26231   0.59598   0.00000  Uiso   1.00
C557   C     0.20988   0.26450   0.90332   0.00000  Uiso   1.00
C558   C     0.21081   0.23766   0.60827   0.00000  Uiso   1.00
C559   C     0.12341   0.23575   0.89238   0.00000  Uiso   1.00
C560   C     0.21173   0.23765   0.55873   0.00000  Uiso   1.00
H561   H     0.32483   0.25306   0.69439   0.00000  Uiso   1.00
H562   H     0.08933   0.22414   0.86885   0.00000  Uiso   1.00
H563   H     0.24728   0.22730   0.54569   0.00000  Uiso   1.00
H564   H     0.08770   0.22387   0.95552   0.00000  Uiso   1.00
H565   H     0.06532   0.49190   0.79770   0.00000  Uiso   1.00
H566   H     0.04998   0.00561   0.69432   0.00000  Uiso   1.00
H567   H     0.10723   0.14591   0.83207   0.00000  Uiso   1.00
H568   H     0.08027   0.34322   0.67778   0.00000  Uiso   1.00
H569   H     0.18322   0.08985   0.62408   0.00000  Uiso   1.00
H570   H     0.25117   0.11922   0.57856   0.00000  Uiso   1.00
H571   H     0.33226   0.15366   0.62085   0.00000  Uiso   1.00
H572   H     0.00850   0.24722   0.80560   0.00000  Uiso   1.00
H573   H     0.01187   0.15901   0.70891   0.00000  Uiso   1.00
H574   H     0.27679   0.13124   0.75496   0.00000  Uiso   1.00
H575   H     0.21988   0.40699   0.87358   0.00000  Uiso   1.00
H576   H     0.30064   0.37540   0.92063   0.00000  Uiso   1.00
H577   H     0.03651   0.34224   0.87961   0.00000  Uiso   1.00
H578   H     0.02486   0.34065   0.79124   0.00000  Uiso   1.00
H579   H     0.27680   0.37061   0.74371   0.00000  Uiso   1.00
H580   H     0.19706   0.02378   0.69572   0.00000  Uiso   1.00
H581   H     0.21400   0.47644   0.80010   0.00000  Uiso   1.00
H582   H     0.08603   0.27268   0.52318   0.00000  Uiso   1.00
H583   H     0.24560   0.27655   0.97556   0.00000  Uiso   1.00
H584   H     0.08769   0.27229   0.61037   0.00000  Uiso   1.00
H585   H     0.24387   0.27616   0.88833   0.00000  Uiso   1.00
H586   H     0.24561   0.22766   0.63233   0.00000  Uiso   1.00
N587   N     0.16667   0.24999   0.62623   0.00000  Uiso   1.00
N588   N     0.16667   0.25001   0.87376   0.00000  Uiso   1.00
O589   O     0.16667   0.18454   0.78974   0.00000  Uiso   1.00
O590   O     0.04913   0.45874   0.64550   0.00000  Uiso   1.00
O591   O     0.04175   0.11867   0.79931   0.00000  Uiso   1.00
O592   O     0.02445   0.38335   0.69349   0.00000  Uiso   1.00
O593   O     0.16666   0.31547   0.71026   0.00000  Uiso   1.00
O594   O     0.16667   0.18453   0.71026   0.00000  Uiso   1.00
O595   O     0.16666   0.31547   0.78974   0.00000  Uiso   1.00
O596   O     0.09058   0.25000   0.78044   0.00000  Uiso   1.00
O597   O     0.24275   0.25000   0.71955   0.00000  Uiso   1.00
O598   O     0.09058   0.25000   0.70096   0.00000  Uiso   1.00
O599   O     0.24275   0.25001   0.79903   0.00000  Uiso   1.00
O600   O     0.07676   0.03819   0.84737   0.00000  Uiso   1.00
Zn601  Zn    0.16667   0.25001   0.80307   0.00000  Uiso   1.00
Zn602  Zn    0.16667   0.25000   0.69693   0.00000  Uiso   1.00
C603   C     0.49826   0.16373   0.75031   0.00000  Uiso   1.00
C604   C     0.45584   0.23577   0.94192   0.00000  Uiso   1.00
C605   C     0.50001   0.25007   0.52662   0.00000  Uiso   1.00
C606   C     0.50001   0.25014   0.97336   0.00000  Uiso   1.00
C607   C     0.40034   0.25029   0.73756   0.00000  Uiso   1.00
C608   C     0.59965   0.24976   0.76244   0.00000  Uiso   1.00
C609   C     0.34536   0.25110   0.73082   0.00000  Uiso   1.00
C610   C     0.65463   0.24912   0.76918   0.00000  Uiso   1.00
C611   C     0.44915   0.04823   0.77710   0.00000  Uiso   1.00
C612   C     0.44047   0.45009   0.71819   0.00000  Uiso   1.00
C613   C     0.45573   0.09508   0.77819   0.00000  Uiso   1.00
C614   C     0.49813   0.33601   0.74928   0.00000  Uiso   1.00
C615   C     0.44626   0.40310   0.71929   0.00000  Uiso   1.00
C616   C     0.49186   0.11542   0.75073   0.00000  Uiso   1.00
C617   C     0.49137   0.38386   0.74733   0.00000  Uiso   1.00
C618   C     0.51851   0.08965   0.72049   0.00000  Uiso   1.00
C619   C     0.52772   0.41010   0.77677   0.00000  Uiso   1.00
C620   C     0.50920   0.04414   0.71797   0.00000  Uiso   1.00
C621   C     0.51925   0.45567   0.77797   0.00000  Uiso   1.00
C622   C     0.47613   0.02373   0.74649   0.00000  Uiso   1.00
C623   C     0.47702   0.47540   0.74846   0.00000  Uiso   1.00
C624   C     0.41623   0.02388   0.80847   0.00000  Uiso   1.00
C625   C     0.45492   0.26236   0.54617   0.00000  Uiso   1.00
C626   C     0.39858   0.47365   0.68480   0.00000  Uiso   1.00
C627   C     0.42282   0.12256   0.80566   0.00000  Uiso   1.00
C628   C     0.40411   0.37393   0.69439   0.00000  Uiso   1.00
C629   C     0.55839   0.10857   0.69285   0.00000  Uiso   1.00
C630   C     0.55162   0.10515   0.64291   0.00000  Uiso   1.00
C631   C     0.59005   0.12166   0.61705   0.00000  Uiso   1.00
C632   C     0.63574   0.14111   0.64087   0.00000  Uiso   1.00
C633   C     0.64289   0.14438   0.69054   0.00000  Uiso   1.00
C634   C     0.60422   0.12850   0.71649   0.00000  Uiso   1.00
C635   C     0.57589   0.39097   0.80525   0.00000  Uiso   1.00
C636   C     0.54415   0.26458   0.95313   0.00000  Uiso   1.00
C637   C     0.58310   0.39242   0.85532   0.00000  Uiso   1.00
C638   C     0.62876   0.37458   0.88203   0.00000  Uiso   1.00
C639   C     0.33443   0.35585   0.85892   0.00000  Uiso   1.00
C640   C     0.66110   0.35480   0.80909   0.00000  Uiso   1.00
C641   C     0.61511   0.37190   0.78229   0.00000  Uiso   1.00
C642   C     0.45583   0.26231   0.59598   0.00000  Uiso   1.00
C643   C     0.54321   0.26450   0.90332   0.00000  Uiso   1.00
C644   C     0.54414   0.23766   0.60827   0.00000  Uiso   1.00
C645   C     0.45674   0.23575   0.89238   0.00000  Uiso   1.00
C646   C     0.54507   0.23765   0.55873   0.00000  Uiso   1.00
H647   H     0.65817   0.25306   0.69439   0.00000  Uiso   1.00
H648   H     0.42267   0.22414   0.86885   0.00000  Uiso   1.00
H649   H     0.58061   0.22730   0.54569   0.00000  Uiso   1.00
H650   H     0.42104   0.22387   0.95552   0.00000  Uiso   1.00
H651   H     0.39865   0.49190   0.79770   0.00000  Uiso   1.00
H652   H     0.38332   0.00561   0.69432   0.00000  Uiso   1.00
H653   H     0.44057   0.14591   0.83207   0.00000  Uiso   1.00
H654   H     0.41360   0.34322   0.67778   0.00000  Uiso   1.00
H655   H     0.51655   0.08985   0.62408   0.00000  Uiso   1.00
H656   H     0.58450   0.11922   0.57856   0.00000  Uiso   1.00
H657   H     0.66559   0.15366   0.62085   0.00000  Uiso   1.00
H658   H     0.34183   0.24722   0.80560   0.00000  Uiso   1.00
H659   H     0.34520   0.15901   0.70891   0.00000  Uiso   1.00
H660   H     0.61012   0.13124   0.75496   0.00000  Uiso   1.00
H661   H     0.55322   0.40699   0.87358   0.00000  Uiso   1.00
H662   H     0.63397   0.37540   0.92063   0.00000  Uiso   1.00
H663   H     0.36985   0.34224   0.87961   0.00000  Uiso   1.00
H664   H     0.35819   0.34065   0.79124   0.00000  Uiso   1.00
H665   H     0.61014   0.37061   0.74371   0.00000  Uiso   1.00
H666   H     0.53039   0.02378   0.69572   0.00000  Uiso   1.00
H667   H     0.54733   0.47644   0.80010   0.00000  Uiso   1.00
H668   H     0.41936   0.27268   0.52318   0.00000  Uiso   1.00
H669   H     0.57893   0.27655   0.97556   0.00000  Uiso   1.00
H670   H     0.42102   0.27229   0.61037   0.00000  Uiso   1.00
H671   H     0.57720   0.27616   0.88833   0.00000  Uiso   1.00
H672   H     0.57894   0.22766   0.63233   0.00000  Uiso   1.00
N673   N     0.50000   0.24999   0.62623   0.00000  Uiso   1.00
N674   N     0.50000   0.25001   0.87376   0.00000  Uiso   1.00
O675   O     0.50000   0.18454   0.78974   0.00000  Uiso   1.00
O676   O     0.38246   0.45874   0.64550   0.00000  Uiso   1.00
O677   O     0.37508   0.11867   0.79931   0.00000  Uiso   1.00
O678   O     0.35779   0.38335   0.69349   0.00000  Uiso   1.00
O679   O     0.50000   0.31547   0.71026   0.00000  Uiso   1.00
O680   O     0.50000   0.18453   0.71026   0.00000  Uiso   1.00
O681   O     0.50000   0.31547   0.78974   0.00000  Uiso   1.00
O682   O     0.42392   0.25000   0.78044   0.00000  Uiso   1.00
O683   O     0.57608   0.25000   0.71955   0.00000  Uiso   1.00
O684   O     0.42392   0.25000   0.70096   0.00000  Uiso   1.00
O685   O     0.57608   0.25001   0.79903   0.00000  Uiso   1.00
O686   O     0.41009   0.03819   0.84737   0.00000  Uiso   1.00
Zn687  Zn    0.50000   0.25001   0.80307   0.00000  Uiso   1.00
Zn688  Zn    0.50000   0.25000   0.69693   0.00000  Uiso   1.00
C689   C     0.83160   0.16373   0.75031   0.00000  Uiso   1.00
C690   C     0.78917   0.23577   0.94192   0.00000  Uiso   1.00
C691   C     0.83335   0.25007   0.52662   0.00000  Uiso   1.00
C692   C     0.83335   0.25014   0.97336   0.00000  Uiso   1.00
C693   C     0.73368   0.25029   0.73756   0.00000  Uiso   1.00
C694   C     0.93298   0.24976   0.76244   0.00000  Uiso   1.00
C695   C     0.67869   0.25110   0.73082   0.00000  Uiso   1.00
C696   C     0.98797   0.24912   0.76918   0.00000  Uiso   1.00
C697   C     0.78248   0.04823   0.77710   0.00000  Uiso   1.00
C698   C     0.77381   0.45009   0.71819   0.00000  Uiso   1.00
C699   C     0.78906   0.09508   0.77819   0.00000  Uiso   1.00
C700   C     0.83147   0.33601   0.74928   0.00000  Uiso   1.00
C701   C     0.77959   0.40310   0.71929   0.00000  Uiso   1.00
C702   C     0.82520   0.11542   0.75073   0.00000  Uiso   1.00
C703   C     0.82470   0.38386   0.74733   0.00000  Uiso   1.00
C704   C     0.85184   0.08965   0.72049   0.00000  Uiso   1.00
C705   C     0.86106   0.41010   0.77677   0.00000  Uiso   1.00
C706   C     0.84253   0.04414   0.71797   0.00000  Uiso   1.00
C707   C     0.85259   0.45567   0.77797   0.00000  Uiso   1.00
C708   C     0.80946   0.02373   0.74649   0.00000  Uiso   1.00
C709   C     0.81035   0.47540   0.74846   0.00000  Uiso   1.00
C710   C     0.74957   0.02388   0.80847   0.00000  Uiso   1.00
C711   C     0.78825   0.26236   0.54617   0.00000  Uiso   1.00
C712   C     0.73192   0.47365   0.68480   0.00000  Uiso   1.00
C713   C     0.75615   0.12256   0.80566   0.00000  Uiso   1.00
C714   C     0.73744   0.37393   0.69439   0.00000  Uiso   1.00
C715   C     0.89172   0.10857   0.69285   0.00000  Uiso   1.00
C716   C     0.88495   0.10515   0.64291   0.00000  Uiso   1.00
C717   C     0.92338   0.12166   0.61705   0.00000  Uiso   1.00
C718   C     0.96907   0.14111   0.64087   0.00000  Uiso   1.00
C719   C     0.97622   0.14438   0.69054   0.00000  Uiso   1.00
C720   C     0.93755   0.12850   0.71649   0.00000  Uiso   1.00
C721   C     0.90922   0.39097   0.80525   0.00000  Uiso   1.00
C722   C     0.87748   0.26458   0.95313   0.00000  Uiso   1.00
C723   C     0.91643   0.39242   0.85532   0.00000  Uiso   1.00
C724   C     0.96209   0.37458   0.88203   0.00000  Uiso   1.00
C725   C     0.66776   0.35585   0.85892   0.00000  Uiso   1.00
C726   C     0.99443   0.35480   0.80909   0.00000  Uiso   1.00
C727   C     0.94845   0.37190   0.78229   0.00000  Uiso   1.00
C728   C     0.78916   0.26231   0.59598   0.00000  Uiso   1.00
C729   C     0.87654   0.26450   0.90332   0.00000  Uiso   1.00
C730   C     0.87748   0.23766   0.60827   0.00000  Uiso   1.00
C731   C     0.79008   0.23575   0.89238   0.00000  Uiso   1.00
C732   C     0.87840   0.23765   0.55873   0.00000  Uiso   1.00
H733   H     0.99150   0.25306   0.69439   0.00000  Uiso   1.00
H734   H     0.75600   0.22414   0.86885   0.00000  Uiso   1.00
H735   H     0.91395   0.22730   0.54569   0.00000  Uiso   1.00
H736   H     0.75437   0.22387   0.95552   0.00000  Uiso   1.00
H737   H     0.73199   0.49190   0.79770   0.00000  Uiso   1.00
H738   H     0.71665   0.00561   0.69432   0.00000  Uiso   1.00
H739   H     0.77390   0.14591   0.83207   0.00000  Uiso   1.00
H740   H     0.74694   0.34322   0.67778   0.00000  Uiso   1.00
H741   H     0.84989   0.08985   0.62408   0.00000  Uiso   1.00
H742   H     0.91784   0.11922   0.57856   0.00000  Uiso   1.00
H743   H     0.99893   0.15366   0.62085   0.00000  Uiso   1.00
H744   H     0.67516   0.24722   0.80560   0.00000  Uiso   1.00
H745   H     0.67854   0.15901   0.70891   0.00000  Uiso   1.00
H746   H     0.94346   0.13124   0.75496   0.00000  Uiso   1.00
H747   H     0.88655   0.40699   0.87358   0.00000  Uiso   1.00
H748   H     0.96730   0.37540   0.92063   0.00000  Uiso   1.00
H749   H     0.70318   0.34224   0.87961   0.00000  Uiso   1.00
H750   H     0.69153   0.34065   0.79124   0.00000  Uiso   1.00
H751   H     0.94347   0.37061   0.74371   0.00000  Uiso   1.00
H752   H     0.86372   0.02378   0.69572   0.00000  Uiso   1.00
H753   H     0.88067   0.47644   0.80010   0.00000  Uiso   1.00
H754   H     0.75269   0.27268   0.52318   0.00000  Uiso   1.00
H755   H     0.91227   0.27655   0.97556   0.00000  Uiso   1.00
H756   H     0.75435   0.27229   0.61037   0.00000  Uiso   1.00
H757   H     0.91054   0.27616   0.88833   0.00000  Uiso   1.00
H758   H     0.91228   0.22766   0.63233   0.00000  Uiso   1.00
N759   N     0.83333   0.24999   0.62623   0.00000  Uiso   1.00
N760   N     0.83333   0.25001   0.87376   0.00000  Uiso   1.00
O761   O     0.83334   0.18454   0.78974   0.00000  Uiso   1.00
O762   O     0.71580   0.45874   0.64550   0.00000  Uiso   1.00
O763   O     0.70841   0.11867   0.79931   0.00000  Uiso   1.00
O764   O     0.69112   0.38335   0.69349   0.00000  Uiso   1.00
O765   O     0.83333   0.31547   0.71026   0.00000  Uiso   1.00
O766   O     0.83334   0.18453   0.71026   0.00000  Uiso   1.00
O767   O     0.83333   0.31547   0.78974   0.00000  Uiso   1.00
O768   O     0.75725   0.25000   0.78044   0.00000  Uiso   1.00
O769   O     0.90942   0.25000   0.71955   0.00000  Uiso   1.00
O770   O     0.75725   0.25000   0.70096   0.00000  Uiso   1.00
O771   O     0.90942   0.25001   0.79903   0.00000  Uiso   1.00
O772   O     0.74342   0.03819   0.84737   0.00000  Uiso   1.00
Zn773  Zn    0.83333   0.25001   0.80307   0.00000  Uiso   1.00
Zn774  Zn    0.83333   0.25000   0.69693   0.00000  Uiso   1.00
C775   C     0.16493   0.66373   0.75031   0.00000  Uiso   1.00
C776   C     0.12250   0.73577   0.94192   0.00000  Uiso   1.00
C777   C     0.16668   0.75007   0.52662   0.00000  Uiso   1.00
C778   C     0.16668   0.75014   0.97336   0.00000  Uiso   1.00
C779   C     0.06701   0.75029   0.73756   0.00000  Uiso   1.00
C780   C     0.26632   0.74976   0.76244   0.00000  Uiso   1.00
C781   C     0.01202   0.75110   0.73082   0.00000  Uiso   1.00
C782   C     0.32130   0.74912   0.76918   0.00000  Uiso   1.00
C783   C     0.11582   0.54823   0.77710   0.00000  Uiso   1.00
C784   C     0.10714   0.95009   0.71819   0.00000  Uiso   1.00
C785   C     0.12240   0.59508   0.77819   0.00000  Uiso   1.00
C786   C     0.16480   0.83601   0.74928   0.00000  Uiso   1.00
C787   C     0.11293   0.90310   0.71929   0.00000  Uiso   1.00
C788   C     0.15853   0.61542   0.75073   0.00000  Uiso   1.00
C789   C     0.15804   0.88386   0.74733   0.00000  Uiso   1.00
C790   C     0.18517   0.58965   0.72049   0.00000  Uiso   1.00
C791   C     0.19439   0.91010   0.77677   0.00000  Uiso   1.00
C792   C     0.17587   0.54414   0.71797   0.00000  Uiso   1.00
C793   C     0.18592   0.95567   0.77797   0.00000  Uiso   1.00
C794   C     0.14279   0.52373   0.74649   0.00000  Uiso   1.00
C795   C     0.14369   0.97540   0.74846   0.00000  Uiso   1.00
C796   C     0.08290   0.52388   0.80847   0.00000  Uiso   1.00
C797   C     0.12159   0.76236   0.54617   0.00000  Uiso   1.00
C798   C     0.06525   0.97365   0.68480   0.00000  Uiso   1.00
C799   C     0.08948   0.62256   0.80566   0.00000  Uiso   1.00
C800   C     0.07078   0.87393   0.69439   0.00000  Uiso   1.00
C801   C     0.22506   0.60857   0.69285   0.00000  Uiso   1.00
C802   C     0.21828   0.60515   0.64291   0.00000  Uiso   1.00
C803   C     0.25671   0.62166   0.61705   0.00000  Uiso   1.00
C804   C     0.30241   0.64111   0.64087   0.00000  Uiso   1.00
C805   C     0.30955   0.64438   0.69054   0.00000  Uiso   1.00
C806   C     0.27089   0.62850   0.71649   0.00000  Uiso   1.00
C807   C     0.24255   0.89097   0.80525   0.00000  Uiso   1.00
C808   C     0.21082   0.76458   0.95313   0.00000  Uiso   1.00
C809   C     0.24976   0.89242   0.85532   0.00000  Uiso   1.00
C810   C     0.29542   0.87458   0.88203   0.00000  Uiso   1.00
C811   C     0.00109   0.85585   0.85892   0.00000  Uiso   1.00
C812   C     0.32776   0.85480   0.80909   0.00000  Uiso   1.00
C813   C     0.28178   0.87190   0.78229   0.00000  Uiso   1.00
C814   C     0.12249   0.76231   0.59598   0.00000  Uiso   1.00
C815   C     0.20988   0.76450   0.90332   0.00000  Uiso   1.00
C816   C     0.21081   0.73766   0.60827   0.00000  Uiso   1.00
C817   C     0.12341   0.73575   0.89238   0.00000  Uiso   1.00
C818   C     0.21173   0.73765   0.55873   0.00000  Uiso   1.00
H819   H     0.32483   0.75306   0.69439   0.00000  Uiso   1.00
H820   H     0.08933   0.72414   0.86885   0.00000  Uiso   1.00
H821   H     0.24728   0.72730   0.54569   0.00000  Uiso   1.00
H822   H     0.08770   0.72387   0.95552   0.00000  Uiso   1.00
H823   H     0.06532   0.99190   0.79770   0.00000  Uiso   1.00
H824   H     0.04998   0.50561   0.69432   0.00000  Uiso   1.00
H825   H     0.10723   0.64591   0.83207   0.00000  Uiso   1.00
H826   H     0.08027   0.84322   0.67778   0.00000  Uiso   1.00
H827   H     0.18322   0.58985   0.62408   0.00000  Uiso   1.00
H828   H     0.25117   0.61922   0.57856   0.00000  Uiso   1.00
H829   H     0.33226   0.65366   0.62085   0.00000  Uiso   1.00
H830   H     0.00850   0.74722   0.80560   0.00000  Uiso   1.00
H831   H     0.01187   0.65901   0.70891   0.00000  Uiso   1.00
H832   H     0.27679   0.63124   0.75496   0.00000  Uiso   1.00
H833   H     0.21988   0.90699   0.87358   0.00000  Uiso   1.00
H834   H     0.30064   0.87540   0.92063   0.00000  Uiso   1.00
H835   H     0.03651   0.84224   0.87961   0.00000  Uiso   1.00
H836   H     0.02486   0.84065   0.79124   0.00000  Uiso   1.00
H837   H     0.27680   0.87061   0.74371   0.00000  Uiso   1.00
H838   H     0.19706   0.52378   0.69572   0.00000  Uiso   1.00
H839   H     0.21400   0.97644   0.80010   0.00000  Uiso   1.00
H840   H     0.08603   0.77268   0.52318   0.00000  Uiso   1.00
H841   H     0.24560   0.77655   0.97556   0.00000  Uiso   1.00
H842   H     0.08769   0.77229   0.61037   0.00000  Uiso   1.00
H843   H     0.24387   0.77616   0.88833   0.00000  Uiso   1.00
H844   H     0.24561   0.72766   0.63233   0.00000  Uiso   1.00
N845   N     0.16667   0.74999   0.62623   0.00000  Uiso   1.00
N846   N     0.16667   0.75001   0.87376   0.00000  Uiso   1.00
O847   O     0.16667   0.68454   0.78974   0.00000  Uiso   1.00
O848   O     0.04913   0.95874   0.64550   0.00000  Uiso   1.00
O849   O     0.04175   0.61867   0.79931   0.00000  Uiso   1.00
O850   O     0.02445   0.88335   0.69349   0.00000  Uiso   1.00
O851   O     0.16666   0.81547   0.71026   0.00000  Uiso   1.00
O852   O     0.16667   0.68453   0.71026   0.00000  Uiso   1.00
O853   O     0.16666   0.81547   0.78974   0.00000  Uiso   1.00
O854   O     0.09058   0.75000   0.78044   0.00000  Uiso   1.00
O855   O     0.24275   0.75000   0.71955   0.00000  Uiso   1.00
O856   O     0.09058   0.75000   0.70096   0.00000  Uiso   1.00
O857   O     0.24275   0.75001   0.79903   0.00000  Uiso   1.00
O858   O     0.07676   0.53819   0.84737   0.00000  Uiso   1.00
Zn859  Zn    0.16667   0.75001   0.80307   0.00000  Uiso   1.00
Zn860  Zn    0.16667   0.75000   0.69693   0.00000  Uiso   1.00
C861   C     0.49826   0.66373   0.75031   0.00000  Uiso   1.00
C862   C     0.45584   0.73577   0.94192   0.00000  Uiso   1.00
C863   C     0.50001   0.75007   0.52662   0.00000  Uiso   1.00
C864   C     0.50001   0.75014   0.97336   0.00000  Uiso   1.00
C865   C     0.40034   0.75029   0.73756   0.00000  Uiso   1.00
C866   C     0.59965   0.74976   0.76244   0.00000  Uiso   1.00
C867   C     0.34536   0.75110   0.73082   0.00000  Uiso   1.00
C868   C     0.65463   0.74912   0.76918   0.00000  Uiso   1.00
C869   C     0.44915   0.54823   0.77710   0.00000  Uiso   1.00
C870   C     0.44047   0.95009   0.71819   0.00000  Uiso   1.00
C871   C     0.45573   0.59508   0.77819   0.00000  Uiso   1.00
C872   C     0.49813   0.83601   0.74928   0.00000  Uiso   1.00
C873   C     0.44626   0.90310   0.71929   0.00000  Uiso   1.00
C874   C     0.49186   0.61542   0.75073   0.00000  Uiso   1.00
C875   C     0.49137   0.88386   0.74733   0.00000  Uiso   1.00
C876   C     0.51851   0.58965   0.72049   0.00000  Uiso   1.00
C877   C     0.52772   0.91010   0.77677   0.00000  Uiso   1.00
C878   C     0.50920   0.54414   0.71797   0.00000  Uiso   1.00
C879   C     0.51925   0.95567   0.77797   0.00000  Uiso   1.00
C880   C     0.47613   0.52373   0.74649   0.00000  Uiso   1.00
C881   C     0.47702   0.97540   0.74846   0.00000  Uiso   1.00
C882   C     0.41623   0.52388   0.80847   0.00000  Uiso   1.00
C883   C     0.45492   0.76236   0.54617   0.00000  Uiso   1.00
C884   C     0.39858   0.97365   0.68480   0.00000  Uiso   1.00
C885   C     0.42282   0.62256   0.80566   0.00000  Uiso   1.00
C886   C     0.40411   0.87393   0.69439   0.00000  Uiso   1.00
C887   C     0.55839   0.60857   0.69285   0.00000  Uiso   1.00
C888   C     0.55162   0.60515   0.64291   0.00000  Uiso   1.00
C889   C     0.59005   0.62166   0.61705   0.00000  Uiso   1.00
C890   C     0.63574   0.64111   0.64087   0.00000  Uiso   1.00
C891   C     0.64289   0.64438   0.69054   0.00000  Uiso   1.00
C892   C     0.60422   0.62850   0.71649   0.00000  Uiso   1.00
C893   C     0.57589   0.89097   0.80525   0.00000  Uiso   1.00
C894   C     0.54415   0.76458   0.95313   0.00000  Uiso   1.00
C895   C     0.58310   0.89242   0.85532   0.00000  Uiso   1.00
C896   C     0.62876   0.87458   0.88203   0.00000  Uiso   1.00
C897   C     0.33443   0.85585   0.85892   0.00000  Uiso   1.00
C898   C     0.66110   0.85480   0.80909   0.00000  Uiso   1.00
C899   C     0.61511   0.87190   0.78229   0.00000  Uiso   1.00
C900   C     0.45583   0.76231   0.59598   0.00000  Uiso   1.00
C901   C     0.54321   0.76450   0.90332   0.00000  Uiso   1.00
C902   C     0.54414   0.73766   0.60827   0.00000  Uiso   1.00
C903   C     0.45674   0.73575   0.89238   0.00000  Uiso   1.00
C904   C     0.54507   0.73765   0.55873   0.00000  Uiso   1.00
H905   H     0.65817   0.75306   0.69439   0.00000  Uiso   1.00
H906   H     0.42267   0.72414   0.86885   0.00000  Uiso   1.00
H907   H     0.58061   0.72730   0.54569   0.00000  Uiso   1.00
H908   H     0.42104   0.72387   0.95552   0.00000  Uiso   1.00
H909   H     0.39865   0.99190   0.79770   0.00000  Uiso   1.00
H910   H     0.38332   0.50561   0.69432   0.00000  Uiso   1.00
H911   H     0.44057   0.64591   0.83207   0.00000  Uiso   1.00
H912   H     0.41360   0.84322   0.67778   0.00000  Uiso   1.00
H913   H     0.51655   0.58985   0.62408   0.00000  Uiso   1.00
H914   H     0.58450   0.61922   0.57856   0.00000  Uiso   1.00
H915   H     0.66559   0.65366   0.62085   0.00000  Uiso   1.00
H916   H     0.34183   0.74722   0.80560   0.00000  Uiso   1.00
H917   H     0.34520   0.65901   0.70891   0.00000  Uiso   1.00
H918   H     0.61012   0.63124   0.75496   0.00000  Uiso   1.00
H919   H     0.55322   0.90699   0.87358   0.00000  Uiso   1.00
H920   H     0.63397   0.87540   0.92063   0.00000  Uiso   1.00
H921   H     0.36985   0.84224   0.87961   0.00000  Uiso   1.00
H922   H     0.35819   0.84065   0.79124   0.00000  Uiso   1.00
H923   H     0.61014   0.87061   0.74371   0.00000  Uiso   1.00
H924   H     0.53039   0.52378   0.69572   0.00000  Uiso   1.00
H925   H     0.54733   0.97644   0.80010   0.00000  Uiso   1.00
H926   H     0.41936   0.77268   0.52318   0.00000  Uiso   1.00
H927   H     0.57893   0.77655   0.97556   0.00000  Uiso   1.00
H928   H     0.42102   0.77229   0.61037   0.00000  Uiso   1.00
H929   H     0.57720   0.77616   0.88833   0.00000  Uiso   1.00
H930   H     0.57894   0.72766   0.63233   0.00000  Uiso   1.00
N931   N     0.50000   0.74999   0.62623   0.00000  Uiso   1.00
N932   N     0.50000   0.75001   0.87376   0.00000  Uiso   1.00
O933   O     0.50000   0.68454   0.78974   0.00000  Uiso   1.00
O934   O     0.38246   0.95874   0.64550   0.00000  Uiso   1.00
O935   O     0.37508   0.61867   0.79931   0.00000  Uiso   1.00
O936   O     0.35779   0.88335   0.69349   0.00000  Uiso   1.00
O937   O     0.50000   0.81547   0.71026   0.00000  Uiso   1.00
O938   O     0.50000   0.68453   0.71026   0.00000  Uiso   1.00
O939   O     0.50000   0.81547   0.78974   0.00000  Uiso   1.00
O940   O     0.42392   0.75000   0.78044   0.00000  Uiso   1.00
O941   O     0.57608   0.75000   0.71955   0.00000  Uiso   1.00
O942   O     0.42392   0.75000   0.70096   0.00000  Uiso   1.00
O943   O     0.57608   0.75001   0.79903   0.00000  Uiso   1.00
O944   O     0.41009   0.53819   0.84737   0.00000  Uiso   1.00
Zn945  Zn    0.50000   0.75001   0.80307   0.00000  Uiso   1.00
Zn946  Zn    0.50000   0.75000   0.69693   0.00000  Uiso   1.00
C947   C     0.83160   0.66373   0.75031   0.00000  Uiso   1.00
C948   C     0.78917   0.73577   0.94192   0.00000  Uiso   1.00
C949   C     0.83335   0.75007   0.52662   0.00000  Uiso   1.00
C950   C     0.83335   0.75014   0.97336   0.00000  Uiso   1.00
C951   C     0.73368   0.75029   0.73756   0.00000  Uiso   1.00
C952   C     0.93298   0.74976   0.76244   0.00000  Uiso   1.00
C953   C     0.67869   0.75110   0.73082   0.00000  Uiso   1.00
C954   C     0.98797   0.74912   0.76918   0.00000  Uiso   1.00
C955   C     0.78248   0.54823   0.77710   0.00000  Uiso   1.00
C956   C     0.77381   0.95009   0.71819   0.00000  Uiso   1.00
C957   C     0.78906   0.59508   0.77819   0.00000  Uiso   1.00
C958   C     0.83147   0.83601   0.74928   0.00000  Uiso   1.00
C959   C     0.77959   0.90310   0.71929   0.00000  Uiso   1.00
C960   C     0.82520   0.61542   0.75073   0.00000  Uiso   1.00
C961   C     0.82470   0.88386   0.74733   0.00000  Uiso   1.00
C962   C     0.85184   0.58965   0.72049   0.00000  Uiso   1.00
C963   C     0.86106   0.91010   0.77677   0.00000  Uiso   1.00
C964   C     0.84253   0.54414   0.71797   0.00000  Uiso   1.00
C965   C     0.85259   0.95567   0.77797   0.00000  Uiso   1.00
C966   C     0.80946   0.52373   0.74649   0.00000  Uiso   1.00
C967   C     0.81035   0.97540   0.74846   0.00000  Uiso   1.00
C968   C     0.74957   0.52388   0.80847   0.00000  Uiso   1.00
C969   C     0.78825   0.76236   0.54617   0.00000  Uiso   1.00
C970   C     0.73192   0.97365   0.68480   0.00000  Uiso   1.00
C971   C     0.75615   0.62256   0.80566   0.00000  Uiso   1.00
C972   C     0.73744   0.87393   0.69439   0.00000  Uiso   1.00
C973   C     0.89172   0.60857   0.69285   0.00000  Uiso   1.00
C974   C     0.88495   0.60515   0.64291   0.00000  Uiso   1.00
C975   C     0.92338   0.62166   0.61705   0.00000  Uiso   1.00
C976   C     0.96907   0.64111   0.64087   0.00000  Uiso   1.00
C977   C     0.97622   0.64438   0.69054   0.00000  Uiso   1.00
C978   C     0.93755   0.62850   0.71649   0.00000  Uiso   1.00
C979   C     0.90922   0.89097   0.80525   0.00000  Uiso   1.00
C980   C     0.87748   0.76458   0.95313   0.00000  Uiso   1.00
C981   C     0.91643   0.89242   0.85532   0.00000  Uiso   1.00
C982   C     0.96209   0.87458   0.88203   0.00000  Uiso   1.00
C983   C     0.66776   0.85585   0.85892   0.00000  Uiso   1.00
C984   C     0.99443   0.85480   0.80909   0.00000  Uiso   1.00
C985   C     0.94845   0.87190   0.78229   0.00000  Uiso   1.00
C986   C     0.78916   0.76231   0.59598   0.00000  Uiso   1.00
C987   C     0.87654   0.76450   0.90332   0.00000  Uiso   1.00
C988   C     0.87748   0.73766   0.60827   0.00000  Uiso   1.00
C989   C     0.79008   0.73575   0.89238   0.00000  Uiso   1.00
C990   C     0.87840   0.73765   0.55873   0.00000  Uiso   1.00
H991   H     0.99150   0.75306   0.69439   0.00000  Uiso   1.00
H992   H     0.75600   0.72414   0.86885   0.00000  Uiso   1.00
H993   H     0.91395   0.72730   0.54569   0.00000  Uiso   1.00
H994   H     0.75437   0.72387   0.95552   0.00000  Uiso   1.00
H995   H     0.73199   0.99190   0.79770   0.00000  Uiso   1.00
H996   H     0.71665   0.50561   0.69432   0.00000  Uiso   1.00
H997   H     0.77390   0.64591   0.83207   0.00000  Uiso   1.00
H998   H     0.74694   0.84322   0.67778   0.00000  Uiso   1.00
H999   H     0.84989   0.58985   0.62408   0.00000  Uiso   1.00
H1000  H     0.91784   0.61922   0.57856   0.00000  Uiso   1.00
H1001  H     0.99893   0.65366   0.62085   0.00000  Uiso   1.00
H1002  H     0.67516   0.74722   0.80560   0.00000  Uiso   1.00
H1003  H     0.67854   0.65901   0.70891   0.00000  Uiso   1.00
H1004  H     0.94346   0.63124   0.75496   0.00000  Uiso   1.00
H1005  H     0.88655   0.90699   0.87358   0.00000  Uiso   1.00
H1006  H     0.96730   0.87540   0.92063   0.00000  Uiso   1.00
H1007  H     0.70318   0.84224   0.87961   0.00000  Uiso   1.00
H1008  H     0.69153   0.84065   0.79124   0.00000  Uiso   1.00
H1009  H     0.94347   0.87061   0.74371   0.00000  Uiso   1.00
H1010  H     0.86372   0.52378   0.69572   0.00000  Uiso   1.00
H1011  H     0.88067   0.97644   0.80010   0.00000  Uiso   1.00
H1012  H     0.75269   0.77268   0.52318   0.00000  Uiso   1.00
H1013  H     0.91227   0.77655   0.97556   0.00000  Uiso   1.00
H1014  H     0.75435   0.77229   0.61037   0.00000  Uiso   1.00
H1015  H     0.91054   0.77616   0.88833   0.00000  Uiso   1.00
H1016  H     0.91228   0.72766   0.63233   0.00000  Uiso   1.00
N1017  N     0.83333   0.74999   0.62623   0.00000  Uiso   1.00
N1018  N     0.83333   0.75001   0.87376   0.00000  Uiso   1.00
O1019  O     0.83334   0.68454   0.78974   0.00000  Uiso   1.00
O1020  O     0.71580   0.95874   0.64550   0.00000  Uiso   1.00
O1021  O     0.70841   0.61867   0.79931   0.00000  Uiso   1.00
O1022  O     0.69112   0.88335   0.69349   0.00000  Uiso   1.00
O1023  O     0.83333   0.81547   0.71026   0.00000  Uiso   1.00
O1024  O     0.83334   0.68453   0.71026   0.00000  Uiso   1.00
O1025  O     0.83333   0.81547   0.78974   0.00000  Uiso   1.00
O1026  O     0.75725   0.75000   0.78044   0.00000  Uiso   1.00
O1027  O     0.90942   0.75000   0.71955   0.00000  Uiso   1.00
O1028  O     0.75725   0.75000   0.70096   0.00000  Uiso   1.00
O1029  O     0.90942   0.75001   0.79903   0.00000  Uiso   1.00
O1030  O     0.74342   0.53819   0.84737   0.00000  Uiso   1.00
Zn1031 Zn    0.83333   0.75001   0.80307   0.00000  Uiso   1.00
Zn1032 Zn    0.83333   0.75000   0.69693   0.00000  Uiso   1.00
loop_
_geom_bond_atom_site_label_1
_geom_bond_atom_site_label_2
_geom_bond_distance
_geom_bond_site_symmetry_2
_ccdc_geom_bond_type
C1     O78     1.289   .     A
C1     O73     1.283   .     A
C1     C14     1.450   .     S
C2     H48     1.083   .     S
C2     C4      1.408   .     A
C2     C43     1.407   .     A
C3     C23     1.409   .     A
C3     C44     1.408   .     A
C3     C520    1.509   1_554 S
C4     C34     1.409   .     A
C4     C519    1.509   .     S
C5     C7      1.399   .     S
C5     O80     1.275   .     A
C5     O82     1.276   .     A
C6     O81     1.275   .     A
C6     C8      1.399   .     S
C6     O83     1.276   .     A
C7     C180    1.328   1_455 S
C7     H217    1.088   1_455 S
C8     C93     1.328   .     S
C8     H142    1.088   .     S
C9     C22     1.494   .     S
C9     C20     1.403   .     A
C9     C11     1.408   .     A
C10    C21     1.405   .     A
C10    C13     1.409   .     A
C10    C24     1.491   .     S
C11    C14     1.425   .     A
C11    C25     1.488   .     S
C12    O79     1.284   .     A
C12    C15     1.437   .     S
C12    O77     1.281   .     A
C13    C15     1.420   .     A
C13    C26     1.492   .     S
C14    C16     1.412   .     A
C15    C17     1.406   .     A
C16    C27     1.485   .     S
C16    C18     1.380   .     A
C17    C33     1.483   .     S
C17    C19     1.379   .     A
C18    H64     1.086   .     S
C18    C20     1.390   .     A
C19    C21     1.392   .     A
C19    H65     1.086   .     S
C20    C279    1.442   1_545 S
C21    C278    1.442   .     S
C22    O84     1.221   .     D
C22    H307    1.085   1_545 S
C23    H66     1.083   .     S
C23    C40     1.407   .     A
C24    O74     1.221   .     D
C24    H308    1.085   .     S
C25    O75     1.220   .     D
C25    H51     1.082   .     S
C26    O76     1.221   .     D
C26    H52     1.082   .     S
C27    C32     1.404   .     A
C27    C28     1.405   .     A
C28    C29     1.399   .     A
C28    H53     1.083   .     S
C29    H54     1.082   .     S
C29    C30     1.398   .     A
C30    C31     1.397   .     A
C30    H55     1.082   .     S
C31    C32     1.398   .     A
C31    H143    1.081   .     S
C32    H58     1.082   .     S
C33    C39     1.405   .     A
C33    C35     1.404   .     A
C34    C41     1.408   .     A
C34    H67     1.083   .     S
C35    C36     1.399   .     A
C35    H59     1.083   .     S
C36    H60     1.083   .     S
C36    C123    1.398   .     S
C37    H61     1.083   .     S
C37    C208    1.398   1_455 S
C37    C210    1.398   1_455 S
C38    C39     1.398   .     A
C38    C123    1.398   .     S
C38    H148    1.082   .     S
C39    H63     1.083   .     S
C40    N71     1.364   .     A
C40    H68     1.081   .     S
C41    N72     1.364   .     A
C41    H69     1.081   .     S
C42    H70     1.080   .     S
C42    C44     1.407   .     A
C42    N71     1.364   .     A
C43    N72     1.364   .     A
C43    H46     1.081   .     S
C44    H47     1.083   .     S
H45    C93     1.088   .     S
H49    C280    1.085   .     S
H50    C282    1.085   1_545 S
H56    C180    1.088   1_455 S
H57    C203    1.081   1_455 S
H62    C210    1.082   1_455 S
N71    Zn86    2.002   .     S
N72    Zn85    2.002   .     S
O73    Zn85    1.996   .     S
O77    Zn86    1.996   .     S
O78    Zn86    1.982   .     S
O79    Zn85    1.982   .     S
O80    Zn85    1.967   .     S
O81    Zn86    1.967   .     S
O82    Zn86    1.977   .     S
O83    Zn85    1.977   .     S
C87    O164    1.289   .     A
C87    O159    1.283   .     A
C87    C100    1.450   .     S
C88    H134    1.083   .     S
C88    C90     1.408   .     A
C88    C129    1.407   .     A
C89    C109    1.409   .     A
C89    C130    1.408   .     A
C89    C606    1.509   1_554 S
C90    C120    1.409   .     A
C90    C605    1.509   .     S
C91    C93     1.399   .     S
C91    O166    1.275   .     A
C91    O168    1.276   .     A
C92    O167    1.275   .     A
C92    C94     1.399   .     S
C92    O169    1.276   .     A
C94    C179    1.328   .     S
C94    H228    1.088   .     S
C95    C108    1.494   .     S
C95    C106    1.403   .     A
C95    C97     1.408   .     A
C96    C107    1.405   .     A
C96    C99     1.409   .     A
C96    C110    1.491   .     S
C97    C100    1.425   .     A
C97    C111    1.488   .     S
C98    O165    1.284   .     A
C98    C101    1.437   .     S
C98    O163    1.281   .     A
C99    C101    1.420   .     A
C99    C112    1.492   .     S
C100   C102    1.412   .     A
C101   C103    1.406   .     A
C102   C113    1.485   .     S
C102   C104    1.380   .     A
C103   C119    1.483   .     S
C103   C105    1.379   .     A
C104   H150    1.086   .     S
C104   C106    1.390   .     A
C105   C107    1.392   .     A
C105   H151    1.086   .     S
C106   C365    1.442   1_545 S
C107   C364    1.442   .     S
C108   O170    1.221   .     D
C108   H393    1.085   1_545 S
C109   H152    1.083   .     S
C109   C126    1.407   .     A
C110   O160    1.221   .     D
C110   H394    1.085   .     S
C111   O161    1.220   .     D
C111   H137    1.082   .     S
C112   O162    1.221   .     D
C112   H138    1.082   .     S
C113   C118    1.404   .     A
C113   C114    1.405   .     A
C114   C115    1.399   .     A
C114   H139    1.083   .     S
C115   H140    1.082   .     S
C115   C116    1.398   .     A
C116   C117    1.397   .     A
C116   H141    1.082   .     S
C117   C118    1.398   .     A
C117   H229    1.081   .     S
C118   H144    1.082   .     S
C119   C125    1.405   .     A
C119   C121    1.404   .     A
C120   C127    1.408   .     A
C120   H153    1.083   .     S
C121   C122    1.399   .     A
C121   H145    1.083   .     S
C122   H146    1.083   .     S
C122   C209    1.398   .     S
C123   H147    1.083   .     S
C124   C125    1.398   .     A
C124   C209    1.398   .     S
C124   H234    1.082   .     S
C125   H149    1.083   .     S
C126   N157    1.364   .     A
C126   H154    1.081   .     S
C127   N158    1.364   .     A
C127   H155    1.081   .     S
C128   H156    1.080   .     S
C128   C130    1.407   .     A
C128   N157    1.364   .     A
C129   N158    1.364   .     A
C129   H132    1.081   .     S
C130   H133    1.083   .     S
H131   C179    1.088   .     S
H135   C366    1.085   .     S
H136   C368    1.085   1_545 S
N157   Zn172   2.002   .     S
N158   Zn171   2.002   .     S
O159   Zn171   1.996   .     S
O163   Zn172   1.996   .     S
O164   Zn172   1.982   .     S
O165   Zn171   1.982   .     S
O166   Zn171   1.967   .     S
O167   Zn172   1.967   .     S
O168   Zn172   1.977   .     S
O169   Zn171   1.977   .     S
C173   O250    1.289   .     A
C173   O245    1.283   .     A
C173   C186    1.450   .     S
C174   H220    1.083   .     S
C174   C176    1.408   .     A
C174   C215    1.407   .     A
C175   C195    1.409   .     A
C175   C216    1.408   .     A
C175   C692    1.509   1_554 S
C176   C206    1.409   .     A
C176   C691    1.509   .     S
C177   C179    1.399   .     S
C177   O252    1.275   .     A
C177   O254    1.276   .     A
C178   O253    1.275   .     A
C178   C180    1.399   .     S
C178   O255    1.276   .     A
C180   C7      1.328   1_655 S
C180   H56     1.088   1_655 S
C181   C194    1.494   .     S
C181   C192    1.403   .     A
C181   C183    1.408   .     A
C182   C193    1.405   .     A
C182   C185    1.409   .     A
C182   C196    1.491   .     S
C183   C186    1.425   .     A
C183   C197    1.488   .     S
C184   O251    1.284   .     A
C184   C187    1.437   .     S
C184   O249    1.281   .     A
C185   C187    1.420   .     A
C185   C198    1.492   .     S
C186   C188    1.412   .     A
C187   C189    1.406   .     A
C188   C199    1.485   .     S
C188   C190    1.380   .     A
C189   C205    1.483   .     S
C189   C191    1.379   .     A
C190   H236    1.086   .     S
C190   C192    1.390   .     A
C191   C193    1.392   .     A
C191   H237    1.086   .     S
C192   C451    1.442   1_545 S
C193   C450    1.442   .     S
C194   O256    1.221   .     D
C194   H479    1.085   1_545 S
C195   H238    1.083   .     S
C195   C212    1.407   .     A
C196   O246    1.221   .     D
C196   H480    1.085   .     S
C197   O247    1.220   .     D
C197   H223    1.082   .     S
C198   O248    1.221   .     D
C198   H224    1.082   .     S
C199   C204    1.404   .     A
C199   C200    1.405   .     A
C200   C201    1.399   .     A
C200   H225    1.083   .     S
C201   H226    1.082   .     S
C201   C202    1.398   .     A
C202   C203    1.397   .     A
C202   H227    1.082   .     S
C203   C204    1.398   .     A
C203   H57     1.081   1_655 S
C204   H230    1.082   .     S
C205   C211    1.405   .     A
C205   C207    1.404   .     A
C206   C213    1.408   .     A
C206   H239    1.083   .     S
C207   C208    1.399   .     A
C207   H231    1.083   .     S
C208   H232    1.083   .     S
C208   C37     1.398   1_655 S
C209   H233    1.083   .     S
C210   C211    1.398   .     A
C210   C37     1.398   1_655 S
C210   H62     1.082   1_655 S
C211   H235    1.083   .     S
C212   N243    1.364   .     A
C212   H240    1.081   .     S
C213   N244    1.364   .     A
C213   H241    1.081   .     S
C214   H242    1.080   .     S
C214   C216    1.407   .     A
C214   N243    1.364   .     A
C215   N244    1.364   .     A
C215   H218    1.081   .     S
C216   H219    1.083   .     S
H217   C7      1.088   1_655 S
H221   C452    1.085   .     S
H222   C454    1.085   1_545 S
N243   Zn258   2.002   .     S
N244   Zn257   2.002   .     S
O245   Zn257   1.996   .     S
O249   Zn258   1.996   .     S
O250   Zn258   1.982   .     S
O251   Zn257   1.982   .     S
O252   Zn257   1.967   .     S
O253   Zn258   1.967   .     S
O254   Zn258   1.977   .     S
O255   Zn257   1.977   .     S
C259   O336    1.289   .     A
C259   O331    1.283   .     A
C259   C272    1.450   .     S
C260   H306    1.083   .     S
C260   C262    1.408   .     A
C260   C301    1.407   .     A
C261   C281    1.409   .     A
C261   C302    1.408   .     A
C261   C778    1.509   1_554 S
C262   C292    1.409   .     A
C262   C777    1.509   .     S
C263   C265    1.399   .     S
C263   O338    1.275   .     A
C263   O340    1.276   .     A
C264   O339    1.275   .     A
C264   C266    1.399   .     S
C264   O341    1.276   .     A
C265   C438    1.328   1_455 S
C265   H475    1.088   1_455 S
C266   C351    1.328   .     S
C266   H400    1.088   .     S
C267   C280    1.494   .     S
C267   C278    1.403   .     A
C267   C269    1.408   .     A
C268   C279    1.405   .     A
C268   C271    1.409   .     A
C268   C282    1.491   .     S
C269   C272    1.425   .     A
C269   C283    1.488   .     S
C270   O337    1.284   .     A
C270   C273    1.437   .     S
C270   O335    1.281   .     A
C271   C273    1.420   .     A
C271   C284    1.492   .     S
C272   C274    1.412   .     A
C273   C275    1.406   .     A
C274   C285    1.485   .     S
C274   C276    1.380   .     A
C275   C291    1.483   .     S
C275   C277    1.379   .     A
C276   H322    1.086   .     S
C276   C278    1.390   .     A
C277   C279    1.392   .     A
C277   H323    1.086   .     S
C279   C20     1.442   1_565 S
C280   O342    1.221   .     D
C281   H324    1.083   .     S
C281   C298    1.407   .     A
C282   O332    1.221   .     D
C282   H50     1.085   1_565 S
C283   O333    1.220   .     D
C283   H309    1.082   .     S
C284   O334    1.221   .     D
C284   H310    1.082   .     S
C285   C290    1.404   .     A
C285   C286    1.405   .     A
C286   C287    1.399   .     A
C286   H311    1.083   .     S
C287   H312    1.082   .     S
C287   C288    1.398   .     A
C288   C289    1.397   .     A
C288   H313    1.082   .     S
C289   C290    1.398   .     A
C289   H401    1.081   .     S
C290   H316    1.082   .     S
C291   C297    1.405   .     A
C291   C293    1.404   .     A
C292   C299    1.408   .     A
C292   H325    1.083   .     S
C293   C294    1.399   .     A
C293   H317    1.083   .     S
C294   H318    1.083   .     S
C294   C381    1.398   .     S
C295   H319    1.083   .     S
C295   C466    1.398   1_455 S
C295   C468    1.398   1_455 S
C296   C297    1.398   .     A
C296   C381    1.398   .     S
C296   H406    1.082   .     S
C297   H321    1.083   .     S
C298   N329    1.364   .     A
C298   H326    1.081   .     S
C299   N330    1.364   .     A
C299   H327    1.081   .     S
C300   H328    1.080   .     S
C300   C302    1.407   .     A
C300   N329    1.364   .     A
C301   N330    1.364   .     A
C301   H304    1.081   .     S
C302   H305    1.083   .     S
H303   C351    1.088   .     S
H307   C22     1.085   1_565 S
H314   C438    1.088   1_455 S
H315   C461    1.081   1_455 S
H320   C468    1.082   1_455 S
N329   Zn344   2.002   .     S
N330   Zn343   2.002   .     S
O331   Zn343   1.996   .     S
O335   Zn344   1.996   .     S
O336   Zn344   1.982   .     S
O337   Zn343   1.982   .     S
O338   Zn343   1.967   .     S
O339   Zn344   1.967   .     S
O340   Zn344   1.977   .     S
O341   Zn343   1.977   .     S
C345   O422    1.289   .     A
C345   O417    1.283   .     A
C345   C358    1.450   .     S
C346   H392    1.083   .     S
C346   C348    1.408   .     A
C346   C387    1.407   .     A
C347   C367    1.409   .     A
C347   C388    1.408   .     A
C347   C864    1.509   1_554 S
C348   C378    1.409   .     A
C348   C863    1.509   .     S
C349   C351    1.399   .     S
C349   O424    1.275   .     A
C349   O426    1.276   .     A
C350   O425    1.275   .     A
C350   C352    1.399   .     S
C350   O427    1.276   .     A
C352   C437    1.328   .     S
C352   H486    1.088   .     S
C353   C366    1.494   .     S
C353   C364    1.403   .     A
C353   C355    1.408   .     A
C354   C365    1.405   .     A
C354   C357    1.409   .     A
C354   C368    1.491   .     S
C355   C358    1.425   .     A
C355   C369    1.488   .     S
C356   O423    1.284   .     A
C356   C359    1.437   .     S
C356   O421    1.281   .     A
C357   C359    1.420   .     A
C357   C370    1.492   .     S
C358   C360    1.412   .     A
C359   C361    1.406   .     A
C360   C371    1.485   .     S
C360   C362    1.380   .     A
C361   C377    1.483   .     S
C361   C363    1.379   .     A
C362   H408    1.086   .     S
C362   C364    1.390   .     A
C363   C365    1.392   .     A
C363   H409    1.086   .     S
C365   C106    1.442   1_565 S
C366   O428    1.221   .     D
C367   H410    1.083   .     S
C367   C384    1.407   .     A
C368   O418    1.221   .     D
C368   H136    1.085   1_565 S
C369   O419    1.220   .     D
C369   H395    1.082   .     S
C370   O420    1.221   .     D
C370   H396    1.082   .     S
C371   C376    1.404   .     A
C371   C372    1.405   .     A
C372   C373    1.399   .     A
C372   H397    1.083   .     S
C373   H398    1.082   .     S
C373   C374    1.398   .     A
C374   C375    1.397   .     A
C374   H399    1.082   .     S
C375   C376    1.398   .     A
C375   H487    1.081   .     S
C376   H402    1.082   .     S
C377   C383    1.405   .     A
C377   C379    1.404   .     A
C378   C385    1.408   .     A
C378   H411    1.083   .     S
C379   C380    1.399   .     A
C379   H403    1.083   .     S
C380   H404    1.083   .     S
C380   C467    1.398   .     S
C381   H405    1.083   .     S
C382   C383    1.398   .     A
C382   C467    1.398   .     S
C382   H492    1.082   .     S
C383   H407    1.083   .     S
C384   N415    1.364   .     A
C384   H412    1.081   .     S
C385   N416    1.364   .     A
C385   H413    1.081   .     S
C386   H414    1.080   .     S
C386   C388    1.407   .     A
C386   N415    1.364   .     A
C387   N416    1.364   .     A
C387   H390    1.081   .     S
C388   H391    1.083   .     S
H389   C437    1.088   .     S
H393   C108    1.085   1_565 S
N415   Zn430   2.002   .     S
N416   Zn429   2.002   .     S
O417   Zn429   1.996   .     S
O421   Zn430   1.996   .     S
O422   Zn430   1.982   .     S
O423   Zn429   1.982   .     S
O424   Zn429   1.967   .     S
O425   Zn430   1.967   .     S
O426   Zn430   1.977   .     S
O427   Zn429   1.977   .     S
C431   O508    1.289   .     A
C431   O503    1.283   .     A
C431   C444    1.450   .     S
C432   H478    1.083   .     S
C432   C434    1.408   .     A
C432   C473    1.407   .     A
C433   C453    1.409   .     A
C433   C474    1.408   .     A
C433   C950    1.509   1_554 S
C434   C464    1.409   .     A
C434   C949    1.509   .     S
C435   C437    1.399   .     S
C435   O510    1.275   .     A
C435   O512    1.276   .     A
C436   O511    1.275   .     A
C436   C438    1.399   .     S
C436   O513    1.276   .     A
C438   C265    1.328   1_655 S
C438   H314    1.088   1_655 S
C439   C452    1.494   .     S
C439   C450    1.403   .     A
C439   C441    1.408   .     A
C440   C451    1.405   .     A
C440   C443    1.409   .     A
C440   C454    1.491   .     S
C441   C444    1.425   .     A
C441   C455    1.488   .     S
C442   O509    1.284   .     A
C442   C445    1.437   .     S
C442   O507    1.281   .     A
C443   C445    1.420   .     A
C443   C456    1.492   .     S
C444   C446    1.412   .     A
C445   C447    1.406   .     A
C446   C457    1.485   .     S
C446   C448    1.380   .     A
C447   C463    1.483   .     S
C447   C449    1.379   .     A
C448   H494    1.086   .     S
C448   C450    1.390   .     A
C449   C451    1.392   .     A
C449   H495    1.086   .     S
C451   C192    1.442   1_565 S
C452   O514    1.221   .     D
C453   H496    1.083   .     S
C453   C470    1.407   .     A
C454   O504    1.221   .     D
C454   H222    1.085   1_565 S
C455   O505    1.220   .     D
C455   H481    1.082   .     S
C456   O506    1.221   .     D
C456   H482    1.082   .     S
C457   C462    1.404   .     A
C457   C458    1.405   .     A
C458   C459    1.399   .     A
C458   H483    1.083   .     S
C459   H484    1.082   .     S
C459   C460    1.398   .     A
C460   C461    1.397   .     A
C460   H485    1.082   .     S
C461   C462    1.398   .     A
C461   H315    1.081   1_655 S
C462   H488    1.082   .     S
C463   C469    1.405   .     A
C463   C465    1.404   .     A
C464   C471    1.408   .     A
C464   H497    1.083   .     S
C465   C466    1.399   .     A
C465   H489    1.083   .     S
C466   H490    1.083   .     S
C466   C295    1.398   1_655 S
C467   H491    1.083   .     S
C468   C469    1.398   .     A
C468   C295    1.398   1_655 S
C468   H320    1.082   1_655 S
C469   H493    1.083   .     S
C470   N501    1.364   .     A
C470   H498    1.081   .     S
C471   N502    1.364   .     A
C471   H499    1.081   .     S
C472   H500    1.080   .     S
C472   C474    1.407   .     A
C472   N501    1.364   .     A
C473   N502    1.364   .     A
C473   H476    1.081   .     S
C474   H477    1.083   .     S
H475   C265    1.088   1_655 S
H479   C194    1.085   1_565 S
N501   Zn516   2.002   .     S
N502   Zn515   2.002   .     S
O503   Zn515   1.996   .     S
O507   Zn516   1.996   .     S
O508   Zn516   1.982   .     S
O509   Zn515   1.982   .     S
O510   Zn515   1.967   .     S
O511   Zn516   1.967   .     S
O512   Zn516   1.977   .     S
O513   Zn515   1.977   .     S
C517   O594    1.289   .     A
C517   O589    1.283   .     A
C517   C530    1.450   .     S
C518   H564    1.083   .     S
C518   C520    1.408   .     A
C518   C559    1.407   .     A
C519   C539    1.409   .     A
C519   C560    1.408   .     A
C520   C550    1.409   .     A
C520   C3      1.509   1_556 S
C521   C523    1.399   .     S
C521   O596    1.275   .     A
C521   O598    1.276   .     A
C522   O597    1.275   .     A
C522   C524    1.399   .     S
C522   O599    1.276   .     A
C523   C696    1.328   1_455 S
C523   H733    1.088   1_455 S
C524   C609    1.328   .     S
C524   H658    1.088   .     S
C525   C538    1.494   .     S
C525   C536    1.403   .     A
C525   C527    1.408   .     A
C526   C537    1.405   .     A
C526   C529    1.409   .     A
C526   C540    1.491   .     S
C527   C530    1.425   .     A
C527   C541    1.488   .     S
C528   O595    1.284   .     A
C528   C531    1.437   .     S
C528   O593    1.281   .     A
C529   C531    1.420   .     A
C529   C542    1.492   .     S
C530   C532    1.412   .     A
C531   C533    1.406   .     A
C532   C543    1.485   .     S
C532   C534    1.380   .     A
C533   C549    1.483   .     S
C533   C535    1.379   .     A
C534   H580    1.086   .     S
C534   C536    1.390   .     A
C535   C537    1.392   .     A
C535   H581    1.086   .     S
C536   C795    1.442   1_545 S
C537   C794    1.442   .     S
C538   O600    1.221   .     D
C538   H823    1.085   1_545 S
C539   H582    1.083   .     S
C539   C556    1.407   .     A
C540   O590    1.221   .     D
C540   H824    1.085   .     S
C541   O591    1.220   .     D
C541   H567    1.082   .     S
C542   O592    1.221   .     D
C542   H568    1.082   .     S
C543   C548    1.404   .     A
C543   C544    1.405   .     A
C544   C545    1.399   .     A
C544   H569    1.083   .     S
C545   H570    1.082   .     S
C545   C546    1.398   .     A
C546   C547    1.397   .     A
C546   H571    1.082   .     S
C547   C548    1.398   .     A
C547   H659    1.081   .     S
C548   H574    1.082   .     S
C549   C555    1.405   .     A
C549   C551    1.404   .     A
C550   C557    1.408   .     A
C550   H583    1.083   .     S
C551   C552    1.399   .     A
C551   H575    1.083   .     S
C552   H576    1.083   .     S
C552   C639    1.398   .     S
C553   H577    1.083   .     S
C553   C724    1.398   1_455 S
C553   C726    1.398   1_455 S
C554   C555    1.398   .     A
C554   C639    1.398   .     S
C554   H664    1.082   .     S
C555   H579    1.083   .     S
C556   N587    1.364   .     A
C556   H584    1.081   .     S
C557   N588    1.364   .     A
C557   H585    1.081   .     S
C558   H586    1.080   .     S
C558   C560    1.407   .     A
C558   N587    1.364   .     A
C559   N588    1.364   .     A
C559   H562    1.081   .     S
C560   H563    1.083   .     S
H561   C609    1.088   .     S
H565   C796    1.085   .     S
H566   C798    1.085   1_545 S
H572   C696    1.088   1_455 S
H573   C719    1.081   1_455 S
H578   C726    1.082   1_455 S
N587   Zn602   2.002   .     S
N588   Zn601   2.002   .     S
O589   Zn601   1.996   .     S
O593   Zn602   1.996   .     S
O594   Zn602   1.982   .     S
O595   Zn601   1.982   .     S
O596   Zn601   1.967   .     S
O597   Zn602   1.967   .     S
O598   Zn602   1.977   .     S
O599   Zn601   1.977   .     S
C603   O680    1.289   .     A
C603   O675    1.283   .     A
C603   C616    1.450   .     S
C604   H650    1.083   .     S
C604   C606    1.408   .     A
C604   C645    1.407   .     A
C605   C625    1.409   .     A
C605   C646    1.408   .     A
C606   C636    1.409   .     A
C606   C89     1.509   1_556 S
C607   C609    1.399   .     S
C607   O682    1.275   .     A
C607   O684    1.276   .     A
C608   O683    1.275   .     A
C608   C610    1.399   .     S
C608   O685    1.276   .     A
C610   C695    1.328   .     S
C610   H744    1.088   .     S
C611   C624    1.494   .     S
C611   C622    1.403   .     A
C611   C613    1.408   .     A
C612   C623    1.405   .     A
C612   C615    1.409   .     A
C612   C626    1.491   .     S
C613   C616    1.425   .     A
C613   C627    1.488   .     S
C614   O681    1.284   .     A
C614   C617    1.437   .     S
C614   O679    1.281   .     A
C615   C617    1.420   .     A
C615   C628    1.492   .     S
C616   C618    1.412   .     A
C617   C619    1.406   .     A
C618   C629    1.485   .     S
C618   C620    1.380   .     A
C619   C635    1.483   .     S
C619   C621    1.379   .     A
C620   H666    1.086   .     S
C620   C622    1.390   .     A
C621   C623    1.392   .     A
C621   H667    1.086   .     S
C622   C881    1.442   1_545 S
C623   C880    1.442   .     S
C624   O686    1.221   .     D
C624   H909    1.085   1_545 S
C625   H668    1.083   .     S
C625   C642    1.407   .     A
C626   O676    1.221   .     D
C626   H910    1.085   .     S
C627   O677    1.220   .     D
C627   H653    1.082   .     S
C628   O678    1.221   .     D
C628   H654    1.082   .     S
C629   C634    1.404   .     A
C629   C630    1.405   .     A
C630   C631    1.399   .     A
C630   H655    1.083   .     S
C631   H656    1.082   .     S
C631   C632    1.398   .     A
C632   C633    1.397   .     A
C632   H657    1.082   .     S
C633   C634    1.398   .     A
C633   H745    1.081   .     S
C634   H660    1.082   .     S
C635   C641    1.405   .     A
C635   C637    1.404   .     A
C636   C643    1.408   .     A
C636   H669    1.083   .     S
C637   C638    1.399   .     A
C637   H661    1.083   .     S
C638   H662    1.083   .     S
C638   C725    1.398   .     S
C639   H663    1.083   .     S
C640   C641    1.398   .     A
C640   C725    1.398   .     S
C640   H750    1.082   .     S
C641   H665    1.083   .     S
C642   N673    1.364   .     A
C642   H670    1.081   .     S
C643   N674    1.364   .     A
C643   H671    1.081   .     S
C644   H672    1.080   .     S
C644   C646    1.407   .     A
C644   N673    1.364   .     A
C645   N674    1.364   .     A
C645   H648    1.081   .     S
C646   H649    1.083   .     S
H647   C695    1.088   .     S
H651   C882    1.085   .     S
H652   C884    1.085   1_545 S
N673   Zn688   2.002   .     S
N674   Zn687   2.002   .     S
O675   Zn687   1.996   .     S
O679   Zn688   1.996   .     S
O680   Zn688   1.982   .     S
O681   Zn687   1.982   .     S
O682   Zn687   1.967   .     S
O683   Zn688   1.967   .     S
O684   Zn688   1.977   .     S
O685   Zn687   1.977   .     S
C689   O766    1.289   .     A
C689   O761    1.283   .     A
C689   C702    1.450   .     S
C690   H736    1.083   .     S
C690   C692    1.408   .     A
C690   C731    1.407   .     A
C691   C711    1.409   .     A
C691   C732    1.408   .     A
C692   C722    1.409   .     A
C692   C175    1.509   1_556 S
C693   C695    1.399   .     S
C693   O768    1.275   .     A
C693   O770    1.276   .     A
C694   O769    1.275   .     A
C694   C696    1.399   .     S
C694   O771    1.276   .     A
C696   C523    1.328   1_655 S
C696   H572    1.088   1_655 S
C697   C710    1.494   .     S
C697   C708    1.403   .     A
C697   C699    1.408   .     A
C698   C709    1.405   .     A
C698   C701    1.409   .     A
C698   C712    1.491   .     S
C699   C702    1.425   .     A
C699   C713    1.488   .     S
C700   O767    1.284   .     A
C700   C703    1.437   .     S
C700   O765    1.281   .     A
C701   C703    1.420   .     A
C701   C714    1.492   .     S
C702   C704    1.412   .     A
C703   C705    1.406   .     A
C704   C715    1.485   .     S
C704   C706    1.380   .     A
C705   C721    1.483   .     S
C705   C707    1.379   .     A
C706   H752    1.086   .     S
C706   C708    1.390   .     A
C707   C709    1.392   .     A
C707   H753    1.086   .     S
C708   C967    1.442   1_545 S
C709   C966    1.442   .     S
C710   O772    1.221   .     D
C710   H995    1.085   1_545 S
C711   H754    1.083   .     S
C711   C728    1.407   .     A
C712   O762    1.221   .     D
C712   H996    1.085   .     S
C713   O763    1.220   .     D
C713   H739    1.082   .     S
C714   O764    1.221   .     D
C714   H740    1.082   .     S
C715   C720    1.404   .     A
C715   C716    1.405   .     A
C716   C717    1.399   .     A
C716   H741    1.083   .     S
C717   H742    1.082   .     S
C717   C718    1.398   .     A
C718   C719    1.397   .     A
C718   H743    1.082   .     S
C719   C720    1.398   .     A
C719   H573    1.081   1_655 S
C720   H746    1.082   .     S
C721   C727    1.405   .     A
C721   C723    1.404   .     A
C722   C729    1.408   .     A
C722   H755    1.083   .     S
C723   C724    1.399   .     A
C723   H747    1.083   .     S
C724   H748    1.083   .     S
C724   C553    1.398   1_655 S
C725   H749    1.083   .     S
C726   C727    1.398   .     A
C726   C553    1.398   1_655 S
C726   H578    1.082   1_655 S
C727   H751    1.083   .     S
C728   N759    1.364   .     A
C728   H756    1.081   .     S
C729   N760    1.364   .     A
C729   H757    1.081   .     S
C730   H758    1.080   .     S
C730   C732    1.407   .     A
C730   N759    1.364   .     A
C731   N760    1.364   .     A
C731   H734    1.081   .     S
C732   H735    1.083   .     S
H733   C523    1.088   1_655 S
H737   C968    1.085   .     S
H738   C970    1.085   1_545 S
N759   Zn774   2.002   .     S
N760   Zn773   2.002   .     S
O761   Zn773   1.996   .     S
O765   Zn774   1.996   .     S
O766   Zn774   1.982   .     S
O767   Zn773   1.982   .     S
O768   Zn773   1.967   .     S
O769   Zn774   1.967   .     S
O770   Zn774   1.977   .     S
O771   Zn773   1.977   .     S
C775   O852    1.289   .     A
C775   O847    1.283   .     A
C775   C788    1.450   .     S
C776   H822    1.083   .     S
C776   C778    1.408   .     A
C776   C817    1.407   .     A
C777   C797    1.409   .     A
C777   C818    1.408   .     A
C778   C808    1.409   .     A
C778   C261    1.509   1_556 S
C779   C781    1.399   .     S
C779   O854    1.275   .     A
C779   O856    1.276   .     A
C780   O855    1.275   .     A
C780   C782    1.399   .     S
C780   O857    1.276   .     A
C781   C954    1.328   1_455 S
C781   H991    1.088   1_455 S
C782   C867    1.328   .     S
C782   H916    1.088   .     S
C783   C796    1.494   .     S
C783   C794    1.403   .     A
C783   C785    1.408   .     A
C784   C795    1.405   .     A
C784   C787    1.409   .     A
C784   C798    1.491   .     S
C785   C788    1.425   .     A
C785   C799    1.488   .     S
C786   O853    1.284   .     A
C786   C789    1.437   .     S
C786   O851    1.281   .     A
C787   C789    1.420   .     A
C787   C800    1.492   .     S
C788   C790    1.412   .     A
C789   C791    1.406   .     A
C790   C801    1.485   .     S
C790   C792    1.380   .     A
C791   C807    1.483   .     S
C791   C793    1.379   .     A
C792   H838    1.086   .     S
C792   C794    1.390   .     A
C793   C795    1.392   .     A
C793   H839    1.086   .     S
C795   C536    1.442   1_565 S
C796   O858    1.221   .     D
C797   H840    1.083   .     S
C797   C814    1.407   .     A
C798   O848    1.221   .     D
C798   H566    1.085   1_565 S
C799   O849    1.220   .     D
C799   H825    1.082   .     S
C800   O850    1.221   .     D
C800   H826    1.082   .     S
C801   C806    1.404   .     A
C801   C802    1.405   .     A
C802   C803    1.399   .     A
C802   H827    1.083   .     S
C803   H828    1.082   .     S
C803   C804    1.398   .     A
C804   C805    1.397   .     A
C804   H829    1.082   .     S
C805   C806    1.398   .     A
C805   H917    1.081   .     S
C806   H832    1.082   .     S
C807   C813    1.405   .     A
C807   C809    1.404   .     A
C808   C815    1.408   .     A
C808   H841    1.083   .     S
C809   C810    1.399   .     A
C809   H833    1.083   .     S
C810   H834    1.083   .     S
C810   C897    1.398   .     S
C811   H835    1.083   .     S
C811   C982    1.398   1_455 S
C811   C984    1.398   1_455 S
C812   C813    1.398   .     A
C812   C897    1.398   .     S
C812   H922    1.082   .     S
C813   H837    1.083   .     S
C814   N845    1.364   .     A
C814   H842    1.081   .     S
C815   N846    1.364   .     A
C815   H843    1.081   .     S
C816   H844    1.080   .     S
C816   C818    1.407   .     A
C816   N845    1.364   .     A
C817   N846    1.364   .     A
C817   H820    1.081   .     S
C818   H821    1.083   .     S
H819   C867    1.088   .     S
H823   C538    1.085   1_565 S
H830   C954    1.088   1_455 S
H831   C977    1.081   1_455 S
H836   C984    1.082   1_455 S
N845   Zn860   2.002   .     S
N846   Zn859   2.002   .     S
O847   Zn859   1.996   .     S
O851   Zn860   1.996   .     S
O852   Zn860   1.982   .     S
O853   Zn859   1.982   .     S
O854   Zn859   1.967   .     S
O855   Zn860   1.967   .     S
O856   Zn860   1.977   .     S
O857   Zn859   1.977   .     S
C861   O938    1.289   .     A
C861   O933    1.283   .     A
C861   C874    1.450   .     S
C862   H908    1.083   .     S
C862   C864    1.408   .     A
C862   C903    1.407   .     A
C863   C883    1.409   .     A
C863   C904    1.408   .     A
C864   C894    1.409   .     A
C864   C347    1.509   1_556 S
C865   C867    1.399   .     S
C865   O940    1.275   .     A
C865   O942    1.276   .     A
C866   O941    1.275   .     A
C866   C868    1.399   .     S
C866   O943    1.276   .     A
C868   C953    1.328   .     S
C868   H1002   1.088   .     S
C869   C882    1.494   .     S
C869   C880    1.403   .     A
C869   C871    1.408   .     A
C870   C881    1.405   .     A
C870   C873    1.409   .     A
C870   C884    1.491   .     S
C871   C874    1.425   .     A
C871   C885    1.488   .     S
C872   O939    1.284   .     A
C872   C875    1.437   .     S
C872   O937    1.281   .     A
C873   C875    1.420   .     A
C873   C886    1.492   .     S
C874   C876    1.412   .     A
C875   C877    1.406   .     A
C876   C887    1.485   .     S
C876   C878    1.380   .     A
C877   C893    1.483   .     S
C877   C879    1.379   .     A
C878   H924    1.086   .     S
C878   C880    1.390   .     A
C879   C881    1.392   .     A
C879   H925    1.086   .     S
C881   C622    1.442   1_565 S
C882   O944    1.221   .     D
C883   H926    1.083   .     S
C883   C900    1.407   .     A
C884   O934    1.221   .     D
C884   H652    1.085   1_565 S
C885   O935    1.220   .     D
C885   H911    1.082   .     S
C886   O936    1.221   .     D
C886   H912    1.082   .     S
C887   C892    1.404   .     A
C887   C888    1.405   .     A
C888   C889    1.399   .     A
C888   H913    1.083   .     S
C889   H914    1.082   .     S
C889   C890    1.398   .     A
C890   C891    1.397   .     A
C890   H915    1.082   .     S
C891   C892    1.398   .     A
C891   H1003   1.081   .     S
C892   H918    1.082   .     S
C893   C899    1.405   .     A
C893   C895    1.404   .     A
C894   C901    1.408   .     A
C894   H927    1.083   .     S
C895   C896    1.399   .     A
C895   H919    1.083   .     S
C896   H920    1.083   .     S
C896   C983    1.398   .     S
C897   H921    1.083   .     S
C898   C899    1.398   .     A
C898   C983    1.398   .     S
C898   H1008   1.082   .     S
C899   H923    1.083   .     S
C900   N931    1.364   .     A
C900   H928    1.081   .     S
C901   N932    1.364   .     A
C901   H929    1.081   .     S
C902   H930    1.080   .     S
C902   C904    1.407   .     A
C902   N931    1.364   .     A
C903   N932    1.364   .     A
C903   H906    1.081   .     S
C904   H907    1.083   .     S
H905   C953    1.088   .     S
H909   C624    1.085   1_565 S
N931   Zn946   2.002   .     S
N932   Zn945   2.002   .     S
O933   Zn945   1.996   .     S
O937   Zn946   1.996   .     S
O938   Zn946   1.982   .     S
O939   Zn945   1.982   .     S
O940   Zn945   1.967   .     S
O941   Zn946   1.967   .     S
O942   Zn946   1.977   .     S
O943   Zn945   1.977   .     S
C947   O1024   1.289   .     A
C947   O1019   1.283   .     A
C947   C960    1.450   .     S
C948   H994    1.083   .     S
C948   C950    1.408   .     A
C948   C989    1.407   .     A
C949   C969    1.409   .     A
C949   C990    1.408   .     A
C950   C980    1.409   .     A
C950   C433    1.509   1_556 S
C951   C953    1.399   .     S
C951   O1026   1.275   .     A
C951   O1028   1.276   .     A
C952   O1027   1.275   .     A
C952   C954    1.399   .     S
C952   O1029   1.276   .     A
C954   C781    1.328   1_655 S
C954   H830    1.088   1_655 S
C955   C968    1.494   .     S
C955   C966    1.403   .     A
C955   C957    1.408   .     A
C956   C967    1.405   .     A
C956   C959    1.409   .     A
C956   C970    1.491   .     S
C957   C960    1.425   .     A
C957   C971    1.488   .     S
C958   O1025   1.284   .     A
C958   C961    1.437   .     S
C958   O1023   1.281   .     A
C959   C961    1.420   .     A
C959   C972    1.492   .     S
C960   C962    1.412   .     A
C961   C963    1.406   .     A
C962   C973    1.485   .     S
C962   C964    1.380   .     A
C963   C979    1.483   .     S
C963   C965    1.379   .     A
C964   H1010   1.086   .     S
C964   C966    1.390   .     A
C965   C967    1.392   .     A
C965   H1011   1.086   .     S
C967   C708    1.442   1_565 S
C968   O1030   1.221   .     D
C969   H1012   1.083   .     S
C969   C986    1.407   .     A
C970   O1020   1.221   .     D
C970   H738    1.085   1_565 S
C971   O1021   1.220   .     D
C971   H997    1.082   .     S
C972   O1022   1.221   .     D
C972   H998    1.082   .     S
C973   C978    1.404   .     A
C973   C974    1.405   .     A
C974   C975    1.399   .     A
C974   H999    1.083   .     S
C975   H1000   1.082   .     S
C975   C976    1.398   .     A
C976   C977    1.397   .     A
C976   H1001   1.082   .     S
C977   C978    1.398   .     A
C977   H831    1.081   1_655 S
C978   H1004   1.082   .     S
C979   C985    1.405   .     A
C979   C981    1.404   .     A
C980   C987    1.408   .     A
C980   H1013   1.083   .     S
C981   C982    1.399   .     A
C981   H1005   1.083   .     S
C982   H1006   1.083   .     S
C982   C811    1.398   1_655 S
C983   H1007   1.083   .     S
C984   C985    1.398   .     A
C984   C811    1.398   1_655 S
C984   H836    1.082   1_655 S
C985   H1009   1.083   .     S
C986   N1017   1.364   .     A
C986   H1014   1.081   .     S
C987   N1018   1.364   .     A
C987   H1015   1.081   .     S
C988   H1016   1.080   .     S
C988   C990    1.407   .     A
C988   N1017   1.364   .     A
C989   N1018   1.364   .     A
C989   H992    1.081   .     S
C990   H993    1.083   .     S
H991   C781    1.088   1_655 S
H995   C710    1.085   1_565 S
N1017  Zn1032  2.002   .     S
N1018  Zn1031  2.002   .     S
O1019  Zn1031  1.996   .     S
O1023  Zn1032  1.996   .     S
O1024  Zn1032  1.982   .     S
O1025  Zn1031  1.982   .     S
O1026  Zn1031  1.967   .     S
O1027  Zn1032  1.967   .     S
O1028  Zn1032  1.977   .     S
O1029  Zn1031  1.977   .     S
