data_str_m3_o1_o16_pcu_sym.24
_audit_creation_date              2020-01-03
_audit_creation_method            'Materials Studio'
_symmetry_space_group_name_H-M    'P1'
_symmetry_Int_Tables_number       1
_symmetry_cell_setting            triclinic
loop_
_symmetry_equiv_pos_as_xyz
  x,y,z
_cell_length_a                    29.6789
_cell_length_b                    32.3047
_cell_length_c                    26.5563
_cell_angle_alpha                 90.6328
_cell_angle_beta                  71.3545
_cell_angle_gamma                 89.1710
loop_
_atom_site_label
_atom_site_type_symbol
_atom_site_fract_x
_atom_site_fract_y
_atom_site_fract_z
_atom_site_U_iso_or_equiv
_atom_site_adp_type
_atom_site_occupancy
C1     C     0.16778   0.24647   0.24491   0.00000  Uiso   1.00
C2     C     0.12541   0.18372   0.40918   0.00000  Uiso   1.00
C3     C     0.21177   0.31230   0.22830   0.00000  Uiso   1.00
C4     C     0.14065   0.17221   0.35142   0.00000  Uiso   1.00
C5     C     0.21005   0.02138   0.23441   0.00000  Uiso   1.00
C6     C     0.16618   0.04235   0.25178   0.00000  Uiso   1.00
C7     C     0.12333   0.02102   0.26104   0.00000  Uiso   1.00
C8     C     0.12568   0.31308   0.24653   0.00000  Uiso   1.00
C9     C     0.16879   0.29086   0.23807   0.00000  Uiso   1.00
C10    C     0.31649   0.13473   0.22699   0.00000  Uiso   1.00
C11    C     0.03119   0.13504   0.22628   0.00000  Uiso   1.00
C12    C     0.14660   0.18255   0.49070   0.00000  Uiso   1.00
C13    C     0.01700   0.19870   0.27212   0.00000  Uiso   1.00
C14    C     0.30328   0.19931   0.27028   0.00000  Uiso   1.00
C15    C     0.16619   0.08670   0.25218   0.00000  Uiso   1.00
C16    C     0.19267   0.16656   0.14854   0.00000  Uiso   1.00
C17    C     0.26274   0.15088   0.00415   0.00000  Uiso   1.00
C18    C     0.20744   0.16773   0.09104   0.00000  Uiso   1.00
C19    C     0.07763   0.19326   0.43966   0.00000  Uiso   1.00
C20    C     0.06447   0.19441   0.49556   0.00000  Uiso   1.00
C21    C     0.09794   0.18448   0.02030   0.00000  Uiso   1.00
C22    C     0.07679   0.04034   0.28610   0.00000  Uiso   1.00
C23    C     0.16011   0.18548   0.43530   0.00000  Uiso   1.00
C24    C     0.08656   0.29689   0.23124   0.00000  Uiso   1.00
C25    C     0.14357   0.21878   0.09489   0.00000  Uiso   1.00
C26    C     0.04373   0.20764   0.41501   0.00000  Uiso   1.00
C27    C     0.01806   0.20905   0.02859   0.00000  Uiso   1.00
C28    C     0.21817   0.23127   0.37884   0.00000  Uiso   1.00
C29    C     0.25815   0.29246   0.20724   0.00000  Uiso   1.00
C30    C     0.18298   0.17749   0.01400   0.00000  Uiso   1.00
C31    C     0.22960   0.16651   0.48123   0.00000  Uiso   1.00
C32    C     0.24269   0.17648   0.42753   0.00000  Uiso   1.00
C33    C     0.20814   0.19335   0.40826   0.00000  Uiso   1.00
C34    C     0.17592   0.18547   0.06755   0.00000  Uiso   1.00
C35    C     0.25020   0.14901   0.05941   0.00000  Uiso   1.00
F36    F     0.30151   0.10304   0.20292   0.00000  Uiso   1.00
F37    F     0.06123   0.10392   0.20092   0.00000  Uiso   1.00
F38    F     0.03196   0.23069   0.29529   0.00000  Uiso   1.00
F39    F     0.30640   0.13709   0.47343   0.00000  Uiso   1.00
H40    H     0.27468   0.13510   0.07736   0.00000  Uiso   1.00
H41    H     0.24312   0.03802   0.22496   0.00000  Uiso   1.00
H42    H     0.28157   0.22649   0.28355   0.00000  Uiso   1.00
H43    H     0.27957   0.17604   0.40306   0.00000  Uiso   1.00
H44    H     0.08563   0.18038   0.06286   0.00000  Uiso   1.00
N45    N     0.04760   0.16668   0.25002   0.00000  Uiso   1.00
N46    N     0.28573   0.16665   0.25001   0.00000  Uiso   1.00
N47    N     0.03970   0.05550   0.30625   0.00000  Uiso   1.00
N48    N     0.05540   0.28525   0.21793   0.00000  Uiso   1.00
N49    N     0.11795   0.24544   0.11636   0.00000  Uiso   1.00
N50    N     0.01603   0.22024   0.39660   0.00000  Uiso   1.00
N51    N     0.31468   0.22154   0.05523   0.00000  Uiso   1.00
N52    N     0.22474   0.26259   0.35717   0.00000  Uiso   1.00
N53    N     0.29526   0.27667   0.19000   0.00000  Uiso   1.00
O54    O     0.12846   0.22775   0.25001   0.00000  Uiso   1.00
O55    O     0.20490   0.22774   0.25001   0.00000  Uiso   1.00
O56    O     0.10947   0.16666   0.32681   0.00000  Uiso   1.00
O57    O     0.18591   0.16665   0.32681   0.00000  Uiso   1.00
O58    O     0.12843   0.10559   0.25000   0.00000  Uiso   1.00
O59    O     0.20488   0.10558   0.25000   0.00000  Uiso   1.00
O60    O     0.14742   0.16668   0.17319   0.00000  Uiso   1.00
O61    O     0.22387   0.16667   0.17319   0.00000  Uiso   1.00
Zn62   Zn    0.11562   0.16667   0.25000   0.00000  Uiso   1.00
Zn63   Zn    0.21771   0.16666   0.25000   0.00000  Uiso   1.00
C64    C     0.50112   0.24647   0.24491   0.00000  Uiso   1.00
C65    C     0.45875   0.18372   0.40918   0.00000  Uiso   1.00
C66    C     0.54510   0.31230   0.22830   0.00000  Uiso   1.00
C67    C     0.47398   0.17221   0.35142   0.00000  Uiso   1.00
C68    C     0.54338   0.02138   0.23441   0.00000  Uiso   1.00
C69    C     0.49952   0.04235   0.25178   0.00000  Uiso   1.00
C70    C     0.45667   0.02102   0.26104   0.00000  Uiso   1.00
C71    C     0.45901   0.31308   0.24653   0.00000  Uiso   1.00
C72    C     0.50212   0.29086   0.23807   0.00000  Uiso   1.00
C73    C     0.64982   0.13473   0.22699   0.00000  Uiso   1.00
C74    C     0.36452   0.13504   0.22628   0.00000  Uiso   1.00
C75    C     0.47994   0.18255   0.49070   0.00000  Uiso   1.00
C76    C     0.35034   0.19870   0.27212   0.00000  Uiso   1.00
C77    C     0.63661   0.19931   0.27028   0.00000  Uiso   1.00
C78    C     0.49953   0.08670   0.25218   0.00000  Uiso   1.00
C79    C     0.52600   0.16656   0.14854   0.00000  Uiso   1.00
C80    C     0.59607   0.15088   0.00415   0.00000  Uiso   1.00
C81    C     0.54077   0.16773   0.09104   0.00000  Uiso   1.00
C82    C     0.41097   0.19326   0.43966   0.00000  Uiso   1.00
C83    C     0.39780   0.19441   0.49556   0.00000  Uiso   1.00
C84    C     0.43127   0.18448   0.02030   0.00000  Uiso   1.00
C85    C     0.41013   0.04034   0.28610   0.00000  Uiso   1.00
C86    C     0.49344   0.18548   0.43530   0.00000  Uiso   1.00
C87    C     0.41989   0.29689   0.23124   0.00000  Uiso   1.00
C88    C     0.47690   0.21878   0.09489   0.00000  Uiso   1.00
C89    C     0.37706   0.20764   0.41501   0.00000  Uiso   1.00
C90    C     0.35140   0.20905   0.02859   0.00000  Uiso   1.00
C91    C     0.55151   0.23127   0.37884   0.00000  Uiso   1.00
C92    C     0.59148   0.29246   0.20724   0.00000  Uiso   1.00
C93    C     0.51631   0.17749   0.01400   0.00000  Uiso   1.00
C94    C     0.56293   0.16651   0.48123   0.00000  Uiso   1.00
C95    C     0.57603   0.17648   0.42753   0.00000  Uiso   1.00
C96    C     0.54147   0.19335   0.40826   0.00000  Uiso   1.00
C97    C     0.50925   0.18547   0.06755   0.00000  Uiso   1.00
C98    C     0.58353   0.14901   0.05941   0.00000  Uiso   1.00
F99    F     0.63485   0.10304   0.20292   0.00000  Uiso   1.00
F100   F     0.39456   0.10392   0.20092   0.00000  Uiso   1.00
F101   F     0.36529   0.23069   0.29529   0.00000  Uiso   1.00
F102   F     0.63973   0.13709   0.47343   0.00000  Uiso   1.00
H103   H     0.60801   0.13510   0.07736   0.00000  Uiso   1.00
H104   H     0.57645   0.03802   0.22496   0.00000  Uiso   1.00
H105   H     0.61490   0.22649   0.28355   0.00000  Uiso   1.00
H106   H     0.61290   0.17604   0.40306   0.00000  Uiso   1.00
H107   H     0.41897   0.18038   0.06286   0.00000  Uiso   1.00
N108   N     0.38093   0.16668   0.25002   0.00000  Uiso   1.00
N109   N     0.61906   0.16665   0.25001   0.00000  Uiso   1.00
N110   N     0.37303   0.05550   0.30625   0.00000  Uiso   1.00
N111   N     0.38873   0.28525   0.21793   0.00000  Uiso   1.00
N112   N     0.45129   0.24544   0.11636   0.00000  Uiso   1.00
N113   N     0.34937   0.22024   0.39660   0.00000  Uiso   1.00
N114   N     0.64802   0.22154   0.05523   0.00000  Uiso   1.00
N115   N     0.55807   0.26259   0.35717   0.00000  Uiso   1.00
N116   N     0.62860   0.27667   0.19000   0.00000  Uiso   1.00
O117   O     0.46179   0.22775   0.25001   0.00000  Uiso   1.00
O118   O     0.53823   0.22774   0.25001   0.00000  Uiso   1.00
O119   O     0.44280   0.16666   0.32681   0.00000  Uiso   1.00
O120   O     0.51924   0.16665   0.32681   0.00000  Uiso   1.00
O121   O     0.46177   0.10559   0.25000   0.00000  Uiso   1.00
O122   O     0.53821   0.10558   0.25000   0.00000  Uiso   1.00
O123   O     0.48076   0.16668   0.17319   0.00000  Uiso   1.00
O124   O     0.55720   0.16667   0.17319   0.00000  Uiso   1.00
Zn125  Zn    0.44896   0.16667   0.25000   0.00000  Uiso   1.00
Zn126  Zn    0.55104   0.16666   0.25000   0.00000  Uiso   1.00
C127   C     0.83445   0.24647   0.24491   0.00000  Uiso   1.00
C128   C     0.79208   0.18372   0.40918   0.00000  Uiso   1.00
C129   C     0.87844   0.31230   0.22830   0.00000  Uiso   1.00
C130   C     0.80732   0.17221   0.35142   0.00000  Uiso   1.00
C131   C     0.87671   0.02138   0.23441   0.00000  Uiso   1.00
C132   C     0.83285   0.04235   0.25178   0.00000  Uiso   1.00
C133   C     0.79000   0.02102   0.26104   0.00000  Uiso   1.00
C134   C     0.79235   0.31308   0.24653   0.00000  Uiso   1.00
C135   C     0.83545   0.29086   0.23807   0.00000  Uiso   1.00
C136   C     0.98315   0.13473   0.22699   0.00000  Uiso   1.00
C137   C     0.69786   0.13504   0.22628   0.00000  Uiso   1.00
C138   C     0.81327   0.18255   0.49070   0.00000  Uiso   1.00
C139   C     0.68367   0.19870   0.27212   0.00000  Uiso   1.00
C140   C     0.96994   0.19931   0.27028   0.00000  Uiso   1.00
C141   C     0.83286   0.08670   0.25218   0.00000  Uiso   1.00
C142   C     0.85934   0.16656   0.14854   0.00000  Uiso   1.00
C143   C     0.92940   0.15088   0.00415   0.00000  Uiso   1.00
C144   C     0.87410   0.16773   0.09104   0.00000  Uiso   1.00
C145   C     0.74430   0.19326   0.43966   0.00000  Uiso   1.00
C146   C     0.73113   0.19441   0.49556   0.00000  Uiso   1.00
C147   C     0.76460   0.18448   0.02030   0.00000  Uiso   1.00
C148   C     0.74346   0.04034   0.28610   0.00000  Uiso   1.00
C149   C     0.82678   0.18548   0.43530   0.00000  Uiso   1.00
C150   C     0.75323   0.29689   0.23124   0.00000  Uiso   1.00
C151   C     0.81024   0.21878   0.09489   0.00000  Uiso   1.00
C152   C     0.71040   0.20764   0.41501   0.00000  Uiso   1.00
C153   C     0.68473   0.20905   0.02859   0.00000  Uiso   1.00
C154   C     0.88484   0.23127   0.37884   0.00000  Uiso   1.00
C155   C     0.92482   0.29246   0.20724   0.00000  Uiso   1.00
C156   C     0.84965   0.17749   0.01400   0.00000  Uiso   1.00
C157   C     0.89627   0.16651   0.48123   0.00000  Uiso   1.00
C158   C     0.90936   0.17648   0.42753   0.00000  Uiso   1.00
C159   C     0.87481   0.19335   0.40826   0.00000  Uiso   1.00
C160   C     0.84258   0.18547   0.06755   0.00000  Uiso   1.00
C161   C     0.91687   0.14901   0.05941   0.00000  Uiso   1.00
F162   F     0.96818   0.10304   0.20292   0.00000  Uiso   1.00
F163   F     0.72790   0.10392   0.20092   0.00000  Uiso   1.00
F164   F     0.69862   0.23069   0.29529   0.00000  Uiso   1.00
F165   F     0.97307   0.13709   0.47343   0.00000  Uiso   1.00
H166   H     0.94135   0.13510   0.07736   0.00000  Uiso   1.00
H167   H     0.90978   0.03802   0.22496   0.00000  Uiso   1.00
H168   H     0.94824   0.22649   0.28355   0.00000  Uiso   1.00
H169   H     0.94623   0.17604   0.40306   0.00000  Uiso   1.00
H170   H     0.75230   0.18038   0.06286   0.00000  Uiso   1.00
N171   N     0.71426   0.16668   0.25002   0.00000  Uiso   1.00
N172   N     0.95239   0.16665   0.25001   0.00000  Uiso   1.00
N173   N     0.70636   0.05550   0.30625   0.00000  Uiso   1.00
N174   N     0.72206   0.28525   0.21793   0.00000  Uiso   1.00
N175   N     0.78462   0.24544   0.11636   0.00000  Uiso   1.00
N176   N     0.68270   0.22024   0.39660   0.00000  Uiso   1.00
N177   N     0.98135   0.22154   0.05523   0.00000  Uiso   1.00
N178   N     0.89141   0.26259   0.35717   0.00000  Uiso   1.00
N179   N     0.96193   0.27667   0.19000   0.00000  Uiso   1.00
O180   O     0.79512   0.22775   0.25001   0.00000  Uiso   1.00
O181   O     0.87157   0.22774   0.25001   0.00000  Uiso   1.00
O182   O     0.77613   0.16666   0.32681   0.00000  Uiso   1.00
O183   O     0.85258   0.16665   0.32681   0.00000  Uiso   1.00
O184   O     0.79510   0.10559   0.25000   0.00000  Uiso   1.00
O185   O     0.87154   0.10558   0.25000   0.00000  Uiso   1.00
O186   O     0.81409   0.16668   0.17319   0.00000  Uiso   1.00
O187   O     0.89053   0.16667   0.17319   0.00000  Uiso   1.00
Zn188  Zn    0.78229   0.16667   0.25000   0.00000  Uiso   1.00
Zn189  Zn    0.88438   0.16666   0.25000   0.00000  Uiso   1.00
C190   C     0.16778   0.57980   0.24491   0.00000  Uiso   1.00
C191   C     0.12541   0.51705   0.40918   0.00000  Uiso   1.00
C192   C     0.21177   0.64563   0.22830   0.00000  Uiso   1.00
C193   C     0.14065   0.50555   0.35142   0.00000  Uiso   1.00
C194   C     0.21005   0.35471   0.23441   0.00000  Uiso   1.00
C195   C     0.16618   0.37568   0.25178   0.00000  Uiso   1.00
C196   C     0.12333   0.35435   0.26104   0.00000  Uiso   1.00
C197   C     0.12568   0.64641   0.24653   0.00000  Uiso   1.00
C198   C     0.16879   0.62420   0.23807   0.00000  Uiso   1.00
C199   C     0.31649   0.46806   0.22699   0.00000  Uiso   1.00
C200   C     0.03119   0.46838   0.22628   0.00000  Uiso   1.00
C201   C     0.14660   0.51588   0.49070   0.00000  Uiso   1.00
C202   C     0.01700   0.53204   0.27212   0.00000  Uiso   1.00
C203   C     0.30328   0.53264   0.27028   0.00000  Uiso   1.00
C204   C     0.16619   0.42004   0.25218   0.00000  Uiso   1.00
C205   C     0.19267   0.49989   0.14854   0.00000  Uiso   1.00
C206   C     0.26274   0.48421   0.00415   0.00000  Uiso   1.00
C207   C     0.20744   0.50107   0.09104   0.00000  Uiso   1.00
C208   C     0.07763   0.52659   0.43966   0.00000  Uiso   1.00
C209   C     0.06447   0.52774   0.49556   0.00000  Uiso   1.00
C210   C     0.09794   0.51781   0.02030   0.00000  Uiso   1.00
C211   C     0.07679   0.37368   0.28610   0.00000  Uiso   1.00
C212   C     0.16011   0.51881   0.43530   0.00000  Uiso   1.00
C213   C     0.08656   0.63023   0.23124   0.00000  Uiso   1.00
C214   C     0.14357   0.55211   0.09489   0.00000  Uiso   1.00
C215   C     0.04373   0.54097   0.41501   0.00000  Uiso   1.00
C216   C     0.01806   0.54238   0.02859   0.00000  Uiso   1.00
C217   C     0.21817   0.56460   0.37884   0.00000  Uiso   1.00
C218   C     0.25815   0.62579   0.20724   0.00000  Uiso   1.00
C219   C     0.18298   0.51082   0.01400   0.00000  Uiso   1.00
C220   C     0.22960   0.49984   0.48123   0.00000  Uiso   1.00
C221   C     0.24269   0.50981   0.42753   0.00000  Uiso   1.00
C222   C     0.20814   0.52668   0.40826   0.00000  Uiso   1.00
C223   C     0.17592   0.51881   0.06755   0.00000  Uiso   1.00
C224   C     0.25020   0.48234   0.05941   0.00000  Uiso   1.00
F225   F     0.30151   0.43638   0.20292   0.00000  Uiso   1.00
F226   F     0.06123   0.43725   0.20092   0.00000  Uiso   1.00
F227   F     0.03196   0.56402   0.29529   0.00000  Uiso   1.00
F228   F     0.30640   0.47042   0.47343   0.00000  Uiso   1.00
H229   H     0.27468   0.46843   0.07736   0.00000  Uiso   1.00
H230   H     0.24312   0.37136   0.22496   0.00000  Uiso   1.00
H231   H     0.28157   0.55982   0.28355   0.00000  Uiso   1.00
H232   H     0.27957   0.50937   0.40306   0.00000  Uiso   1.00
H233   H     0.08563   0.51371   0.06286   0.00000  Uiso   1.00
N234   N     0.04760   0.50001   0.25002   0.00000  Uiso   1.00
N235   N     0.28573   0.49998   0.25001   0.00000  Uiso   1.00
N236   N     0.03970   0.38883   0.30625   0.00000  Uiso   1.00
N237   N     0.05540   0.61858   0.21793   0.00000  Uiso   1.00
N238   N     0.11795   0.57877   0.11636   0.00000  Uiso   1.00
N239   N     0.01603   0.55357   0.39660   0.00000  Uiso   1.00
N240   N     0.31468   0.55487   0.05523   0.00000  Uiso   1.00
N241   N     0.22474   0.59593   0.35717   0.00000  Uiso   1.00
N242   N     0.29526   0.61000   0.19000   0.00000  Uiso   1.00
O243   O     0.12846   0.56108   0.25001   0.00000  Uiso   1.00
O244   O     0.20490   0.56107   0.25001   0.00000  Uiso   1.00
O245   O     0.10947   0.50000   0.32681   0.00000  Uiso   1.00
O246   O     0.18591   0.49999   0.32681   0.00000  Uiso   1.00
O247   O     0.12843   0.43893   0.25000   0.00000  Uiso   1.00
O248   O     0.20488   0.43892   0.25000   0.00000  Uiso   1.00
O249   O     0.14742   0.50001   0.17319   0.00000  Uiso   1.00
O250   O     0.22387   0.50000   0.17319   0.00000  Uiso   1.00
Zn251  Zn    0.11562   0.50001   0.25000   0.00000  Uiso   1.00
Zn252  Zn    0.21771   0.49999   0.25000   0.00000  Uiso   1.00
C253   C     0.50112   0.57980   0.24491   0.00000  Uiso   1.00
C254   C     0.45875   0.51705   0.40918   0.00000  Uiso   1.00
C255   C     0.54510   0.64563   0.22830   0.00000  Uiso   1.00
C256   C     0.47398   0.50555   0.35142   0.00000  Uiso   1.00
C257   C     0.54338   0.35471   0.23441   0.00000  Uiso   1.00
C258   C     0.49952   0.37568   0.25178   0.00000  Uiso   1.00
C259   C     0.45667   0.35435   0.26104   0.00000  Uiso   1.00
C260   C     0.45901   0.64641   0.24653   0.00000  Uiso   1.00
C261   C     0.50212   0.62420   0.23807   0.00000  Uiso   1.00
C262   C     0.64982   0.46806   0.22699   0.00000  Uiso   1.00
C263   C     0.36452   0.46838   0.22628   0.00000  Uiso   1.00
C264   C     0.47994   0.51588   0.49070   0.00000  Uiso   1.00
C265   C     0.35034   0.53204   0.27212   0.00000  Uiso   1.00
C266   C     0.63661   0.53264   0.27028   0.00000  Uiso   1.00
C267   C     0.49953   0.42004   0.25218   0.00000  Uiso   1.00
C268   C     0.52600   0.49989   0.14854   0.00000  Uiso   1.00
C269   C     0.59607   0.48421   0.00415   0.00000  Uiso   1.00
C270   C     0.54077   0.50107   0.09104   0.00000  Uiso   1.00
C271   C     0.41097   0.52659   0.43966   0.00000  Uiso   1.00
C272   C     0.39780   0.52774   0.49556   0.00000  Uiso   1.00
C273   C     0.43127   0.51781   0.02030   0.00000  Uiso   1.00
C274   C     0.41013   0.37368   0.28610   0.00000  Uiso   1.00
C275   C     0.49344   0.51881   0.43530   0.00000  Uiso   1.00
C276   C     0.41989   0.63023   0.23124   0.00000  Uiso   1.00
C277   C     0.47690   0.55211   0.09489   0.00000  Uiso   1.00
C278   C     0.37706   0.54097   0.41501   0.00000  Uiso   1.00
C279   C     0.35140   0.54238   0.02859   0.00000  Uiso   1.00
C280   C     0.55151   0.56460   0.37884   0.00000  Uiso   1.00
C281   C     0.59148   0.62579   0.20724   0.00000  Uiso   1.00
C282   C     0.51631   0.51082   0.01400   0.00000  Uiso   1.00
C283   C     0.56293   0.49984   0.48123   0.00000  Uiso   1.00
C284   C     0.57603   0.50981   0.42753   0.00000  Uiso   1.00
C285   C     0.54147   0.52668   0.40826   0.00000  Uiso   1.00
C286   C     0.50925   0.51881   0.06755   0.00000  Uiso   1.00
C287   C     0.58353   0.48234   0.05941   0.00000  Uiso   1.00
F288   F     0.63485   0.43638   0.20292   0.00000  Uiso   1.00
F289   F     0.39456   0.43725   0.20092   0.00000  Uiso   1.00
F290   F     0.36529   0.56402   0.29529   0.00000  Uiso   1.00
F291   F     0.63973   0.47042   0.47343   0.00000  Uiso   1.00
H292   H     0.60801   0.46843   0.07736   0.00000  Uiso   1.00
H293   H     0.57645   0.37136   0.22496   0.00000  Uiso   1.00
H294   H     0.61490   0.55982   0.28355   0.00000  Uiso   1.00
H295   H     0.61290   0.50937   0.40306   0.00000  Uiso   1.00
H296   H     0.41897   0.51371   0.06286   0.00000  Uiso   1.00
N297   N     0.38093   0.50001   0.25002   0.00000  Uiso   1.00
N298   N     0.61906   0.49998   0.25001   0.00000  Uiso   1.00
N299   N     0.37303   0.38883   0.30625   0.00000  Uiso   1.00
N300   N     0.38873   0.61858   0.21793   0.00000  Uiso   1.00
N301   N     0.45129   0.57877   0.11636   0.00000  Uiso   1.00
N302   N     0.34937   0.55357   0.39660   0.00000  Uiso   1.00
N303   N     0.64802   0.55487   0.05523   0.00000  Uiso   1.00
N304   N     0.55807   0.59593   0.35717   0.00000  Uiso   1.00
N305   N     0.62860   0.61000   0.19000   0.00000  Uiso   1.00
O306   O     0.46179   0.56108   0.25001   0.00000  Uiso   1.00
O307   O     0.53823   0.56107   0.25001   0.00000  Uiso   1.00
O308   O     0.44280   0.50000   0.32681   0.00000  Uiso   1.00
O309   O     0.51924   0.49999   0.32681   0.00000  Uiso   1.00
O310   O     0.46177   0.43893   0.25000   0.00000  Uiso   1.00
O311   O     0.53821   0.43892   0.25000   0.00000  Uiso   1.00
O312   O     0.48076   0.50001   0.17319   0.00000  Uiso   1.00
O313   O     0.55720   0.50000   0.17319   0.00000  Uiso   1.00
Zn314  Zn    0.44896   0.50001   0.25000   0.00000  Uiso   1.00
Zn315  Zn    0.55104   0.49999   0.25000   0.00000  Uiso   1.00
C316   C     0.83445   0.57980   0.24491   0.00000  Uiso   1.00
C317   C     0.79208   0.51705   0.40918   0.00000  Uiso   1.00
C318   C     0.87844   0.64563   0.22830   0.00000  Uiso   1.00
C319   C     0.80732   0.50555   0.35142   0.00000  Uiso   1.00
C320   C     0.87671   0.35471   0.23441   0.00000  Uiso   1.00
C321   C     0.83285   0.37568   0.25178   0.00000  Uiso   1.00
C322   C     0.79000   0.35435   0.26104   0.00000  Uiso   1.00
C323   C     0.79235   0.64641   0.24653   0.00000  Uiso   1.00
C324   C     0.83545   0.62420   0.23807   0.00000  Uiso   1.00
C325   C     0.98315   0.46806   0.22699   0.00000  Uiso   1.00
C326   C     0.69786   0.46838   0.22628   0.00000  Uiso   1.00
C327   C     0.81327   0.51588   0.49070   0.00000  Uiso   1.00
C328   C     0.68367   0.53204   0.27212   0.00000  Uiso   1.00
C329   C     0.96994   0.53264   0.27028   0.00000  Uiso   1.00
C330   C     0.83286   0.42004   0.25218   0.00000  Uiso   1.00
C331   C     0.85934   0.49989   0.14854   0.00000  Uiso   1.00
C332   C     0.92940   0.48421   0.00415   0.00000  Uiso   1.00
C333   C     0.87410   0.50107   0.09104   0.00000  Uiso   1.00
C334   C     0.74430   0.52659   0.43966   0.00000  Uiso   1.00
C335   C     0.73113   0.52774   0.49556   0.00000  Uiso   1.00
C336   C     0.76460   0.51781   0.02030   0.00000  Uiso   1.00
C337   C     0.74346   0.37368   0.28610   0.00000  Uiso   1.00
C338   C     0.82678   0.51881   0.43530   0.00000  Uiso   1.00
C339   C     0.75323   0.63023   0.23124   0.00000  Uiso   1.00
C340   C     0.81024   0.55211   0.09489   0.00000  Uiso   1.00
C341   C     0.71040   0.54097   0.41501   0.00000  Uiso   1.00
C342   C     0.68473   0.54238   0.02859   0.00000  Uiso   1.00
C343   C     0.88484   0.56460   0.37884   0.00000  Uiso   1.00
C344   C     0.92482   0.62579   0.20724   0.00000  Uiso   1.00
C345   C     0.84965   0.51082   0.01400   0.00000  Uiso   1.00
C346   C     0.89627   0.49984   0.48123   0.00000  Uiso   1.00
C347   C     0.90936   0.50981   0.42753   0.00000  Uiso   1.00
C348   C     0.87481   0.52668   0.40826   0.00000  Uiso   1.00
C349   C     0.84258   0.51881   0.06755   0.00000  Uiso   1.00
C350   C     0.91687   0.48234   0.05941   0.00000  Uiso   1.00
F351   F     0.96818   0.43638   0.20292   0.00000  Uiso   1.00
F352   F     0.72790   0.43725   0.20092   0.00000  Uiso   1.00
F353   F     0.69862   0.56402   0.29529   0.00000  Uiso   1.00
F354   F     0.97307   0.47042   0.47343   0.00000  Uiso   1.00
H355   H     0.94135   0.46843   0.07736   0.00000  Uiso   1.00
H356   H     0.90978   0.37136   0.22496   0.00000  Uiso   1.00
H357   H     0.94824   0.55982   0.28355   0.00000  Uiso   1.00
H358   H     0.94623   0.50937   0.40306   0.00000  Uiso   1.00
H359   H     0.75230   0.51371   0.06286   0.00000  Uiso   1.00
N360   N     0.71426   0.50001   0.25002   0.00000  Uiso   1.00
N361   N     0.95239   0.49998   0.25001   0.00000  Uiso   1.00
N362   N     0.70636   0.38883   0.30625   0.00000  Uiso   1.00
N363   N     0.72206   0.61858   0.21793   0.00000  Uiso   1.00
N364   N     0.78462   0.57877   0.11636   0.00000  Uiso   1.00
N365   N     0.68270   0.55357   0.39660   0.00000  Uiso   1.00
N366   N     0.98135   0.55487   0.05523   0.00000  Uiso   1.00
N367   N     0.89141   0.59593   0.35717   0.00000  Uiso   1.00
N368   N     0.96193   0.61000   0.19000   0.00000  Uiso   1.00
O369   O     0.79512   0.56108   0.25001   0.00000  Uiso   1.00
O370   O     0.87157   0.56107   0.25001   0.00000  Uiso   1.00
O371   O     0.77613   0.50000   0.32681   0.00000  Uiso   1.00
O372   O     0.85258   0.49999   0.32681   0.00000  Uiso   1.00
O373   O     0.79510   0.43893   0.25000   0.00000  Uiso   1.00
O374   O     0.87154   0.43892   0.25000   0.00000  Uiso   1.00
O375   O     0.81409   0.50001   0.17319   0.00000  Uiso   1.00
O376   O     0.89053   0.50000   0.17319   0.00000  Uiso   1.00
Zn377  Zn    0.78229   0.50001   0.25000   0.00000  Uiso   1.00
Zn378  Zn    0.88438   0.49999   0.25000   0.00000  Uiso   1.00
C379   C     0.16778   0.91314   0.24491   0.00000  Uiso   1.00
C380   C     0.12541   0.85038   0.40918   0.00000  Uiso   1.00
C381   C     0.21177   0.97897   0.22830   0.00000  Uiso   1.00
C382   C     0.14065   0.83888   0.35142   0.00000  Uiso   1.00
C383   C     0.21005   0.68805   0.23441   0.00000  Uiso   1.00
C384   C     0.16618   0.70902   0.25178   0.00000  Uiso   1.00
C385   C     0.12333   0.68769   0.26104   0.00000  Uiso   1.00
C386   C     0.12568   0.97974   0.24653   0.00000  Uiso   1.00
C387   C     0.16879   0.95753   0.23807   0.00000  Uiso   1.00
C388   C     0.31649   0.80139   0.22699   0.00000  Uiso   1.00
C389   C     0.03119   0.80171   0.22628   0.00000  Uiso   1.00
C390   C     0.14660   0.84922   0.49070   0.00000  Uiso   1.00
C391   C     0.01700   0.86537   0.27212   0.00000  Uiso   1.00
C392   C     0.30328   0.86597   0.27028   0.00000  Uiso   1.00
C393   C     0.16619   0.75337   0.25218   0.00000  Uiso   1.00
C394   C     0.19267   0.83322   0.14854   0.00000  Uiso   1.00
C395   C     0.26274   0.81754   0.00415   0.00000  Uiso   1.00
C396   C     0.20744   0.83440   0.09104   0.00000  Uiso   1.00
C397   C     0.07763   0.85992   0.43966   0.00000  Uiso   1.00
C398   C     0.06447   0.86107   0.49556   0.00000  Uiso   1.00
C399   C     0.09794   0.85114   0.02030   0.00000  Uiso   1.00
C400   C     0.07679   0.70701   0.28610   0.00000  Uiso   1.00
C401   C     0.16011   0.85214   0.43530   0.00000  Uiso   1.00
C402   C     0.08656   0.96356   0.23124   0.00000  Uiso   1.00
C403   C     0.14357   0.88544   0.09489   0.00000  Uiso   1.00
C404   C     0.04373   0.87431   0.41501   0.00000  Uiso   1.00
C405   C     0.01806   0.87571   0.02859   0.00000  Uiso   1.00
C406   C     0.21817   0.89794   0.37884   0.00000  Uiso   1.00
C407   C     0.25815   0.95912   0.20724   0.00000  Uiso   1.00
C408   C     0.18298   0.84415   0.01400   0.00000  Uiso   1.00
C409   C     0.22960   0.83318   0.48123   0.00000  Uiso   1.00
C410   C     0.24269   0.84314   0.42753   0.00000  Uiso   1.00
C411   C     0.20814   0.86002   0.40826   0.00000  Uiso   1.00
C412   C     0.17592   0.85214   0.06755   0.00000  Uiso   1.00
C413   C     0.25020   0.81567   0.05941   0.00000  Uiso   1.00
F414   F     0.30151   0.76971   0.20292   0.00000  Uiso   1.00
F415   F     0.06123   0.77058   0.20092   0.00000  Uiso   1.00
F416   F     0.03196   0.89736   0.29529   0.00000  Uiso   1.00
F417   F     0.30640   0.80376   0.47343   0.00000  Uiso   1.00
H418   H     0.27468   0.80177   0.07736   0.00000  Uiso   1.00
H419   H     0.24312   0.70469   0.22496   0.00000  Uiso   1.00
H420   H     0.28157   0.89315   0.28355   0.00000  Uiso   1.00
H421   H     0.27957   0.84271   0.40306   0.00000  Uiso   1.00
H422   H     0.08563   0.84704   0.06286   0.00000  Uiso   1.00
N423   N     0.04760   0.83334   0.25002   0.00000  Uiso   1.00
N424   N     0.28573   0.83331   0.25001   0.00000  Uiso   1.00
N425   N     0.03970   0.72217   0.30625   0.00000  Uiso   1.00
N426   N     0.05540   0.95192   0.21793   0.00000  Uiso   1.00
N427   N     0.11795   0.91210   0.11636   0.00000  Uiso   1.00
N428   N     0.01603   0.88690   0.39660   0.00000  Uiso   1.00
N429   N     0.31468   0.88820   0.05523   0.00000  Uiso   1.00
N430   N     0.22474   0.92926   0.35717   0.00000  Uiso   1.00
N431   N     0.29526   0.94334   0.19000   0.00000  Uiso   1.00
O432   O     0.12846   0.89442   0.25001   0.00000  Uiso   1.00
O433   O     0.20490   0.89441   0.25001   0.00000  Uiso   1.00
O434   O     0.10947   0.83333   0.32681   0.00000  Uiso   1.00
O435   O     0.18591   0.83332   0.32681   0.00000  Uiso   1.00
O436   O     0.12843   0.77226   0.25000   0.00000  Uiso   1.00
O437   O     0.20488   0.77225   0.25000   0.00000  Uiso   1.00
O438   O     0.14742   0.83335   0.17319   0.00000  Uiso   1.00
O439   O     0.22387   0.83334   0.17319   0.00000  Uiso   1.00
Zn440  Zn    0.11562   0.83334   0.25000   0.00000  Uiso   1.00
Zn441  Zn    0.21771   0.83333   0.25000   0.00000  Uiso   1.00
C442   C     0.50112   0.91314   0.24491   0.00000  Uiso   1.00
C443   C     0.45875   0.85038   0.40918   0.00000  Uiso   1.00
C444   C     0.54510   0.97897   0.22830   0.00000  Uiso   1.00
C445   C     0.47398   0.83888   0.35142   0.00000  Uiso   1.00
C446   C     0.54338   0.68805   0.23441   0.00000  Uiso   1.00
C447   C     0.49952   0.70902   0.25178   0.00000  Uiso   1.00
C448   C     0.45667   0.68769   0.26104   0.00000  Uiso   1.00
C449   C     0.45901   0.97974   0.24653   0.00000  Uiso   1.00
C450   C     0.50212   0.95753   0.23807   0.00000  Uiso   1.00
C451   C     0.64982   0.80139   0.22699   0.00000  Uiso   1.00
C452   C     0.36452   0.80171   0.22628   0.00000  Uiso   1.00
C453   C     0.47994   0.84922   0.49070   0.00000  Uiso   1.00
C454   C     0.35034   0.86537   0.27212   0.00000  Uiso   1.00
C455   C     0.63661   0.86597   0.27028   0.00000  Uiso   1.00
C456   C     0.49953   0.75337   0.25218   0.00000  Uiso   1.00
C457   C     0.52600   0.83322   0.14854   0.00000  Uiso   1.00
C458   C     0.59607   0.81754   0.00415   0.00000  Uiso   1.00
C459   C     0.54077   0.83440   0.09104   0.00000  Uiso   1.00
C460   C     0.41097   0.85992   0.43966   0.00000  Uiso   1.00
C461   C     0.39780   0.86107   0.49556   0.00000  Uiso   1.00
C462   C     0.43127   0.85114   0.02030   0.00000  Uiso   1.00
C463   C     0.41013   0.70701   0.28610   0.00000  Uiso   1.00
C464   C     0.49344   0.85214   0.43530   0.00000  Uiso   1.00
C465   C     0.41989   0.96356   0.23124   0.00000  Uiso   1.00
C466   C     0.47690   0.88544   0.09489   0.00000  Uiso   1.00
C467   C     0.37706   0.87431   0.41501   0.00000  Uiso   1.00
C468   C     0.35140   0.87571   0.02859   0.00000  Uiso   1.00
C469   C     0.55151   0.89794   0.37884   0.00000  Uiso   1.00
C470   C     0.59148   0.95912   0.20724   0.00000  Uiso   1.00
C471   C     0.51631   0.84415   0.01400   0.00000  Uiso   1.00
C472   C     0.56293   0.83318   0.48123   0.00000  Uiso   1.00
C473   C     0.57603   0.84314   0.42753   0.00000  Uiso   1.00
C474   C     0.54147   0.86002   0.40826   0.00000  Uiso   1.00
C475   C     0.50925   0.85214   0.06755   0.00000  Uiso   1.00
C476   C     0.58353   0.81567   0.05941   0.00000  Uiso   1.00
F477   F     0.63485   0.76971   0.20292   0.00000  Uiso   1.00
F478   F     0.39456   0.77058   0.20092   0.00000  Uiso   1.00
F479   F     0.36529   0.89736   0.29529   0.00000  Uiso   1.00
F480   F     0.63973   0.80376   0.47343   0.00000  Uiso   1.00
H481   H     0.60801   0.80177   0.07736   0.00000  Uiso   1.00
H482   H     0.57645   0.70469   0.22496   0.00000  Uiso   1.00
H483   H     0.61490   0.89315   0.28355   0.00000  Uiso   1.00
H484   H     0.61290   0.84271   0.40306   0.00000  Uiso   1.00
H485   H     0.41897   0.84704   0.06286   0.00000  Uiso   1.00
N486   N     0.38093   0.83334   0.25002   0.00000  Uiso   1.00
N487   N     0.61906   0.83331   0.25001   0.00000  Uiso   1.00
N488   N     0.37303   0.72217   0.30625   0.00000  Uiso   1.00
N489   N     0.38873   0.95192   0.21793   0.00000  Uiso   1.00
N490   N     0.45129   0.91210   0.11636   0.00000  Uiso   1.00
N491   N     0.34937   0.88690   0.39660   0.00000  Uiso   1.00
N492   N     0.64802   0.88820   0.05523   0.00000  Uiso   1.00
N493   N     0.55807   0.92926   0.35717   0.00000  Uiso   1.00
N494   N     0.62860   0.94334   0.19000   0.00000  Uiso   1.00
O495   O     0.46179   0.89442   0.25001   0.00000  Uiso   1.00
O496   O     0.53823   0.89441   0.25001   0.00000  Uiso   1.00
O497   O     0.44280   0.83333   0.32681   0.00000  Uiso   1.00
O498   O     0.51924   0.83332   0.32681   0.00000  Uiso   1.00
O499   O     0.46177   0.77226   0.25000   0.00000  Uiso   1.00
O500   O     0.53821   0.77225   0.25000   0.00000  Uiso   1.00
O501   O     0.48076   0.83335   0.17319   0.00000  Uiso   1.00
O502   O     0.55720   0.83334   0.17319   0.00000  Uiso   1.00
Zn503  Zn    0.44896   0.83334   0.25000   0.00000  Uiso   1.00
Zn504  Zn    0.55104   0.83333   0.25000   0.00000  Uiso   1.00
C505   C     0.83445   0.91314   0.24491   0.00000  Uiso   1.00
C506   C     0.79208   0.85038   0.40918   0.00000  Uiso   1.00
C507   C     0.87844   0.97897   0.22830   0.00000  Uiso   1.00
C508   C     0.80732   0.83888   0.35142   0.00000  Uiso   1.00
C509   C     0.87671   0.68805   0.23441   0.00000  Uiso   1.00
C510   C     0.83285   0.70902   0.25178   0.00000  Uiso   1.00
C511   C     0.79000   0.68769   0.26104   0.00000  Uiso   1.00
C512   C     0.79235   0.97974   0.24653   0.00000  Uiso   1.00
C513   C     0.83545   0.95753   0.23807   0.00000  Uiso   1.00
C514   C     0.98315   0.80139   0.22699   0.00000  Uiso   1.00
C515   C     0.69786   0.80171   0.22628   0.00000  Uiso   1.00
C516   C     0.81327   0.84922   0.49070   0.00000  Uiso   1.00
C517   C     0.68367   0.86537   0.27212   0.00000  Uiso   1.00
C518   C     0.96994   0.86597   0.27028   0.00000  Uiso   1.00
C519   C     0.83286   0.75337   0.25218   0.00000  Uiso   1.00
C520   C     0.85934   0.83322   0.14854   0.00000  Uiso   1.00
C521   C     0.92940   0.81754   0.00415   0.00000  Uiso   1.00
C522   C     0.87410   0.83440   0.09104   0.00000  Uiso   1.00
C523   C     0.74430   0.85992   0.43966   0.00000  Uiso   1.00
C524   C     0.73113   0.86107   0.49556   0.00000  Uiso   1.00
C525   C     0.76460   0.85114   0.02030   0.00000  Uiso   1.00
C526   C     0.74346   0.70701   0.28610   0.00000  Uiso   1.00
C527   C     0.82678   0.85214   0.43530   0.00000  Uiso   1.00
C528   C     0.75323   0.96356   0.23124   0.00000  Uiso   1.00
C529   C     0.81024   0.88544   0.09489   0.00000  Uiso   1.00
C530   C     0.71040   0.87431   0.41501   0.00000  Uiso   1.00
C531   C     0.68473   0.87571   0.02859   0.00000  Uiso   1.00
C532   C     0.88484   0.89794   0.37884   0.00000  Uiso   1.00
C533   C     0.92482   0.95912   0.20724   0.00000  Uiso   1.00
C534   C     0.84965   0.84415   0.01400   0.00000  Uiso   1.00
C535   C     0.89627   0.83318   0.48123   0.00000  Uiso   1.00
C536   C     0.90936   0.84314   0.42753   0.00000  Uiso   1.00
C537   C     0.87481   0.86002   0.40826   0.00000  Uiso   1.00
C538   C     0.84258   0.85214   0.06755   0.00000  Uiso   1.00
C539   C     0.91687   0.81567   0.05941   0.00000  Uiso   1.00
F540   F     0.96818   0.76971   0.20292   0.00000  Uiso   1.00
F541   F     0.72790   0.77058   0.20092   0.00000  Uiso   1.00
F542   F     0.69862   0.89736   0.29529   0.00000  Uiso   1.00
F543   F     0.97307   0.80376   0.47343   0.00000  Uiso   1.00
H544   H     0.94135   0.80177   0.07736   0.00000  Uiso   1.00
H545   H     0.90978   0.70469   0.22496   0.00000  Uiso   1.00
H546   H     0.94824   0.89315   0.28355   0.00000  Uiso   1.00
H547   H     0.94623   0.84271   0.40306   0.00000  Uiso   1.00
H548   H     0.75230   0.84704   0.06286   0.00000  Uiso   1.00
N549   N     0.71426   0.83334   0.25002   0.00000  Uiso   1.00
N550   N     0.95239   0.83331   0.25001   0.00000  Uiso   1.00
N551   N     0.70636   0.72217   0.30625   0.00000  Uiso   1.00
N552   N     0.72206   0.95192   0.21793   0.00000  Uiso   1.00
N553   N     0.78462   0.91210   0.11636   0.00000  Uiso   1.00
N554   N     0.68270   0.88690   0.39660   0.00000  Uiso   1.00
N555   N     0.98135   0.88820   0.05523   0.00000  Uiso   1.00
N556   N     0.89141   0.92926   0.35717   0.00000  Uiso   1.00
N557   N     0.96193   0.94334   0.19000   0.00000  Uiso   1.00
O558   O     0.79512   0.89442   0.25001   0.00000  Uiso   1.00
O559   O     0.87157   0.89441   0.25001   0.00000  Uiso   1.00
O560   O     0.77613   0.83333   0.32681   0.00000  Uiso   1.00
O561   O     0.85258   0.83332   0.32681   0.00000  Uiso   1.00
O562   O     0.79510   0.77226   0.25000   0.00000  Uiso   1.00
O563   O     0.87154   0.77225   0.25000   0.00000  Uiso   1.00
O564   O     0.81409   0.83335   0.17319   0.00000  Uiso   1.00
O565   O     0.89053   0.83334   0.17319   0.00000  Uiso   1.00
Zn566  Zn    0.78229   0.83334   0.25000   0.00000  Uiso   1.00
Zn567  Zn    0.88438   0.83333   0.25000   0.00000  Uiso   1.00
C568   C     0.16778   0.24647   0.74491   0.00000  Uiso   1.00
C569   C     0.12541   0.18372   0.90918   0.00000  Uiso   1.00
C570   C     0.21177   0.31230   0.72830   0.00000  Uiso   1.00
C571   C     0.14065   0.17221   0.85142   0.00000  Uiso   1.00
C572   C     0.21005   0.02138   0.73441   0.00000  Uiso   1.00
C573   C     0.16618   0.04235   0.75178   0.00000  Uiso   1.00
C574   C     0.12333   0.02102   0.76104   0.00000  Uiso   1.00
C575   C     0.12568   0.31308   0.74653   0.00000  Uiso   1.00
C576   C     0.16879   0.29086   0.73807   0.00000  Uiso   1.00
C577   C     0.31649   0.13473   0.72699   0.00000  Uiso   1.00
C578   C     0.03119   0.13504   0.72628   0.00000  Uiso   1.00
C579   C     0.14660   0.18255   0.99070   0.00000  Uiso   1.00
C580   C     0.01700   0.19870   0.77212   0.00000  Uiso   1.00
C581   C     0.30328   0.19931   0.77028   0.00000  Uiso   1.00
C582   C     0.16619   0.08670   0.75218   0.00000  Uiso   1.00
C583   C     0.19267   0.16656   0.64854   0.00000  Uiso   1.00
C584   C     0.26274   0.15088   0.50415   0.00000  Uiso   1.00
C585   C     0.20744   0.16773   0.59104   0.00000  Uiso   1.00
C586   C     0.07763   0.19326   0.93966   0.00000  Uiso   1.00
C587   C     0.06447   0.19441   0.99556   0.00000  Uiso   1.00
C588   C     0.09794   0.18448   0.52030   0.00000  Uiso   1.00
C589   C     0.07679   0.04034   0.78610   0.00000  Uiso   1.00
C590   C     0.16011   0.18548   0.93530   0.00000  Uiso   1.00
C591   C     0.08656   0.29689   0.73124   0.00000  Uiso   1.00
C592   C     0.14357   0.21878   0.59489   0.00000  Uiso   1.00
C593   C     0.04373   0.20764   0.91501   0.00000  Uiso   1.00
C594   C     0.01806   0.20905   0.52859   0.00000  Uiso   1.00
C595   C     0.21817   0.23127   0.87884   0.00000  Uiso   1.00
C596   C     0.25815   0.29246   0.70724   0.00000  Uiso   1.00
C597   C     0.18298   0.17749   0.51400   0.00000  Uiso   1.00
C598   C     0.22960   0.16651   0.98123   0.00000  Uiso   1.00
C599   C     0.24269   0.17648   0.92753   0.00000  Uiso   1.00
C600   C     0.20814   0.19335   0.90826   0.00000  Uiso   1.00
C601   C     0.17592   0.18547   0.56755   0.00000  Uiso   1.00
C602   C     0.25020   0.14901   0.55941   0.00000  Uiso   1.00
F603   F     0.30151   0.10304   0.70292   0.00000  Uiso   1.00
F604   F     0.06123   0.10392   0.70092   0.00000  Uiso   1.00
F605   F     0.03196   0.23069   0.79529   0.00000  Uiso   1.00
F606   F     0.30640   0.13709   0.97343   0.00000  Uiso   1.00
H607   H     0.27468   0.13510   0.57736   0.00000  Uiso   1.00
H608   H     0.24312   0.03802   0.72496   0.00000  Uiso   1.00
H609   H     0.28157   0.22649   0.78355   0.00000  Uiso   1.00
H610   H     0.27957   0.17604   0.90306   0.00000  Uiso   1.00
H611   H     0.08563   0.18038   0.56286   0.00000  Uiso   1.00
N612   N     0.04760   0.16668   0.75002   0.00000  Uiso   1.00
N613   N     0.28573   0.16665   0.75001   0.00000  Uiso   1.00
N614   N     0.03970   0.05550   0.80625   0.00000  Uiso   1.00
N615   N     0.05540   0.28525   0.71793   0.00000  Uiso   1.00
N616   N     0.11795   0.24544   0.61636   0.00000  Uiso   1.00
N617   N     0.01603   0.22024   0.89660   0.00000  Uiso   1.00
N618   N     0.31468   0.22154   0.55523   0.00000  Uiso   1.00
N619   N     0.22474   0.26259   0.85717   0.00000  Uiso   1.00
N620   N     0.29526   0.27667   0.69000   0.00000  Uiso   1.00
O621   O     0.12846   0.22775   0.75001   0.00000  Uiso   1.00
O622   O     0.20490   0.22774   0.75001   0.00000  Uiso   1.00
O623   O     0.10947   0.16666   0.82681   0.00000  Uiso   1.00
O624   O     0.18591   0.16665   0.82681   0.00000  Uiso   1.00
O625   O     0.12843   0.10559   0.75000   0.00000  Uiso   1.00
O626   O     0.20488   0.10558   0.75000   0.00000  Uiso   1.00
O627   O     0.14742   0.16668   0.67319   0.00000  Uiso   1.00
O628   O     0.22387   0.16667   0.67319   0.00000  Uiso   1.00
Zn629  Zn    0.11562   0.16667   0.75000   0.00000  Uiso   1.00
Zn630  Zn    0.21771   0.16666   0.75000   0.00000  Uiso   1.00
C631   C     0.50112   0.24647   0.74491   0.00000  Uiso   1.00
C632   C     0.45875   0.18372   0.90918   0.00000  Uiso   1.00
C633   C     0.54510   0.31230   0.72830   0.00000  Uiso   1.00
C634   C     0.47398   0.17221   0.85142   0.00000  Uiso   1.00
C635   C     0.54338   0.02138   0.73441   0.00000  Uiso   1.00
C636   C     0.49952   0.04235   0.75178   0.00000  Uiso   1.00
C637   C     0.45667   0.02102   0.76104   0.00000  Uiso   1.00
C638   C     0.45901   0.31308   0.74653   0.00000  Uiso   1.00
C639   C     0.50212   0.29086   0.73807   0.00000  Uiso   1.00
C640   C     0.64982   0.13473   0.72699   0.00000  Uiso   1.00
C641   C     0.36452   0.13504   0.72628   0.00000  Uiso   1.00
C642   C     0.47994   0.18255   0.99070   0.00000  Uiso   1.00
C643   C     0.35034   0.19870   0.77212   0.00000  Uiso   1.00
C644   C     0.63661   0.19931   0.77028   0.00000  Uiso   1.00
C645   C     0.49953   0.08670   0.75218   0.00000  Uiso   1.00
C646   C     0.52600   0.16656   0.64854   0.00000  Uiso   1.00
C647   C     0.59607   0.15088   0.50415   0.00000  Uiso   1.00
C648   C     0.54077   0.16773   0.59104   0.00000  Uiso   1.00
C649   C     0.41097   0.19326   0.93966   0.00000  Uiso   1.00
C650   C     0.39780   0.19441   0.99556   0.00000  Uiso   1.00
C651   C     0.43127   0.18448   0.52030   0.00000  Uiso   1.00
C652   C     0.41013   0.04034   0.78610   0.00000  Uiso   1.00
C653   C     0.49344   0.18548   0.93530   0.00000  Uiso   1.00
C654   C     0.41989   0.29689   0.73124   0.00000  Uiso   1.00
C655   C     0.47690   0.21878   0.59489   0.00000  Uiso   1.00
C656   C     0.37706   0.20764   0.91501   0.00000  Uiso   1.00
C657   C     0.35140   0.20905   0.52859   0.00000  Uiso   1.00
C658   C     0.55151   0.23127   0.87884   0.00000  Uiso   1.00
C659   C     0.59148   0.29246   0.70724   0.00000  Uiso   1.00
C660   C     0.51631   0.17749   0.51400   0.00000  Uiso   1.00
C661   C     0.56293   0.16651   0.98123   0.00000  Uiso   1.00
C662   C     0.57603   0.17648   0.92753   0.00000  Uiso   1.00
C663   C     0.54147   0.19335   0.90826   0.00000  Uiso   1.00
C664   C     0.50925   0.18547   0.56755   0.00000  Uiso   1.00
C665   C     0.58353   0.14901   0.55941   0.00000  Uiso   1.00
F666   F     0.63485   0.10304   0.70292   0.00000  Uiso   1.00
F667   F     0.39456   0.10392   0.70092   0.00000  Uiso   1.00
F668   F     0.36529   0.23069   0.79529   0.00000  Uiso   1.00
F669   F     0.63973   0.13709   0.97343   0.00000  Uiso   1.00
H670   H     0.60801   0.13510   0.57736   0.00000  Uiso   1.00
H671   H     0.57645   0.03802   0.72496   0.00000  Uiso   1.00
H672   H     0.61490   0.22649   0.78355   0.00000  Uiso   1.00
H673   H     0.61290   0.17604   0.90306   0.00000  Uiso   1.00
H674   H     0.41897   0.18038   0.56286   0.00000  Uiso   1.00
N675   N     0.38093   0.16668   0.75002   0.00000  Uiso   1.00
N676   N     0.61906   0.16665   0.75001   0.00000  Uiso   1.00
N677   N     0.37303   0.05550   0.80625   0.00000  Uiso   1.00
N678   N     0.38873   0.28525   0.71793   0.00000  Uiso   1.00
N679   N     0.45129   0.24544   0.61636   0.00000  Uiso   1.00
N680   N     0.34937   0.22024   0.89660   0.00000  Uiso   1.00
N681   N     0.64802   0.22154   0.55523   0.00000  Uiso   1.00
N682   N     0.55807   0.26259   0.85717   0.00000  Uiso   1.00
N683   N     0.62860   0.27667   0.69000   0.00000  Uiso   1.00
O684   O     0.46179   0.22775   0.75001   0.00000  Uiso   1.00
O685   O     0.53823   0.22774   0.75001   0.00000  Uiso   1.00
O686   O     0.44280   0.16666   0.82681   0.00000  Uiso   1.00
O687   O     0.51924   0.16665   0.82681   0.00000  Uiso   1.00
O688   O     0.46177   0.10559   0.75000   0.00000  Uiso   1.00
O689   O     0.53821   0.10558   0.75000   0.00000  Uiso   1.00
O690   O     0.48076   0.16668   0.67319   0.00000  Uiso   1.00
O691   O     0.55720   0.16667   0.67319   0.00000  Uiso   1.00
Zn692  Zn    0.44896   0.16667   0.75000   0.00000  Uiso   1.00
Zn693  Zn    0.55104   0.16666   0.75000   0.00000  Uiso   1.00
C694   C     0.83445   0.24647   0.74491   0.00000  Uiso   1.00
C695   C     0.79208   0.18372   0.90918   0.00000  Uiso   1.00
C696   C     0.87844   0.31230   0.72830   0.00000  Uiso   1.00
C697   C     0.80732   0.17221   0.85142   0.00000  Uiso   1.00
C698   C     0.87671   0.02138   0.73441   0.00000  Uiso   1.00
C699   C     0.83285   0.04235   0.75178   0.00000  Uiso   1.00
C700   C     0.79000   0.02102   0.76104   0.00000  Uiso   1.00
C701   C     0.79235   0.31308   0.74653   0.00000  Uiso   1.00
C702   C     0.83545   0.29086   0.73807   0.00000  Uiso   1.00
C703   C     0.98315   0.13473   0.72699   0.00000  Uiso   1.00
C704   C     0.69786   0.13504   0.72628   0.00000  Uiso   1.00
C705   C     0.81327   0.18255   0.99070   0.00000  Uiso   1.00
C706   C     0.68367   0.19870   0.77212   0.00000  Uiso   1.00
C707   C     0.96994   0.19931   0.77028   0.00000  Uiso   1.00
C708   C     0.83286   0.08670   0.75218   0.00000  Uiso   1.00
C709   C     0.85934   0.16656   0.64854   0.00000  Uiso   1.00
C710   C     0.92940   0.15088   0.50415   0.00000  Uiso   1.00
C711   C     0.87410   0.16773   0.59104   0.00000  Uiso   1.00
C712   C     0.74430   0.19326   0.93966   0.00000  Uiso   1.00
C713   C     0.73113   0.19441   0.99556   0.00000  Uiso   1.00
C714   C     0.76460   0.18448   0.52030   0.00000  Uiso   1.00
C715   C     0.74346   0.04034   0.78610   0.00000  Uiso   1.00
C716   C     0.82678   0.18548   0.93530   0.00000  Uiso   1.00
C717   C     0.75323   0.29689   0.73124   0.00000  Uiso   1.00
C718   C     0.81024   0.21878   0.59489   0.00000  Uiso   1.00
C719   C     0.71040   0.20764   0.91501   0.00000  Uiso   1.00
C720   C     0.68473   0.20905   0.52859   0.00000  Uiso   1.00
C721   C     0.88484   0.23127   0.87884   0.00000  Uiso   1.00
C722   C     0.92482   0.29246   0.70724   0.00000  Uiso   1.00
C723   C     0.84965   0.17749   0.51400   0.00000  Uiso   1.00
C724   C     0.89627   0.16651   0.98123   0.00000  Uiso   1.00
C725   C     0.90936   0.17648   0.92753   0.00000  Uiso   1.00
C726   C     0.87481   0.19335   0.90826   0.00000  Uiso   1.00
C727   C     0.84258   0.18547   0.56755   0.00000  Uiso   1.00
C728   C     0.91687   0.14901   0.55941   0.00000  Uiso   1.00
F729   F     0.96818   0.10304   0.70292   0.00000  Uiso   1.00
F730   F     0.72790   0.10392   0.70092   0.00000  Uiso   1.00
F731   F     0.69862   0.23069   0.79529   0.00000  Uiso   1.00
F732   F     0.97307   0.13709   0.97343   0.00000  Uiso   1.00
H733   H     0.94135   0.13510   0.57736   0.00000  Uiso   1.00
H734   H     0.90978   0.03802   0.72496   0.00000  Uiso   1.00
H735   H     0.94824   0.22649   0.78355   0.00000  Uiso   1.00
H736   H     0.94623   0.17604   0.90306   0.00000  Uiso   1.00
H737   H     0.75230   0.18038   0.56286   0.00000  Uiso   1.00
N738   N     0.71426   0.16668   0.75002   0.00000  Uiso   1.00
N739   N     0.95239   0.16665   0.75001   0.00000  Uiso   1.00
N740   N     0.70636   0.05550   0.80625   0.00000  Uiso   1.00
N741   N     0.72206   0.28525   0.71793   0.00000  Uiso   1.00
N742   N     0.78462   0.24544   0.61636   0.00000  Uiso   1.00
N743   N     0.68270   0.22024   0.89660   0.00000  Uiso   1.00
N744   N     0.98135   0.22154   0.55523   0.00000  Uiso   1.00
N745   N     0.89141   0.26259   0.85717   0.00000  Uiso   1.00
N746   N     0.96193   0.27667   0.69000   0.00000  Uiso   1.00
O747   O     0.79512   0.22775   0.75001   0.00000  Uiso   1.00
O748   O     0.87157   0.22774   0.75001   0.00000  Uiso   1.00
O749   O     0.77613   0.16666   0.82681   0.00000  Uiso   1.00
O750   O     0.85258   0.16665   0.82681   0.00000  Uiso   1.00
O751   O     0.79510   0.10559   0.75000   0.00000  Uiso   1.00
O752   O     0.87154   0.10558   0.75000   0.00000  Uiso   1.00
O753   O     0.81409   0.16668   0.67319   0.00000  Uiso   1.00
O754   O     0.89053   0.16667   0.67319   0.00000  Uiso   1.00
Zn755  Zn    0.78229   0.16667   0.75000   0.00000  Uiso   1.00
Zn756  Zn    0.88438   0.16666   0.75000   0.00000  Uiso   1.00
C757   C     0.16778   0.57980   0.74491   0.00000  Uiso   1.00
C758   C     0.12541   0.51705   0.90918   0.00000  Uiso   1.00
C759   C     0.21177   0.64563   0.72830   0.00000  Uiso   1.00
C760   C     0.14065   0.50555   0.85142   0.00000  Uiso   1.00
C761   C     0.21005   0.35471   0.73441   0.00000  Uiso   1.00
C762   C     0.16618   0.37568   0.75178   0.00000  Uiso   1.00
C763   C     0.12333   0.35435   0.76104   0.00000  Uiso   1.00
C764   C     0.12568   0.64641   0.74653   0.00000  Uiso   1.00
C765   C     0.16879   0.62420   0.73807   0.00000  Uiso   1.00
C766   C     0.31649   0.46806   0.72699   0.00000  Uiso   1.00
C767   C     0.03119   0.46838   0.72628   0.00000  Uiso   1.00
C768   C     0.14660   0.51588   0.99070   0.00000  Uiso   1.00
C769   C     0.01700   0.53204   0.77212   0.00000  Uiso   1.00
C770   C     0.30328   0.53264   0.77028   0.00000  Uiso   1.00
C771   C     0.16619   0.42004   0.75218   0.00000  Uiso   1.00
C772   C     0.19267   0.49989   0.64854   0.00000  Uiso   1.00
C773   C     0.26274   0.48421   0.50415   0.00000  Uiso   1.00
C774   C     0.20744   0.50107   0.59104   0.00000  Uiso   1.00
C775   C     0.07763   0.52659   0.93966   0.00000  Uiso   1.00
C776   C     0.06447   0.52774   0.99556   0.00000  Uiso   1.00
C777   C     0.09794   0.51781   0.52030   0.00000  Uiso   1.00
C778   C     0.07679   0.37368   0.78610   0.00000  Uiso   1.00
C779   C     0.16011   0.51881   0.93530   0.00000  Uiso   1.00
C780   C     0.08656   0.63023   0.73124   0.00000  Uiso   1.00
C781   C     0.14357   0.55211   0.59489   0.00000  Uiso   1.00
C782   C     0.04373   0.54097   0.91501   0.00000  Uiso   1.00
C783   C     0.01806   0.54238   0.52859   0.00000  Uiso   1.00
C784   C     0.21817   0.56460   0.87884   0.00000  Uiso   1.00
C785   C     0.25815   0.62579   0.70724   0.00000  Uiso   1.00
C786   C     0.18298   0.51082   0.51400   0.00000  Uiso   1.00
C787   C     0.22960   0.49984   0.98123   0.00000  Uiso   1.00
C788   C     0.24269   0.50981   0.92753   0.00000  Uiso   1.00
C789   C     0.20814   0.52668   0.90826   0.00000  Uiso   1.00
C790   C     0.17592   0.51881   0.56755   0.00000  Uiso   1.00
C791   C     0.25020   0.48234   0.55941   0.00000  Uiso   1.00
F792   F     0.30151   0.43638   0.70292   0.00000  Uiso   1.00
F793   F     0.06123   0.43725   0.70092   0.00000  Uiso   1.00
F794   F     0.03196   0.56402   0.79529   0.00000  Uiso   1.00
F795   F     0.30640   0.47042   0.97343   0.00000  Uiso   1.00
H796   H     0.27468   0.46843   0.57736   0.00000  Uiso   1.00
H797   H     0.24312   0.37136   0.72496   0.00000  Uiso   1.00
H798   H     0.28157   0.55982   0.78355   0.00000  Uiso   1.00
H799   H     0.27957   0.50937   0.90306   0.00000  Uiso   1.00
H800   H     0.08563   0.51371   0.56286   0.00000  Uiso   1.00
N801   N     0.04760   0.50001   0.75002   0.00000  Uiso   1.00
N802   N     0.28573   0.49998   0.75001   0.00000  Uiso   1.00
N803   N     0.03970   0.38883   0.80625   0.00000  Uiso   1.00
N804   N     0.05540   0.61858   0.71793   0.00000  Uiso   1.00
N805   N     0.11795   0.57877   0.61636   0.00000  Uiso   1.00
N806   N     0.01603   0.55357   0.89660   0.00000  Uiso   1.00
N807   N     0.31468   0.55487   0.55523   0.00000  Uiso   1.00
N808   N     0.22474   0.59593   0.85717   0.00000  Uiso   1.00
N809   N     0.29526   0.61000   0.69000   0.00000  Uiso   1.00
O810   O     0.12846   0.56108   0.75001   0.00000  Uiso   1.00
O811   O     0.20490   0.56107   0.75001   0.00000  Uiso   1.00
O812   O     0.10947   0.50000   0.82681   0.00000  Uiso   1.00
O813   O     0.18591   0.49999   0.82681   0.00000  Uiso   1.00
O814   O     0.12843   0.43893   0.75000   0.00000  Uiso   1.00
O815   O     0.20488   0.43892   0.75000   0.00000  Uiso   1.00
O816   O     0.14742   0.50001   0.67319   0.00000  Uiso   1.00
O817   O     0.22387   0.50000   0.67319   0.00000  Uiso   1.00
Zn818  Zn    0.11562   0.50001   0.75000   0.00000  Uiso   1.00
Zn819  Zn    0.21771   0.49999   0.75000   0.00000  Uiso   1.00
C820   C     0.50112   0.57980   0.74491   0.00000  Uiso   1.00
C821   C     0.45875   0.51705   0.90918   0.00000  Uiso   1.00
C822   C     0.54510   0.64563   0.72830   0.00000  Uiso   1.00
C823   C     0.47398   0.50555   0.85142   0.00000  Uiso   1.00
C824   C     0.54338   0.35471   0.73441   0.00000  Uiso   1.00
C825   C     0.49952   0.37568   0.75178   0.00000  Uiso   1.00
C826   C     0.45667   0.35435   0.76104   0.00000  Uiso   1.00
C827   C     0.45901   0.64641   0.74653   0.00000  Uiso   1.00
C828   C     0.50212   0.62420   0.73807   0.00000  Uiso   1.00
C829   C     0.64982   0.46806   0.72699   0.00000  Uiso   1.00
C830   C     0.36452   0.46838   0.72628   0.00000  Uiso   1.00
C831   C     0.47994   0.51588   0.99070   0.00000  Uiso   1.00
C832   C     0.35034   0.53204   0.77212   0.00000  Uiso   1.00
C833   C     0.63661   0.53264   0.77028   0.00000  Uiso   1.00
C834   C     0.49953   0.42004   0.75218   0.00000  Uiso   1.00
C835   C     0.52600   0.49989   0.64854   0.00000  Uiso   1.00
C836   C     0.59607   0.48421   0.50415   0.00000  Uiso   1.00
C837   C     0.54077   0.50107   0.59104   0.00000  Uiso   1.00
C838   C     0.41097   0.52659   0.93966   0.00000  Uiso   1.00
C839   C     0.39780   0.52774   0.99556   0.00000  Uiso   1.00
C840   C     0.43127   0.51781   0.52030   0.00000  Uiso   1.00
C841   C     0.41013   0.37368   0.78610   0.00000  Uiso   1.00
C842   C     0.49344   0.51881   0.93530   0.00000  Uiso   1.00
C843   C     0.41989   0.63023   0.73124   0.00000  Uiso   1.00
C844   C     0.47690   0.55211   0.59489   0.00000  Uiso   1.00
C845   C     0.37706   0.54097   0.91501   0.00000  Uiso   1.00
C846   C     0.35140   0.54238   0.52859   0.00000  Uiso   1.00
C847   C     0.55151   0.56460   0.87884   0.00000  Uiso   1.00
C848   C     0.59148   0.62579   0.70724   0.00000  Uiso   1.00
C849   C     0.51631   0.51082   0.51400   0.00000  Uiso   1.00
C850   C     0.56293   0.49984   0.98123   0.00000  Uiso   1.00
C851   C     0.57603   0.50981   0.92753   0.00000  Uiso   1.00
C852   C     0.54147   0.52668   0.90826   0.00000  Uiso   1.00
C853   C     0.50925   0.51881   0.56755   0.00000  Uiso   1.00
C854   C     0.58353   0.48234   0.55941   0.00000  Uiso   1.00
F855   F     0.63485   0.43638   0.70292   0.00000  Uiso   1.00
F856   F     0.39456   0.43725   0.70092   0.00000  Uiso   1.00
F857   F     0.36529   0.56402   0.79529   0.00000  Uiso   1.00
F858   F     0.63973   0.47042   0.97343   0.00000  Uiso   1.00
H859   H     0.60801   0.46843   0.57736   0.00000  Uiso   1.00
H860   H     0.57645   0.37136   0.72496   0.00000  Uiso   1.00
H861   H     0.61490   0.55982   0.78355   0.00000  Uiso   1.00
H862   H     0.61290   0.50937   0.90306   0.00000  Uiso   1.00
H863   H     0.41897   0.51371   0.56286   0.00000  Uiso   1.00
N864   N     0.38093   0.50001   0.75002   0.00000  Uiso   1.00
N865   N     0.61906   0.49998   0.75001   0.00000  Uiso   1.00
N866   N     0.37303   0.38883   0.80625   0.00000  Uiso   1.00
N867   N     0.38873   0.61858   0.71793   0.00000  Uiso   1.00
N868   N     0.45129   0.57877   0.61636   0.00000  Uiso   1.00
N869   N     0.34937   0.55357   0.89660   0.00000  Uiso   1.00
N870   N     0.64802   0.55487   0.55523   0.00000  Uiso   1.00
N871   N     0.55807   0.59593   0.85717   0.00000  Uiso   1.00
N872   N     0.62860   0.61000   0.69000   0.00000  Uiso   1.00
O873   O     0.46179   0.56108   0.75001   0.00000  Uiso   1.00
O874   O     0.53823   0.56107   0.75001   0.00000  Uiso   1.00
O875   O     0.44280   0.50000   0.82681   0.00000  Uiso   1.00
O876   O     0.51924   0.49999   0.82681   0.00000  Uiso   1.00
O877   O     0.46177   0.43893   0.75000   0.00000  Uiso   1.00
O878   O     0.53821   0.43892   0.75000   0.00000  Uiso   1.00
O879   O     0.48076   0.50001   0.67319   0.00000  Uiso   1.00
O880   O     0.55720   0.50000   0.67319   0.00000  Uiso   1.00
Zn881  Zn    0.44896   0.50001   0.75000   0.00000  Uiso   1.00
Zn882  Zn    0.55104   0.49999   0.75000   0.00000  Uiso   1.00
C883   C     0.83445   0.57980   0.74491   0.00000  Uiso   1.00
C884   C     0.79208   0.51705   0.90918   0.00000  Uiso   1.00
C885   C     0.87844   0.64563   0.72830   0.00000  Uiso   1.00
C886   C     0.80732   0.50555   0.85142   0.00000  Uiso   1.00
C887   C     0.87671   0.35471   0.73441   0.00000  Uiso   1.00
C888   C     0.83285   0.37568   0.75178   0.00000  Uiso   1.00
C889   C     0.79000   0.35435   0.76104   0.00000  Uiso   1.00
C890   C     0.79235   0.64641   0.74653   0.00000  Uiso   1.00
C891   C     0.83545   0.62420   0.73807   0.00000  Uiso   1.00
C892   C     0.98315   0.46806   0.72699   0.00000  Uiso   1.00
C893   C     0.69786   0.46838   0.72628   0.00000  Uiso   1.00
C894   C     0.81327   0.51588   0.99070   0.00000  Uiso   1.00
C895   C     0.68367   0.53204   0.77212   0.00000  Uiso   1.00
C896   C     0.96994   0.53264   0.77028   0.00000  Uiso   1.00
C897   C     0.83286   0.42004   0.75218   0.00000  Uiso   1.00
C898   C     0.85934   0.49989   0.64854   0.00000  Uiso   1.00
C899   C     0.92940   0.48421   0.50415   0.00000  Uiso   1.00
C900   C     0.87410   0.50107   0.59104   0.00000  Uiso   1.00
C901   C     0.74430   0.52659   0.93966   0.00000  Uiso   1.00
C902   C     0.73113   0.52774   0.99556   0.00000  Uiso   1.00
C903   C     0.76460   0.51781   0.52030   0.00000  Uiso   1.00
C904   C     0.74346   0.37368   0.78610   0.00000  Uiso   1.00
C905   C     0.82678   0.51881   0.93530   0.00000  Uiso   1.00
C906   C     0.75323   0.63023   0.73124   0.00000  Uiso   1.00
C907   C     0.81024   0.55211   0.59489   0.00000  Uiso   1.00
C908   C     0.71040   0.54097   0.91501   0.00000  Uiso   1.00
C909   C     0.68473   0.54238   0.52859   0.00000  Uiso   1.00
C910   C     0.88484   0.56460   0.87884   0.00000  Uiso   1.00
C911   C     0.92482   0.62579   0.70724   0.00000  Uiso   1.00
C912   C     0.84965   0.51082   0.51400   0.00000  Uiso   1.00
C913   C     0.89627   0.49984   0.98123   0.00000  Uiso   1.00
C914   C     0.90936   0.50981   0.92753   0.00000  Uiso   1.00
C915   C     0.87481   0.52668   0.90826   0.00000  Uiso   1.00
C916   C     0.84258   0.51881   0.56755   0.00000  Uiso   1.00
C917   C     0.91687   0.48234   0.55941   0.00000  Uiso   1.00
F918   F     0.96818   0.43638   0.70292   0.00000  Uiso   1.00
F919   F     0.72790   0.43725   0.70092   0.00000  Uiso   1.00
F920   F     0.69862   0.56402   0.79529   0.00000  Uiso   1.00
F921   F     0.97307   0.47042   0.97343   0.00000  Uiso   1.00
H922   H     0.94135   0.46843   0.57736   0.00000  Uiso   1.00
H923   H     0.90978   0.37136   0.72496   0.00000  Uiso   1.00
H924   H     0.94824   0.55982   0.78355   0.00000  Uiso   1.00
H925   H     0.94623   0.50937   0.90306   0.00000  Uiso   1.00
H926   H     0.75230   0.51371   0.56286   0.00000  Uiso   1.00
N927   N     0.71426   0.50001   0.75002   0.00000  Uiso   1.00
N928   N     0.95239   0.49998   0.75001   0.00000  Uiso   1.00
N929   N     0.70636   0.38883   0.80625   0.00000  Uiso   1.00
N930   N     0.72206   0.61858   0.71793   0.00000  Uiso   1.00
N931   N     0.78462   0.57877   0.61636   0.00000  Uiso   1.00
N932   N     0.68270   0.55357   0.89660   0.00000  Uiso   1.00
N933   N     0.98135   0.55487   0.55523   0.00000  Uiso   1.00
N934   N     0.89141   0.59593   0.85717   0.00000  Uiso   1.00
N935   N     0.96193   0.61000   0.69000   0.00000  Uiso   1.00
O936   O     0.79512   0.56108   0.75001   0.00000  Uiso   1.00
O937   O     0.87157   0.56107   0.75001   0.00000  Uiso   1.00
O938   O     0.77613   0.50000   0.82681   0.00000  Uiso   1.00
O939   O     0.85258   0.49999   0.82681   0.00000  Uiso   1.00
O940   O     0.79510   0.43893   0.75000   0.00000  Uiso   1.00
O941   O     0.87154   0.43892   0.75000   0.00000  Uiso   1.00
O942   O     0.81409   0.50001   0.67319   0.00000  Uiso   1.00
O943   O     0.89053   0.50000   0.67319   0.00000  Uiso   1.00
Zn944  Zn    0.78229   0.50001   0.75000   0.00000  Uiso   1.00
Zn945  Zn    0.88438   0.49999   0.75000   0.00000  Uiso   1.00
C946   C     0.16778   0.91314   0.74491   0.00000  Uiso   1.00
C947   C     0.12541   0.85038   0.90918   0.00000  Uiso   1.00
C948   C     0.21177   0.97897   0.72830   0.00000  Uiso   1.00
C949   C     0.14065   0.83888   0.85142   0.00000  Uiso   1.00
C950   C     0.21005   0.68805   0.73441   0.00000  Uiso   1.00
C951   C     0.16618   0.70902   0.75178   0.00000  Uiso   1.00
C952   C     0.12333   0.68769   0.76104   0.00000  Uiso   1.00
C953   C     0.12568   0.97974   0.74653   0.00000  Uiso   1.00
C954   C     0.16879   0.95753   0.73807   0.00000  Uiso   1.00
C955   C     0.31649   0.80139   0.72699   0.00000  Uiso   1.00
C956   C     0.03119   0.80171   0.72628   0.00000  Uiso   1.00
C957   C     0.14660   0.84922   0.99070   0.00000  Uiso   1.00
C958   C     0.01700   0.86537   0.77212   0.00000  Uiso   1.00
C959   C     0.30328   0.86597   0.77028   0.00000  Uiso   1.00
C960   C     0.16619   0.75337   0.75218   0.00000  Uiso   1.00
C961   C     0.19267   0.83322   0.64854   0.00000  Uiso   1.00
C962   C     0.26274   0.81754   0.50415   0.00000  Uiso   1.00
C963   C     0.20744   0.83440   0.59104   0.00000  Uiso   1.00
C964   C     0.07763   0.85992   0.93966   0.00000  Uiso   1.00
C965   C     0.06447   0.86107   0.99556   0.00000  Uiso   1.00
C966   C     0.09794   0.85114   0.52030   0.00000  Uiso   1.00
C967   C     0.07679   0.70701   0.78610   0.00000  Uiso   1.00
C968   C     0.16011   0.85214   0.93530   0.00000  Uiso   1.00
C969   C     0.08656   0.96356   0.73124   0.00000  Uiso   1.00
C970   C     0.14357   0.88544   0.59489   0.00000  Uiso   1.00
C971   C     0.04373   0.87431   0.91501   0.00000  Uiso   1.00
C972   C     0.01806   0.87571   0.52859   0.00000  Uiso   1.00
C973   C     0.21817   0.89794   0.87884   0.00000  Uiso   1.00
C974   C     0.25815   0.95912   0.70724   0.00000  Uiso   1.00
C975   C     0.18298   0.84415   0.51400   0.00000  Uiso   1.00
C976   C     0.22960   0.83318   0.98123   0.00000  Uiso   1.00
C977   C     0.24269   0.84314   0.92753   0.00000  Uiso   1.00
C978   C     0.20814   0.86002   0.90826   0.00000  Uiso   1.00
C979   C     0.17592   0.85214   0.56755   0.00000  Uiso   1.00
C980   C     0.25020   0.81567   0.55941   0.00000  Uiso   1.00
F981   F     0.30151   0.76971   0.70292   0.00000  Uiso   1.00
F982   F     0.06123   0.77058   0.70092   0.00000  Uiso   1.00
F983   F     0.03196   0.89736   0.79529   0.00000  Uiso   1.00
F984   F     0.30640   0.80376   0.97343   0.00000  Uiso   1.00
H985   H     0.27468   0.80177   0.57736   0.00000  Uiso   1.00
H986   H     0.24312   0.70469   0.72496   0.00000  Uiso   1.00
H987   H     0.28157   0.89315   0.78355   0.00000  Uiso   1.00
H988   H     0.27957   0.84271   0.90306   0.00000  Uiso   1.00
H989   H     0.08563   0.84704   0.56286   0.00000  Uiso   1.00
N990   N     0.04760   0.83334   0.75002   0.00000  Uiso   1.00
N991   N     0.28573   0.83331   0.75001   0.00000  Uiso   1.00
N992   N     0.03970   0.72217   0.80625   0.00000  Uiso   1.00
N993   N     0.05540   0.95192   0.71793   0.00000  Uiso   1.00
N994   N     0.11795   0.91210   0.61636   0.00000  Uiso   1.00
N995   N     0.01603   0.88690   0.89660   0.00000  Uiso   1.00
N996   N     0.31468   0.88820   0.55523   0.00000  Uiso   1.00
N997   N     0.22474   0.92926   0.85717   0.00000  Uiso   1.00
N998   N     0.29526   0.94334   0.69000   0.00000  Uiso   1.00
O999   O     0.12846   0.89442   0.75001   0.00000  Uiso   1.00
O1000  O     0.20490   0.89441   0.75001   0.00000  Uiso   1.00
O1001  O     0.10947   0.83333   0.82681   0.00000  Uiso   1.00
O1002  O     0.18591   0.83332   0.82681   0.00000  Uiso   1.00
O1003  O     0.12843   0.77226   0.75000   0.00000  Uiso   1.00
O1004  O     0.20488   0.77225   0.75000   0.00000  Uiso   1.00
O1005  O     0.14742   0.83335   0.67319   0.00000  Uiso   1.00
O1006  O     0.22387   0.83334   0.67319   0.00000  Uiso   1.00
Zn1007 Zn    0.11562   0.83334   0.75000   0.00000  Uiso   1.00
Zn1008 Zn    0.21771   0.83333   0.75000   0.00000  Uiso   1.00
C1009  C     0.50112   0.91314   0.74491   0.00000  Uiso   1.00
C1010  C     0.45875   0.85038   0.90918   0.00000  Uiso   1.00
C1011  C     0.54510   0.97897   0.72830   0.00000  Uiso   1.00
C1012  C     0.47398   0.83888   0.85142   0.00000  Uiso   1.00
C1013  C     0.54338   0.68805   0.73441   0.00000  Uiso   1.00
C1014  C     0.49952   0.70902   0.75178   0.00000  Uiso   1.00
C1015  C     0.45667   0.68769   0.76104   0.00000  Uiso   1.00
C1016  C     0.45901   0.97974   0.74653   0.00000  Uiso   1.00
C1017  C     0.50212   0.95753   0.73807   0.00000  Uiso   1.00
C1018  C     0.64982   0.80139   0.72699   0.00000  Uiso   1.00
C1019  C     0.36452   0.80171   0.72628   0.00000  Uiso   1.00
C1020  C     0.47994   0.84922   0.99070   0.00000  Uiso   1.00
C1021  C     0.35034   0.86537   0.77212   0.00000  Uiso   1.00
C1022  C     0.63661   0.86597   0.77028   0.00000  Uiso   1.00
C1023  C     0.49953   0.75337   0.75218   0.00000  Uiso   1.00
C1024  C     0.52600   0.83322   0.64854   0.00000  Uiso   1.00
C1025  C     0.59607   0.81754   0.50415   0.00000  Uiso   1.00
C1026  C     0.54077   0.83440   0.59104   0.00000  Uiso   1.00
C1027  C     0.41097   0.85992   0.93966   0.00000  Uiso   1.00
C1028  C     0.39780   0.86107   0.99556   0.00000  Uiso   1.00
C1029  C     0.43127   0.85114   0.52030   0.00000  Uiso   1.00
C1030  C     0.41013   0.70701   0.78610   0.00000  Uiso   1.00
C1031  C     0.49344   0.85214   0.93530   0.00000  Uiso   1.00
C1032  C     0.41989   0.96356   0.73124   0.00000  Uiso   1.00
C1033  C     0.47690   0.88544   0.59489   0.00000  Uiso   1.00
C1034  C     0.37706   0.87431   0.91501   0.00000  Uiso   1.00
C1035  C     0.35140   0.87571   0.52859   0.00000  Uiso   1.00
C1036  C     0.55151   0.89794   0.87884   0.00000  Uiso   1.00
C1037  C     0.59148   0.95912   0.70724   0.00000  Uiso   1.00
C1038  C     0.51631   0.84415   0.51400   0.00000  Uiso   1.00
C1039  C     0.56293   0.83318   0.98123   0.00000  Uiso   1.00
C1040  C     0.57603   0.84314   0.92753   0.00000  Uiso   1.00
C1041  C     0.54147   0.86002   0.90826   0.00000  Uiso   1.00
C1042  C     0.50925   0.85214   0.56755   0.00000  Uiso   1.00
C1043  C     0.58353   0.81567   0.55941   0.00000  Uiso   1.00
F1044  F     0.63485   0.76971   0.70292   0.00000  Uiso   1.00
F1045  F     0.39456   0.77058   0.70092   0.00000  Uiso   1.00
F1046  F     0.36529   0.89736   0.79529   0.00000  Uiso   1.00
F1047  F     0.63973   0.80376   0.97343   0.00000  Uiso   1.00
H1048  H     0.60801   0.80177   0.57736   0.00000  Uiso   1.00
H1049  H     0.57645   0.70469   0.72496   0.00000  Uiso   1.00
H1050  H     0.61490   0.89315   0.78355   0.00000  Uiso   1.00
H1051  H     0.61290   0.84271   0.90306   0.00000  Uiso   1.00
H1052  H     0.41897   0.84704   0.56286   0.00000  Uiso   1.00
N1053  N     0.38093   0.83334   0.75002   0.00000  Uiso   1.00
N1054  N     0.61906   0.83331   0.75001   0.00000  Uiso   1.00
N1055  N     0.37303   0.72217   0.80625   0.00000  Uiso   1.00
N1056  N     0.38873   0.95192   0.71793   0.00000  Uiso   1.00
N1057  N     0.45129   0.91210   0.61636   0.00000  Uiso   1.00
N1058  N     0.34937   0.88690   0.89660   0.00000  Uiso   1.00
N1059  N     0.64802   0.88820   0.55523   0.00000  Uiso   1.00
N1060  N     0.55807   0.92926   0.85717   0.00000  Uiso   1.00
N1061  N     0.62860   0.94334   0.69000   0.00000  Uiso   1.00
O1062  O     0.46179   0.89442   0.75001   0.00000  Uiso   1.00
O1063  O     0.53823   0.89441   0.75001   0.00000  Uiso   1.00
O1064  O     0.44280   0.83333   0.82681   0.00000  Uiso   1.00
O1065  O     0.51924   0.83332   0.82681   0.00000  Uiso   1.00
O1066  O     0.46177   0.77226   0.75000   0.00000  Uiso   1.00
O1067  O     0.53821   0.77225   0.75000   0.00000  Uiso   1.00
O1068  O     0.48076   0.83335   0.67319   0.00000  Uiso   1.00
O1069  O     0.55720   0.83334   0.67319   0.00000  Uiso   1.00
Zn1070 Zn    0.44896   0.83334   0.75000   0.00000  Uiso   1.00
Zn1071 Zn    0.55104   0.83333   0.75000   0.00000  Uiso   1.00
C1072  C     0.83445   0.91314   0.74491   0.00000  Uiso   1.00
C1073  C     0.79208   0.85038   0.90918   0.00000  Uiso   1.00
C1074  C     0.87844   0.97897   0.72830   0.00000  Uiso   1.00
C1075  C     0.80732   0.83888   0.85142   0.00000  Uiso   1.00
C1076  C     0.87671   0.68805   0.73441   0.00000  Uiso   1.00
C1077  C     0.83285   0.70902   0.75178   0.00000  Uiso   1.00
C1078  C     0.79000   0.68769   0.76104   0.00000  Uiso   1.00
C1079  C     0.79235   0.97974   0.74653   0.00000  Uiso   1.00
C1080  C     0.83545   0.95753   0.73807   0.00000  Uiso   1.00
C1081  C     0.98315   0.80139   0.72699   0.00000  Uiso   1.00
C1082  C     0.69786   0.80171   0.72628   0.00000  Uiso   1.00
C1083  C     0.81327   0.84922   0.99070   0.00000  Uiso   1.00
C1084  C     0.68367   0.86537   0.77212   0.00000  Uiso   1.00
C1085  C     0.96994   0.86597   0.77028   0.00000  Uiso   1.00
C1086  C     0.83286   0.75337   0.75218   0.00000  Uiso   1.00
C1087  C     0.85934   0.83322   0.64854   0.00000  Uiso   1.00
C1088  C     0.92940   0.81754   0.50415   0.00000  Uiso   1.00
C1089  C     0.87410   0.83440   0.59104   0.00000  Uiso   1.00
C1090  C     0.74430   0.85992   0.93966   0.00000  Uiso   1.00
C1091  C     0.73113   0.86107   0.99556   0.00000  Uiso   1.00
C1092  C     0.76460   0.85114   0.52030   0.00000  Uiso   1.00
C1093  C     0.74346   0.70701   0.78610   0.00000  Uiso   1.00
C1094  C     0.82678   0.85214   0.93530   0.00000  Uiso   1.00
C1095  C     0.75323   0.96356   0.73124   0.00000  Uiso   1.00
C1096  C     0.81024   0.88544   0.59489   0.00000  Uiso   1.00
C1097  C     0.71040   0.87431   0.91501   0.00000  Uiso   1.00
C1098  C     0.68473   0.87571   0.52859   0.00000  Uiso   1.00
C1099  C     0.88484   0.89794   0.87884   0.00000  Uiso   1.00
C1100  C     0.92482   0.95912   0.70724   0.00000  Uiso   1.00
C1101  C     0.84965   0.84415   0.51400   0.00000  Uiso   1.00
C1102  C     0.89627   0.83318   0.98123   0.00000  Uiso   1.00
C1103  C     0.90936   0.84314   0.92753   0.00000  Uiso   1.00
C1104  C     0.87481   0.86002   0.90826   0.00000  Uiso   1.00
C1105  C     0.84258   0.85214   0.56755   0.00000  Uiso   1.00
C1106  C     0.91687   0.81567   0.55941   0.00000  Uiso   1.00
F1107  F     0.96818   0.76971   0.70292   0.00000  Uiso   1.00
F1108  F     0.72790   0.77058   0.70092   0.00000  Uiso   1.00
F1109  F     0.69862   0.89736   0.79529   0.00000  Uiso   1.00
F1110  F     0.97307   0.80376   0.97343   0.00000  Uiso   1.00
H1111  H     0.94135   0.80177   0.57736   0.00000  Uiso   1.00
H1112  H     0.90978   0.70469   0.72496   0.00000  Uiso   1.00
H1113  H     0.94824   0.89315   0.78355   0.00000  Uiso   1.00
H1114  H     0.94623   0.84271   0.90306   0.00000  Uiso   1.00
H1115  H     0.75230   0.84704   0.56286   0.00000  Uiso   1.00
N1116  N     0.71426   0.83334   0.75002   0.00000  Uiso   1.00
N1117  N     0.95239   0.83331   0.75001   0.00000  Uiso   1.00
N1118  N     0.70636   0.72217   0.80625   0.00000  Uiso   1.00
N1119  N     0.72206   0.95192   0.71793   0.00000  Uiso   1.00
N1120  N     0.78462   0.91210   0.61636   0.00000  Uiso   1.00
N1121  N     0.68270   0.88690   0.89660   0.00000  Uiso   1.00
N1122  N     0.98135   0.88820   0.55523   0.00000  Uiso   1.00
N1123  N     0.89141   0.92926   0.85717   0.00000  Uiso   1.00
N1124  N     0.96193   0.94334   0.69000   0.00000  Uiso   1.00
O1125  O     0.79512   0.89442   0.75001   0.00000  Uiso   1.00
O1126  O     0.87157   0.89441   0.75001   0.00000  Uiso   1.00
O1127  O     0.77613   0.83333   0.82681   0.00000  Uiso   1.00
O1128  O     0.85258   0.83332   0.82681   0.00000  Uiso   1.00
O1129  O     0.79510   0.77226   0.75000   0.00000  Uiso   1.00
O1130  O     0.87154   0.77225   0.75000   0.00000  Uiso   1.00
O1131  O     0.81409   0.83335   0.67319   0.00000  Uiso   1.00
O1132  O     0.89053   0.83334   0.67319   0.00000  Uiso   1.00
Zn1133 Zn    0.78229   0.83334   0.75000   0.00000  Uiso   1.00
Zn1134 Zn    0.88438   0.83333   0.75000   0.00000  Uiso   1.00
loop_
_geom_bond_atom_site_label_1
_geom_bond_atom_site_label_2
_geom_bond_distance
_geom_bond_site_symmetry_2
_ccdc_geom_bond_type
C1     O54     1.291   .     A
C1     O55     1.295   .     A
C1     C9      1.447   .     S
C2     C4      1.495   .     S
C2     C23     1.415   .     A
C2     C19     1.417   .     A
C3     C9      1.411   .     A
C3     C29     1.447   .     S
C3     C194    1.376   .     S
C4     O57     1.301   .     A
C4     O56     1.306   .     A
C5     C6      1.396   .     A
C5     H41     1.084   .     S
C5     C381    1.376   1_545 S
C6     C7      1.408   .     A
C6     C15     1.433   .     S
C7     C22     1.456   .     S
C7     C386    1.378   1_545 S
C8     C24     1.449   .     S
C8     C9      1.410   .     A
C8     C196    1.378   .     S
C10    N46     1.368   .     A
C10    F36     1.354   .     S
C10    C74     1.420   .     S
C11    N45     1.369   .     A
C11    F37     1.355   .     S
C11    C136    1.420   1_455 S
C12    C23     1.400   .     A
C12    C588    1.407   .     S
C12    C597    1.414   .     S
C13    N45     1.363   .     A
C13    F38     1.348   .     S
C13    C140    1.413   1_455 S
C14    H42     1.069   .     S
C14    N46     1.363   .     A
C14    C76     1.413   .     S
C15    O59     1.293   .     A
C15    O58     1.286   .     A
C16    O61     1.294   .     A
C16    O60     1.292   .     A
C16    C18     1.449   .     S
C17    C35     1.396   .     A
C17    C598    1.403   1_554 S
C17    F606    1.357   1_554 S
C18    C34     1.399   .     A
C18    C35     1.403   .     A
C19    C26     1.439   .     S
C19    C20     1.409   .     A
C20    C588    1.391   .     S
C20    C594    1.445   .     S
C21    H44     1.081   .     S
C21    C587    1.391   1_554 S
C21    C579    1.407   1_554 S
C22    N47     1.158   .     T
C23    C33     1.404   .     A
C24    N48     1.157   .     T
C25    C34     1.454   .     S
C25    N49     1.157   .     T
C26    N50     1.154   .     T
C27    C587    1.445   1_554 S
C27    N177    1.157   1_455 S
C28    N52     1.158   .     T
C28    C33     1.443   .     S
C29    N53     1.157   .     T
C30    C34     1.390   .     A
C30    C579    1.414   1_554 S
C30    C598    1.417   1_554 S
C31    C32     1.396   .     A
C31    C584    1.403   .     S
C31    C597    1.417   .     S
C32    C33     1.391   .     A
C32    H43     1.079   .     S
C35    H40     1.083   .     S
F39    C584    1.357   .     S
N45    Zn62    2.019   .     S
N46    Zn63    2.019   .     S
N51    C90     1.157   .     S
O54    Zn62    2.015   .     S
O55    Zn63    2.004   .     S
O56    Zn62    1.989   .     S
O57    Zn63    1.955   .     S
O58    Zn62    2.004   .     S
O59    Zn63    2.015   .     S
O60    Zn62    1.955   .     S
O61    Zn63    1.989   .     S
C64    O117    1.291   .     A
C64    O118    1.295   .     A
C64    C72     1.447   .     S
C65    C67     1.495   .     S
C65    C86     1.415   .     A
C65    C82     1.417   .     A
C66    C72     1.411   .     A
C66    C92     1.447   .     S
C66    C257    1.376   .     S
C67    O120    1.301   .     A
C67    O119    1.306   .     A
C68    C69     1.396   .     A
C68    H104    1.084   .     S
C68    C444    1.376   1_545 S
C69    C70     1.408   .     A
C69    C78     1.433   .     S
C70    C85     1.456   .     S
C70    C449    1.378   1_545 S
C71    C87     1.449   .     S
C71    C72     1.410   .     A
C71    C259    1.378   .     S
C73    N109    1.368   .     A
C73    F99     1.354   .     S
C73    C137    1.420   .     S
C74    N108    1.369   .     A
C74    F100    1.355   .     S
C75    C86     1.400   .     A
C75    C651    1.407   .     S
C75    C660    1.414   .     S
C76    N108    1.363   .     A
C76    F101    1.348   .     S
C77    H105    1.069   .     S
C77    N109    1.363   .     A
C77    C139    1.413   .     S
C78    O122    1.293   .     A
C78    O121    1.286   .     A
C79    O124    1.294   .     A
C79    O123    1.292   .     A
C79    C81     1.449   .     S
C80    C98     1.396   .     A
C80    C661    1.403   1_554 S
C80    F669    1.357   1_554 S
C81    C97     1.399   .     A
C81    C98     1.403   .     A
C82    C89     1.439   .     S
C82    C83     1.409   .     A
C83    C651    1.391   .     S
C83    C657    1.445   .     S
C84    H107    1.081   .     S
C84    C650    1.391   1_554 S
C84    C642    1.407   1_554 S
C85    N110    1.158   .     T
C86    C96     1.404   .     A
C87    N111    1.157   .     T
C88    C97     1.454   .     S
C88    N112    1.157   .     T
C89    N113    1.154   .     T
C90    C650    1.445   1_554 S
C91    N115    1.158   .     T
C91    C96     1.443   .     S
C92    N116    1.157   .     T
C93    C97     1.390   .     A
C93    C642    1.414   1_554 S
C93    C661    1.417   1_554 S
C94    C95     1.396   .     A
C94    C647    1.403   .     S
C94    C660    1.417   .     S
C95    C96     1.391   .     A
C95    H106    1.079   .     S
C98    H103    1.083   .     S
F102   C647    1.357   .     S
N108   Zn125   2.019   .     S
N109   Zn126   2.019   .     S
N114   C153    1.157   .     S
O117   Zn125   2.015   .     S
O118   Zn126   2.004   .     S
O119   Zn125   1.989   .     S
O120   Zn126   1.955   .     S
O121   Zn125   2.004   .     S
O122   Zn126   2.015   .     S
O123   Zn125   1.955   .     S
O124   Zn126   1.989   .     S
C127   O180    1.291   .     A
C127   O181    1.295   .     A
C127   C135    1.447   .     S
C128   C130    1.495   .     S
C128   C149    1.415   .     A
C128   C145    1.417   .     A
C129   C135    1.411   .     A
C129   C155    1.447   .     S
C129   C320    1.376   .     S
C130   O183    1.301   .     A
C130   O182    1.306   .     A
C131   C132    1.396   .     A
C131   H167    1.084   .     S
C131   C507    1.376   1_545 S
C132   C133    1.408   .     A
C132   C141    1.433   .     S
C133   C148    1.456   .     S
C133   C512    1.378   1_545 S
C134   C150    1.449   .     S
C134   C135    1.410   .     A
C134   C322    1.378   .     S
C136   N172    1.368   .     A
C136   F162    1.354   .     S
C136   C11     1.420   1_655 S
C137   N171    1.369   .     A
C137   F163    1.355   .     S
C138   C149    1.400   .     A
C138   C714    1.407   .     S
C138   C723    1.414   .     S
C139   N171    1.363   .     A
C139   F164    1.348   .     S
C140   H168    1.069   .     S
C140   N172    1.363   .     A
C140   C13     1.413   1_655 S
C141   O185    1.293   .     A
C141   O184    1.286   .     A
C142   O187    1.294   .     A
C142   O186    1.292   .     A
C142   C144    1.449   .     S
C143   C161    1.396   .     A
C143   C724    1.403   1_554 S
C143   F732    1.357   1_554 S
C144   C160    1.399   .     A
C144   C161    1.403   .     A
C145   C152    1.439   .     S
C145   C146    1.409   .     A
C146   C714    1.391   .     S
C146   C720    1.445   .     S
C147   H170    1.081   .     S
C147   C713    1.391   1_554 S
C147   C705    1.407   1_554 S
C148   N173    1.158   .     T
C149   C159    1.404   .     A
C150   N174    1.157   .     T
C151   C160    1.454   .     S
C151   N175    1.157   .     T
C152   N176    1.154   .     T
C153   C713    1.445   1_554 S
C154   N178    1.158   .     T
C154   C159    1.443   .     S
C155   N179    1.157   .     T
C156   C160    1.390   .     A
C156   C705    1.414   1_554 S
C156   C724    1.417   1_554 S
C157   C158    1.396   .     A
C157   C710    1.403   .     S
C157   C723    1.417   .     S
C158   C159    1.391   .     A
C158   H169    1.079   .     S
C161   H166    1.083   .     S
F165   C710    1.357   .     S
N171   Zn188   2.019   .     S
N172   Zn189   2.019   .     S
N177   C27     1.157   1_655 S
O180   Zn188   2.015   .     S
O181   Zn189   2.004   .     S
O182   Zn188   1.989   .     S
O183   Zn189   1.955   .     S
O184   Zn188   2.004   .     S
O185   Zn189   2.015   .     S
O186   Zn188   1.955   .     S
O187   Zn189   1.989   .     S
C190   O243    1.291   .     A
C190   O244    1.295   .     A
C190   C198    1.447   .     S
C191   C193    1.495   .     S
C191   C212    1.415   .     A
C191   C208    1.417   .     A
C192   C198    1.411   .     A
C192   C218    1.447   .     S
C192   C383    1.376   .     S
C193   O246    1.301   .     A
C193   O245    1.306   .     A
C194   C195    1.396   .     A
C194   H230    1.084   .     S
C195   C196    1.408   .     A
C195   C204    1.433   .     S
C196   C211    1.456   .     S
C197   C213    1.449   .     S
C197   C198    1.410   .     A
C197   C385    1.378   .     S
C199   N235    1.368   .     A
C199   F225    1.354   .     S
C199   C263    1.420   .     S
C200   N234    1.369   .     A
C200   F226    1.355   .     S
C200   C325    1.420   1_455 S
C201   C212    1.400   .     A
C201   C777    1.407   .     S
C201   C786    1.414   .     S
C202   N234    1.363   .     A
C202   F227    1.348   .     S
C202   C329    1.413   1_455 S
C203   H231    1.069   .     S
C203   N235    1.363   .     A
C203   C265    1.413   .     S
C204   O248    1.293   .     A
C204   O247    1.286   .     A
C205   O250    1.294   .     A
C205   O249    1.292   .     A
C205   C207    1.449   .     S
C206   C224    1.396   .     A
C206   C787    1.403   1_554 S
C206   F795    1.357   1_554 S
C207   C223    1.399   .     A
C207   C224    1.403   .     A
C208   C215    1.439   .     S
C208   C209    1.409   .     A
C209   C777    1.391   .     S
C209   C783    1.445   .     S
C210   H233    1.081   .     S
C210   C776    1.391   1_554 S
C210   C768    1.407   1_554 S
C211   N236    1.158   .     T
C212   C222    1.404   .     A
C213   N237    1.157   .     T
C214   C223    1.454   .     S
C214   N238    1.157   .     T
C215   N239    1.154   .     T
C216   C776    1.445   1_554 S
C216   N366    1.157   1_455 S
C217   N241    1.158   .     T
C217   C222    1.443   .     S
C218   N242    1.157   .     T
C219   C223    1.390   .     A
C219   C768    1.414   1_554 S
C219   C787    1.417   1_554 S
C220   C221    1.396   .     A
C220   C773    1.403   .     S
C220   C786    1.417   .     S
C221   C222    1.391   .     A
C221   H232    1.079   .     S
C224   H229    1.083   .     S
F228   C773    1.357   .     S
N234   Zn251   2.019   .     S
N235   Zn252   2.019   .     S
N240   C279    1.157   .     S
O243   Zn251   2.015   .     S
O244   Zn252   2.004   .     S
O245   Zn251   1.989   .     S
O246   Zn252   1.955   .     S
O247   Zn251   2.004   .     S
O248   Zn252   2.015   .     S
O249   Zn251   1.955   .     S
O250   Zn252   1.989   .     S
C253   O306    1.291   .     A
C253   O307    1.295   .     A
C253   C261    1.447   .     S
C254   C256    1.495   .     S
C254   C275    1.415   .     A
C254   C271    1.417   .     A
C255   C261    1.411   .     A
C255   C281    1.447   .     S
C255   C446    1.376   .     S
C256   O309    1.301   .     A
C256   O308    1.306   .     A
C257   C258    1.396   .     A
C257   H293    1.084   .     S
C258   C259    1.408   .     A
C258   C267    1.433   .     S
C259   C274    1.456   .     S
C260   C276    1.449   .     S
C260   C261    1.410   .     A
C260   C448    1.378   .     S
C262   N298    1.368   .     A
C262   F288    1.354   .     S
C262   C326    1.420   .     S
C263   N297    1.369   .     A
C263   F289    1.355   .     S
C264   C275    1.400   .     A
C264   C840    1.407   .     S
C264   C849    1.414   .     S
C265   N297    1.363   .     A
C265   F290    1.348   .     S
C266   H294    1.069   .     S
C266   N298    1.363   .     A
C266   C328    1.413   .     S
C267   O311    1.293   .     A
C267   O310    1.286   .     A
C268   O313    1.294   .     A
C268   O312    1.292   .     A
C268   C270    1.449   .     S
C269   C287    1.396   .     A
C269   C850    1.403   1_554 S
C269   F858    1.357   1_554 S
C270   C286    1.399   .     A
C270   C287    1.403   .     A
C271   C278    1.439   .     S
C271   C272    1.409   .     A
C272   C840    1.391   .     S
C272   C846    1.445   .     S
C273   H296    1.081   .     S
C273   C839    1.391   1_554 S
C273   C831    1.407   1_554 S
C274   N299    1.158   .     T
C275   C285    1.404   .     A
C276   N300    1.157   .     T
C277   C286    1.454   .     S
C277   N301    1.157   .     T
C278   N302    1.154   .     T
C279   C839    1.445   1_554 S
C280   N304    1.158   .     T
C280   C285    1.443   .     S
C281   N305    1.157   .     T
C282   C286    1.390   .     A
C282   C831    1.414   1_554 S
C282   C850    1.417   1_554 S
C283   C284    1.396   .     A
C283   C836    1.403   .     S
C283   C849    1.417   .     S
C284   C285    1.391   .     A
C284   H295    1.079   .     S
C287   H292    1.083   .     S
F291   C836    1.357   .     S
N297   Zn314   2.019   .     S
N298   Zn315   2.019   .     S
N303   C342    1.157   .     S
O306   Zn314   2.015   .     S
O307   Zn315   2.004   .     S
O308   Zn314   1.989   .     S
O309   Zn315   1.955   .     S
O310   Zn314   2.004   .     S
O311   Zn315   2.015   .     S
O312   Zn314   1.955   .     S
O313   Zn315   1.989   .     S
C316   O369    1.291   .     A
C316   O370    1.295   .     A
C316   C324    1.447   .     S
C317   C319    1.495   .     S
C317   C338    1.415   .     A
C317   C334    1.417   .     A
C318   C324    1.411   .     A
C318   C344    1.447   .     S
C318   C509    1.376   .     S
C319   O372    1.301   .     A
C319   O371    1.306   .     A
C320   C321    1.396   .     A
C320   H356    1.084   .     S
C321   C322    1.408   .     A
C321   C330    1.433   .     S
C322   C337    1.456   .     S
C323   C339    1.449   .     S
C323   C324    1.410   .     A
C323   C511    1.378   .     S
C325   N361    1.368   .     A
C325   F351    1.354   .     S
C325   C200    1.420   1_655 S
C326   N360    1.369   .     A
C326   F352    1.355   .     S
C327   C338    1.400   .     A
C327   C903    1.407   .     S
C327   C912    1.414   .     S
C328   N360    1.363   .     A
C328   F353    1.348   .     S
C329   H357    1.069   .     S
C329   N361    1.363   .     A
C329   C202    1.413   1_655 S
C330   O374    1.293   .     A
C330   O373    1.286   .     A
C331   O376    1.294   .     A
C331   O375    1.292   .     A
C331   C333    1.449   .     S
C332   C350    1.396   .     A
C332   C913    1.403   1_554 S
C332   F921    1.357   1_554 S
C333   C349    1.399   .     A
C333   C350    1.403   .     A
C334   C341    1.439   .     S
C334   C335    1.409   .     A
C335   C903    1.391   .     S
C335   C909    1.445   .     S
C336   H359    1.081   .     S
C336   C902    1.391   1_554 S
C336   C894    1.407   1_554 S
C337   N362    1.158   .     T
C338   C348    1.404   .     A
C339   N363    1.157   .     T
C340   C349    1.454   .     S
C340   N364    1.157   .     T
C341   N365    1.154   .     T
C342   C902    1.445   1_554 S
C343   N367    1.158   .     T
C343   C348    1.443   .     S
C344   N368    1.157   .     T
C345   C349    1.390   .     A
C345   C894    1.414   1_554 S
C345   C913    1.417   1_554 S
C346   C347    1.396   .     A
C346   C899    1.403   .     S
C346   C912    1.417   .     S
C347   C348    1.391   .     A
C347   H358    1.079   .     S
C350   H355    1.083   .     S
F354   C899    1.357   .     S
N360   Zn377   2.019   .     S
N361   Zn378   2.019   .     S
N366   C216    1.157   1_655 S
O369   Zn377   2.015   .     S
O370   Zn378   2.004   .     S
O371   Zn377   1.989   .     S
O372   Zn378   1.955   .     S
O373   Zn377   2.004   .     S
O374   Zn378   2.015   .     S
O375   Zn377   1.955   .     S
O376   Zn378   1.989   .     S
C379   O432    1.291   .     A
C379   O433    1.295   .     A
C379   C387    1.447   .     S
C380   C382    1.495   .     S
C380   C401    1.415   .     A
C380   C397    1.417   .     A
C381   C387    1.411   .     A
C381   C407    1.447   .     S
C381   C5      1.376   1_565 S
C382   O435    1.301   .     A
C382   O434    1.306   .     A
C383   C384    1.396   .     A
C383   H419    1.084   .     S
C384   C385    1.408   .     A
C384   C393    1.433   .     S
C385   C400    1.456   .     S
C386   C402    1.449   .     S
C386   C387    1.410   .     A
C386   C7      1.378   1_565 S
C388   N424    1.368   .     A
C388   F414    1.354   .     S
C388   C452    1.420   .     S
C389   N423    1.369   .     A
C389   F415    1.355   .     S
C389   C514    1.420   1_455 S
C390   C401    1.400   .     A
C390   C966    1.407   .     S
C390   C975    1.414   .     S
C391   N423    1.363   .     A
C391   F416    1.348   .     S
C391   C518    1.413   1_455 S
C392   H420    1.069   .     S
C392   N424    1.363   .     A
C392   C454    1.413   .     S
C393   O437    1.293   .     A
C393   O436    1.286   .     A
C394   O439    1.294   .     A
C394   O438    1.292   .     A
C394   C396    1.449   .     S
C395   C413    1.396   .     A
C395   C976    1.403   1_554 S
C395   F984    1.357   1_554 S
C396   C412    1.399   .     A
C396   C413    1.403   .     A
C397   C404    1.439   .     S
C397   C398    1.409   .     A
C398   C966    1.391   .     S
C398   C972    1.445   .     S
C399   H422    1.081   .     S
C399   C965    1.391   1_554 S
C399   C957    1.407   1_554 S
C400   N425    1.158   .     T
C401   C411    1.404   .     A
C402   N426    1.157   .     T
C403   C412    1.454   .     S
C403   N427    1.157   .     T
C404   N428    1.154   .     T
C405   C965    1.445   1_554 S
C405   N555    1.157   1_455 S
C406   N430    1.158   .     T
C406   C411    1.443   .     S
C407   N431    1.157   .     T
C408   C412    1.390   .     A
C408   C957    1.414   1_554 S
C408   C976    1.417   1_554 S
C409   C410    1.396   .     A
C409   C962    1.403   .     S
C409   C975    1.417   .     S
C410   C411    1.391   .     A
C410   H421    1.079   .     S
C413   H418    1.083   .     S
F417   C962    1.357   .     S
N423   Zn440   2.019   .     S
N424   Zn441   2.019   .     S
N429   C468    1.157   .     S
O432   Zn440   2.015   .     S
O433   Zn441   2.004   .     S
O434   Zn440   1.989   .     S
O435   Zn441   1.955   .     S
O436   Zn440   2.004   .     S
O437   Zn441   2.015   .     S
O438   Zn440   1.955   .     S
O439   Zn441   1.989   .     S
C442   O495    1.291   .     A
C442   O496    1.295   .     A
C442   C450    1.447   .     S
C443   C445    1.495   .     S
C443   C464    1.415   .     A
C443   C460    1.417   .     A
C444   C450    1.411   .     A
C444   C470    1.447   .     S
C444   C68     1.376   1_565 S
C445   O498    1.301   .     A
C445   O497    1.306   .     A
C446   C447    1.396   .     A
C446   H482    1.084   .     S
C447   C448    1.408   .     A
C447   C456    1.433   .     S
C448   C463    1.456   .     S
C449   C465    1.449   .     S
C449   C450    1.410   .     A
C449   C70     1.378   1_565 S
C451   N487    1.368   .     A
C451   F477    1.354   .     S
C451   C515    1.420   .     S
C452   N486    1.369   .     A
C452   F478    1.355   .     S
C453   C464    1.400   .     A
C453   C1029   1.407   .     S
C453   C1038   1.414   .     S
C454   N486    1.363   .     A
C454   F479    1.348   .     S
C455   H483    1.069   .     S
C455   N487    1.363   .     A
C455   C517    1.413   .     S
C456   O500    1.293   .     A
C456   O499    1.286   .     A
C457   O502    1.294   .     A
C457   O501    1.292   .     A
C457   C459    1.449   .     S
C458   C476    1.396   .     A
C458   C1039   1.403   1_554 S
C458   F1047   1.357   1_554 S
C459   C475    1.399   .     A
C459   C476    1.403   .     A
C460   C467    1.439   .     S
C460   C461    1.409   .     A
C461   C1029   1.391   .     S
C461   C1035   1.445   .     S
C462   H485    1.081   .     S
C462   C1028   1.391   1_554 S
C462   C1020   1.407   1_554 S
C463   N488    1.158   .     T
C464   C474    1.404   .     A
C465   N489    1.157   .     T
C466   C475    1.454   .     S
C466   N490    1.157   .     T
C467   N491    1.154   .     T
C468   C1028   1.445   1_554 S
C469   N493    1.158   .     T
C469   C474    1.443   .     S
C470   N494    1.157   .     T
C471   C475    1.390   .     A
C471   C1020   1.414   1_554 S
C471   C1039   1.417   1_554 S
C472   C473    1.396   .     A
C472   C1025   1.403   .     S
C472   C1038   1.417   .     S
C473   C474    1.391   .     A
C473   H484    1.079   .     S
C476   H481    1.083   .     S
F480   C1025   1.357   .     S
N486   Zn503   2.019   .     S
N487   Zn504   2.019   .     S
N492   C531    1.157   .     S
O495   Zn503   2.015   .     S
O496   Zn504   2.004   .     S
O497   Zn503   1.989   .     S
O498   Zn504   1.955   .     S
O499   Zn503   2.004   .     S
O500   Zn504   2.015   .     S
O501   Zn503   1.955   .     S
O502   Zn504   1.989   .     S
C505   O558    1.291   .     A
C505   O559    1.295   .     A
C505   C513    1.447   .     S
C506   C508    1.495   .     S
C506   C527    1.415   .     A
C506   C523    1.417   .     A
C507   C513    1.411   .     A
C507   C533    1.447   .     S
C507   C131    1.376   1_565 S
C508   O561    1.301   .     A
C508   O560    1.306   .     A
C509   C510    1.396   .     A
C509   H545    1.084   .     S
C510   C511    1.408   .     A
C510   C519    1.433   .     S
C511   C526    1.456   .     S
C512   C528    1.449   .     S
C512   C513    1.410   .     A
C512   C133    1.378   1_565 S
C514   N550    1.368   .     A
C514   F540    1.354   .     S
C514   C389    1.420   1_655 S
C515   N549    1.369   .     A
C515   F541    1.355   .     S
C516   C527    1.400   .     A
C516   C1092   1.407   .     S
C516   C1101   1.414   .     S
C517   N549    1.363   .     A
C517   F542    1.348   .     S
C518   H546    1.069   .     S
C518   N550    1.363   .     A
C518   C391    1.413   1_655 S
C519   O563    1.293   .     A
C519   O562    1.286   .     A
C520   O565    1.294   .     A
C520   O564    1.292   .     A
C520   C522    1.449   .     S
C521   C539    1.396   .     A
C521   C1102   1.403   1_554 S
C521   F1110   1.357   1_554 S
C522   C538    1.399   .     A
C522   C539    1.403   .     A
C523   C530    1.439   .     S
C523   C524    1.409   .     A
C524   C1092   1.391   .     S
C524   C1098   1.445   .     S
C525   H548    1.081   .     S
C525   C1091   1.391   1_554 S
C525   C1083   1.407   1_554 S
C526   N551    1.158   .     T
C527   C537    1.404   .     A
C528   N552    1.157   .     T
C529   C538    1.454   .     S
C529   N553    1.157   .     T
C530   N554    1.154   .     T
C531   C1091   1.445   1_554 S
C532   N556    1.158   .     T
C532   C537    1.443   .     S
C533   N557    1.157   .     T
C534   C538    1.390   .     A
C534   C1083   1.414   1_554 S
C534   C1102   1.417   1_554 S
C535   C536    1.396   .     A
C535   C1088   1.403   .     S
C535   C1101   1.417   .     S
C536   C537    1.391   .     A
C536   H547    1.079   .     S
C539   H544    1.083   .     S
F543   C1088   1.357   .     S
N549   Zn566   2.019   .     S
N550   Zn567   2.019   .     S
N555   C405    1.157   1_655 S
O558   Zn566   2.015   .     S
O559   Zn567   2.004   .     S
O560   Zn566   1.989   .     S
O561   Zn567   1.955   .     S
O562   Zn566   2.004   .     S
O563   Zn567   2.015   .     S
O564   Zn566   1.955   .     S
O565   Zn567   1.989   .     S
C568   O621    1.291   .     A
C568   O622    1.295   .     A
C568   C576    1.447   .     S
C569   C571    1.495   .     S
C569   C590    1.415   .     A
C569   C586    1.417   .     A
C570   C576    1.411   .     A
C570   C596    1.447   .     S
C570   C761    1.376   .     S
C571   O624    1.301   .     A
C571   O623    1.306   .     A
C572   C573    1.396   .     A
C572   H608    1.084   .     S
C572   C948    1.376   1_545 S
C573   C574    1.408   .     A
C573   C582    1.433   .     S
C574   C589    1.456   .     S
C574   C953    1.378   1_545 S
C575   C591    1.449   .     S
C575   C576    1.410   .     A
C575   C763    1.378   .     S
C577   N613    1.368   .     A
C577   F603    1.354   .     S
C577   C641    1.420   .     S
C578   N612    1.369   .     A
C578   F604    1.355   .     S
C578   C703    1.420   1_455 S
C579   C590    1.400   .     A
C579   C21     1.407   1_556 S
C579   C30     1.414   1_556 S
C580   N612    1.363   .     A
C580   F605    1.348   .     S
C580   C707    1.413   1_455 S
C581   H609    1.069   .     S
C581   N613    1.363   .     A
C581   C643    1.413   .     S
C582   O626    1.293   .     A
C582   O625    1.286   .     A
C583   O628    1.294   .     A
C583   O627    1.292   .     A
C583   C585    1.449   .     S
C584   C602    1.396   .     A
C585   C601    1.399   .     A
C585   C602    1.403   .     A
C586   C593    1.439   .     S
C586   C587    1.409   .     A
C587   C21     1.391   1_556 S
C587   C27     1.445   1_556 S
C588   H611    1.081   .     S
C589   N614    1.158   .     T
C590   C600    1.404   .     A
C591   N615    1.157   .     T
C592   C601    1.454   .     S
C592   N616    1.157   .     T
C593   N617    1.154   .     T
C594   N744    1.157   1_455 S
C595   N619    1.158   .     T
C595   C600    1.443   .     S
C596   N620    1.157   .     T
C597   C601    1.390   .     A
C598   C599    1.396   .     A
C598   C17     1.403   1_556 S
C598   C30     1.417   1_556 S
C599   C600    1.391   .     A
C599   H610    1.079   .     S
C602   H607    1.083   .     S
F606   C17     1.357   1_556 S
N612   Zn629   2.019   .     S
N613   Zn630   2.019   .     S
N618   C657    1.157   .     S
O621   Zn629   2.015   .     S
O622   Zn630   2.004   .     S
O623   Zn629   1.989   .     S
O624   Zn630   1.955   .     S
O625   Zn629   2.004   .     S
O626   Zn630   2.015   .     S
O627   Zn629   1.955   .     S
O628   Zn630   1.989   .     S
C631   O684    1.291   .     A
C631   O685    1.295   .     A
C631   C639    1.447   .     S
C632   C634    1.495   .     S
C632   C653    1.415   .     A
C632   C649    1.417   .     A
C633   C639    1.411   .     A
C633   C659    1.447   .     S
C633   C824    1.376   .     S
C634   O687    1.301   .     A
C634   O686    1.306   .     A
C635   C636    1.396   .     A
C635   H671    1.084   .     S
C635   C1011   1.376   1_545 S
C636   C637    1.408   .     A
C636   C645    1.433   .     S
C637   C652    1.456   .     S
C637   C1016   1.378   1_545 S
C638   C654    1.449   .     S
C638   C639    1.410   .     A
C638   C826    1.378   .     S
C640   N676    1.368   .     A
C640   F666    1.354   .     S
C640   C704    1.420   .     S
C641   N675    1.369   .     A
C641   F667    1.355   .     S
C642   C653    1.400   .     A
C642   C84     1.407   1_556 S
C642   C93     1.414   1_556 S
C643   N675    1.363   .     A
C643   F668    1.348   .     S
C644   H672    1.069   .     S
C644   N676    1.363   .     A
C644   C706    1.413   .     S
C645   O689    1.293   .     A
C645   O688    1.286   .     A
C646   O691    1.294   .     A
C646   O690    1.292   .     A
C646   C648    1.449   .     S
C647   C665    1.396   .     A
C648   C664    1.399   .     A
C648   C665    1.403   .     A
C649   C656    1.439   .     S
C649   C650    1.409   .     A
C650   C84     1.391   1_556 S
C650   C90     1.445   1_556 S
C651   H674    1.081   .     S
C652   N677    1.158   .     T
C653   C663    1.404   .     A
C654   N678    1.157   .     T
C655   C664    1.454   .     S
C655   N679    1.157   .     T
C656   N680    1.154   .     T
C658   N682    1.158   .     T
C658   C663    1.443   .     S
C659   N683    1.157   .     T
C660   C664    1.390   .     A
C661   C662    1.396   .     A
C661   C80     1.403   1_556 S
C661   C93     1.417   1_556 S
C662   C663    1.391   .     A
C662   H673    1.079   .     S
C665   H670    1.083   .     S
F669   C80     1.357   1_556 S
N675   Zn692   2.019   .     S
N676   Zn693   2.019   .     S
N681   C720    1.157   .     S
O684   Zn692   2.015   .     S
O685   Zn693   2.004   .     S
O686   Zn692   1.989   .     S
O687   Zn693   1.955   .     S
O688   Zn692   2.004   .     S
O689   Zn693   2.015   .     S
O690   Zn692   1.955   .     S
O691   Zn693   1.989   .     S
C694   O747    1.291   .     A
C694   O748    1.295   .     A
C694   C702    1.447   .     S
C695   C697    1.495   .     S
C695   C716    1.415   .     A
C695   C712    1.417   .     A
C696   C702    1.411   .     A
C696   C722    1.447   .     S
C696   C887    1.376   .     S
C697   O750    1.301   .     A
C697   O749    1.306   .     A
C698   C699    1.396   .     A
C698   H734    1.084   .     S
C698   C1074   1.376   1_545 S
C699   C700    1.408   .     A
C699   C708    1.433   .     S
C700   C715    1.456   .     S
C700   C1079   1.378   1_545 S
C701   C717    1.449   .     S
C701   C702    1.410   .     A
C701   C889    1.378   .     S
C703   N739    1.368   .     A
C703   F729    1.354   .     S
C703   C578    1.420   1_655 S
C704   N738    1.369   .     A
C704   F730    1.355   .     S
C705   C716    1.400   .     A
C705   C147    1.407   1_556 S
C705   C156    1.414   1_556 S
C706   N738    1.363   .     A
C706   F731    1.348   .     S
C707   H735    1.069   .     S
C707   N739    1.363   .     A
C707   C580    1.413   1_655 S
C708   O752    1.293   .     A
C708   O751    1.286   .     A
C709   O754    1.294   .     A
C709   O753    1.292   .     A
C709   C711    1.449   .     S
C710   C728    1.396   .     A
C711   C727    1.399   .     A
C711   C728    1.403   .     A
C712   C719    1.439   .     S
C712   C713    1.409   .     A
C713   C147    1.391   1_556 S
C713   C153    1.445   1_556 S
C714   H737    1.081   .     S
C715   N740    1.158   .     T
C716   C726    1.404   .     A
C717   N741    1.157   .     T
C718   C727    1.454   .     S
C718   N742    1.157   .     T
C719   N743    1.154   .     T
C721   N745    1.158   .     T
C721   C726    1.443   .     S
C722   N746    1.157   .     T
C723   C727    1.390   .     A
C724   C725    1.396   .     A
C724   C143    1.403   1_556 S
C724   C156    1.417   1_556 S
C725   C726    1.391   .     A
C725   H736    1.079   .     S
C728   H733    1.083   .     S
F732   C143    1.357   1_556 S
N738   Zn755   2.019   .     S
N739   Zn756   2.019   .     S
N744   C594    1.157   1_655 S
O747   Zn755   2.015   .     S
O748   Zn756   2.004   .     S
O749   Zn755   1.989   .     S
O750   Zn756   1.955   .     S
O751   Zn755   2.004   .     S
O752   Zn756   2.015   .     S
O753   Zn755   1.955   .     S
O754   Zn756   1.989   .     S
C757   O810    1.291   .     A
C757   O811    1.295   .     A
C757   C765    1.447   .     S
C758   C760    1.495   .     S
C758   C779    1.415   .     A
C758   C775    1.417   .     A
C759   C765    1.411   .     A
C759   C785    1.447   .     S
C759   C950    1.376   .     S
C760   O813    1.301   .     A
C760   O812    1.306   .     A
C761   C762    1.396   .     A
C761   H797    1.084   .     S
C762   C763    1.408   .     A
C762   C771    1.433   .     S
C763   C778    1.456   .     S
C764   C780    1.449   .     S
C764   C765    1.410   .     A
C764   C952    1.378   .     S
C766   N802    1.368   .     A
C766   F792    1.354   .     S
C766   C830    1.420   .     S
C767   N801    1.369   .     A
C767   F793    1.355   .     S
C767   C892    1.420   1_455 S
C768   C779    1.400   .     A
C768   C210    1.407   1_556 S
C768   C219    1.414   1_556 S
C769   N801    1.363   .     A
C769   F794    1.348   .     S
C769   C896    1.413   1_455 S
C770   H798    1.069   .     S
C770   N802    1.363   .     A
C770   C832    1.413   .     S
C771   O815    1.293   .     A
C771   O814    1.286   .     A
C772   O817    1.294   .     A
C772   O816    1.292   .     A
C772   C774    1.449   .     S
C773   C791    1.396   .     A
C774   C790    1.399   .     A
C774   C791    1.403   .     A
C775   C782    1.439   .     S
C775   C776    1.409   .     A
C776   C210    1.391   1_556 S
C776   C216    1.445   1_556 S
C777   H800    1.081   .     S
C778   N803    1.158   .     T
C779   C789    1.404   .     A
C780   N804    1.157   .     T
C781   C790    1.454   .     S
C781   N805    1.157   .     T
C782   N806    1.154   .     T
C783   N933    1.157   1_455 S
C784   N808    1.158   .     T
C784   C789    1.443   .     S
C785   N809    1.157   .     T
C786   C790    1.390   .     A
C787   C788    1.396   .     A
C787   C206    1.403   1_556 S
C787   C219    1.417   1_556 S
C788   C789    1.391   .     A
C788   H799    1.079   .     S
C791   H796    1.083   .     S
F795   C206    1.357   1_556 S
N801   Zn818   2.019   .     S
N802   Zn819   2.019   .     S
N807   C846    1.157   .     S
O810   Zn818   2.015   .     S
O811   Zn819   2.004   .     S
O812   Zn818   1.989   .     S
O813   Zn819   1.955   .     S
O814   Zn818   2.004   .     S
O815   Zn819   2.015   .     S
O816   Zn818   1.955   .     S
O817   Zn819   1.989   .     S
C820   O873    1.291   .     A
C820   O874    1.295   .     A
C820   C828    1.447   .     S
C821   C823    1.495   .     S
C821   C842    1.415   .     A
C821   C838    1.417   .     A
C822   C828    1.411   .     A
C822   C848    1.447   .     S
C822   C1013   1.376   .     S
C823   O876    1.301   .     A
C823   O875    1.306   .     A
C824   C825    1.396   .     A
C824   H860    1.084   .     S
C825   C826    1.408   .     A
C825   C834    1.433   .     S
C826   C841    1.456   .     S
C827   C843    1.449   .     S
C827   C828    1.410   .     A
C827   C1015   1.378   .     S
C829   N865    1.368   .     A
C829   F855    1.354   .     S
C829   C893    1.420   .     S
C830   N864    1.369   .     A
C830   F856    1.355   .     S
C831   C842    1.400   .     A
C831   C273    1.407   1_556 S
C831   C282    1.414   1_556 S
C832   N864    1.363   .     A
C832   F857    1.348   .     S
C833   H861    1.069   .     S
C833   N865    1.363   .     A
C833   C895    1.413   .     S
C834   O878    1.293   .     A
C834   O877    1.286   .     A
C835   O880    1.294   .     A
C835   O879    1.292   .     A
C835   C837    1.449   .     S
C836   C854    1.396   .     A
C837   C853    1.399   .     A
C837   C854    1.403   .     A
C838   C845    1.439   .     S
C838   C839    1.409   .     A
C839   C273    1.391   1_556 S
C839   C279    1.445   1_556 S
C840   H863    1.081   .     S
C841   N866    1.158   .     T
C842   C852    1.404   .     A
C843   N867    1.157   .     T
C844   C853    1.454   .     S
C844   N868    1.157   .     T
C845   N869    1.154   .     T
C847   N871    1.158   .     T
C847   C852    1.443   .     S
C848   N872    1.157   .     T
C849   C853    1.390   .     A
C850   C851    1.396   .     A
C850   C269    1.403   1_556 S
C850   C282    1.417   1_556 S
C851   C852    1.391   .     A
C851   H862    1.079   .     S
C854   H859    1.083   .     S
F858   C269    1.357   1_556 S
N864   Zn881   2.019   .     S
N865   Zn882   2.019   .     S
N870   C909    1.157   .     S
O873   Zn881   2.015   .     S
O874   Zn882   2.004   .     S
O875   Zn881   1.989   .     S
O876   Zn882   1.955   .     S
O877   Zn881   2.004   .     S
O878   Zn882   2.015   .     S
O879   Zn881   1.955   .     S
O880   Zn882   1.989   .     S
C883   O936    1.291   .     A
C883   O937    1.295   .     A
C883   C891    1.447   .     S
C884   C886    1.495   .     S
C884   C905    1.415   .     A
C884   C901    1.417   .     A
C885   C891    1.411   .     A
C885   C911    1.447   .     S
C885   C1076   1.376   .     S
C886   O939    1.301   .     A
C886   O938    1.306   .     A
C887   C888    1.396   .     A
C887   H923    1.084   .     S
C888   C889    1.408   .     A
C888   C897    1.433   .     S
C889   C904    1.456   .     S
C890   C906    1.449   .     S
C890   C891    1.410   .     A
C890   C1078   1.378   .     S
C892   N928    1.368   .     A
C892   F918    1.354   .     S
C892   C767    1.420   1_655 S
C893   N927    1.369   .     A
C893   F919    1.355   .     S
C894   C905    1.400   .     A
C894   C336    1.407   1_556 S
C894   C345    1.414   1_556 S
C895   N927    1.363   .     A
C895   F920    1.348   .     S
C896   H924    1.069   .     S
C896   N928    1.363   .     A
C896   C769    1.413   1_655 S
C897   O941    1.293   .     A
C897   O940    1.286   .     A
C898   O943    1.294   .     A
C898   O942    1.292   .     A
C898   C900    1.449   .     S
C899   C917    1.396   .     A
C900   C916    1.399   .     A
C900   C917    1.403   .     A
C901   C908    1.439   .     S
C901   C902    1.409   .     A
C902   C336    1.391   1_556 S
C902   C342    1.445   1_556 S
C903   H926    1.081   .     S
C904   N929    1.158   .     T
C905   C915    1.404   .     A
C906   N930    1.157   .     T
C907   C916    1.454   .     S
C907   N931    1.157   .     T
C908   N932    1.154   .     T
C910   N934    1.158   .     T
C910   C915    1.443   .     S
C911   N935    1.157   .     T
C912   C916    1.390   .     A
C913   C914    1.396   .     A
C913   C332    1.403   1_556 S
C913   C345    1.417   1_556 S
C914   C915    1.391   .     A
C914   H925    1.079   .     S
C917   H922    1.083   .     S
F921   C332    1.357   1_556 S
N927   Zn944   2.019   .     S
N928   Zn945   2.019   .     S
N933   C783    1.157   1_655 S
O936   Zn944   2.015   .     S
O937   Zn945   2.004   .     S
O938   Zn944   1.989   .     S
O939   Zn945   1.955   .     S
O940   Zn944   2.004   .     S
O941   Zn945   2.015   .     S
O942   Zn944   1.955   .     S
O943   Zn945   1.989   .     S
C946   O999    1.291   .     A
C946   O1000   1.295   .     A
C946   C954    1.447   .     S
C947   C949    1.495   .     S
C947   C968    1.415   .     A
C947   C964    1.417   .     A
C948   C954    1.411   .     A
C948   C974    1.447   .     S
C948   C572    1.376   1_565 S
C949   O1002   1.301   .     A
C949   O1001   1.306   .     A
C950   C951    1.396   .     A
C950   H986    1.084   .     S
C951   C952    1.408   .     A
C951   C960    1.433   .     S
C952   C967    1.456   .     S
C953   C969    1.449   .     S
C953   C954    1.410   .     A
C953   C574    1.378   1_565 S
C955   N991    1.368   .     A
C955   F981    1.354   .     S
C955   C1019   1.420   .     S
C956   N990    1.369   .     A
C956   F982    1.355   .     S
C956   C1081   1.420   1_455 S
C957   C968    1.400   .     A
C957   C399    1.407   1_556 S
C957   C408    1.414   1_556 S
C958   N990    1.363   .     A
C958   F983    1.348   .     S
C958   C1085   1.413   1_455 S
C959   H987    1.069   .     S
C959   N991    1.363   .     A
C959   C1021   1.413   .     S
C960   O1004   1.293   .     A
C960   O1003   1.286   .     A
C961   O1006   1.294   .     A
C961   O1005   1.292   .     A
C961   C963    1.449   .     S
C962   C980    1.396   .     A
C963   C979    1.399   .     A
C963   C980    1.403   .     A
C964   C971    1.439   .     S
C964   C965    1.409   .     A
C965   C399    1.391   1_556 S
C965   C405    1.445   1_556 S
C966   H989    1.081   .     S
C967   N992    1.158   .     T
C968   C978    1.404   .     A
C969   N993    1.157   .     T
C970   C979    1.454   .     S
C970   N994    1.157   .     T
C971   N995    1.154   .     T
C972   N1122   1.157   1_455 S
C973   N997    1.158   .     T
C973   C978    1.443   .     S
C974   N998    1.157   .     T
C975   C979    1.390   .     A
C976   C977    1.396   .     A
C976   C395    1.403   1_556 S
C976   C408    1.417   1_556 S
C977   C978    1.391   .     A
C977   H988    1.079   .     S
C980   H985    1.083   .     S
F984   C395    1.357   1_556 S
N990   Zn1007  2.019   .     S
N991   Zn1008  2.019   .     S
N996   C1035   1.157   .     S
O999   Zn1007  2.015   .     S
O1000  Zn1008  2.004   .     S
O1001  Zn1007  1.989   .     S
O1002  Zn1008  1.955   .     S
O1003  Zn1007  2.004   .     S
O1004  Zn1008  2.015   .     S
O1005  Zn1007  1.955   .     S
O1006  Zn1008  1.989   .     S
C1009  O1062   1.291   .     A
C1009  O1063   1.295   .     A
C1009  C1017   1.447   .     S
C1010  C1012   1.495   .     S
C1010  C1031   1.415   .     A
C1010  C1027   1.417   .     A
C1011  C1017   1.411   .     A
C1011  C1037   1.447   .     S
C1011  C635    1.376   1_565 S
C1012  O1065   1.301   .     A
C1012  O1064   1.306   .     A
C1013  C1014   1.396   .     A
C1013  H1049   1.084   .     S
C1014  C1015   1.408   .     A
C1014  C1023   1.433   .     S
C1015  C1030   1.456   .     S
C1016  C1032   1.449   .     S
C1016  C1017   1.410   .     A
C1016  C637    1.378   1_565 S
C1018  N1054   1.368   .     A
C1018  F1044   1.354   .     S
C1018  C1082   1.420   .     S
C1019  N1053   1.369   .     A
C1019  F1045   1.355   .     S
C1020  C1031   1.400   .     A
C1020  C462    1.407   1_556 S
C1020  C471    1.414   1_556 S
C1021  N1053   1.363   .     A
C1021  F1046   1.348   .     S
C1022  H1050   1.069   .     S
C1022  N1054   1.363   .     A
C1022  C1084   1.413   .     S
C1023  O1067   1.293   .     A
C1023  O1066   1.286   .     A
C1024  O1069   1.294   .     A
C1024  O1068   1.292   .     A
C1024  C1026   1.449   .     S
C1025  C1043   1.396   .     A
C1026  C1042   1.399   .     A
C1026  C1043   1.403   .     A
C1027  C1034   1.439   .     S
C1027  C1028   1.409   .     A
C1028  C462    1.391   1_556 S
C1028  C468    1.445   1_556 S
C1029  H1052   1.081   .     S
C1030  N1055   1.158   .     T
C1031  C1041   1.404   .     A
C1032  N1056   1.157   .     T
C1033  C1042   1.454   .     S
C1033  N1057   1.157   .     T
C1034  N1058   1.154   .     T
C1036  N1060   1.158   .     T
C1036  C1041   1.443   .     S
C1037  N1061   1.157   .     T
C1038  C1042   1.390   .     A
C1039  C1040   1.396   .     A
C1039  C458    1.403   1_556 S
C1039  C471    1.417   1_556 S
C1040  C1041   1.391   .     A
C1040  H1051   1.079   .     S
C1043  H1048   1.083   .     S
F1047  C458    1.357   1_556 S
N1053  Zn1070  2.019   .     S
N1054  Zn1071  2.019   .     S
N1059  C1098   1.157   .     S
O1062  Zn1070  2.015   .     S
O1063  Zn1071  2.004   .     S
O1064  Zn1070  1.989   .     S
O1065  Zn1071  1.955   .     S
O1066  Zn1070  2.004   .     S
O1067  Zn1071  2.015   .     S
O1068  Zn1070  1.955   .     S
O1069  Zn1071  1.989   .     S
C1072  O1125   1.291   .     A
C1072  O1126   1.295   .     A
C1072  C1080   1.447   .     S
C1073  C1075   1.495   .     S
C1073  C1094   1.415   .     A
C1073  C1090   1.417   .     A
C1074  C1080   1.411   .     A
C1074  C1100   1.447   .     S
C1074  C698    1.376   1_565 S
C1075  O1128   1.301   .     A
C1075  O1127   1.306   .     A
C1076  C1077   1.396   .     A
C1076  H1112   1.084   .     S
C1077  C1078   1.408   .     A
C1077  C1086   1.433   .     S
C1078  C1093   1.456   .     S
C1079  C1095   1.449   .     S
C1079  C1080   1.410   .     A
C1079  C700    1.378   1_565 S
C1081  N1117   1.368   .     A
C1081  F1107   1.354   .     S
C1081  C956    1.420   1_655 S
C1082  N1116   1.369   .     A
C1082  F1108   1.355   .     S
C1083  C1094   1.400   .     A
C1083  C525    1.407   1_556 S
C1083  C534    1.414   1_556 S
C1084  N1116   1.363   .     A
C1084  F1109   1.348   .     S
C1085  H1113   1.069   .     S
C1085  N1117   1.363   .     A
C1085  C958    1.413   1_655 S
C1086  O1130   1.293   .     A
C1086  O1129   1.286   .     A
C1087  O1132   1.294   .     A
C1087  O1131   1.292   .     A
C1087  C1089   1.449   .     S
C1088  C1106   1.396   .     A
C1089  C1105   1.399   .     A
C1089  C1106   1.403   .     A
C1090  C1097   1.439   .     S
C1090  C1091   1.409   .     A
C1091  C525    1.391   1_556 S
C1091  C531    1.445   1_556 S
C1092  H1115   1.081   .     S
C1093  N1118   1.158   .     T
C1094  C1104   1.404   .     A
C1095  N1119   1.157   .     T
C1096  C1105   1.454   .     S
C1096  N1120   1.157   .     T
C1097  N1121   1.154   .     T
C1099  N1123   1.158   .     T
C1099  C1104   1.443   .     S
C1100  N1124   1.157   .     T
C1101  C1105   1.390   .     A
C1102  C1103   1.396   .     A
C1102  C521    1.403   1_556 S
C1102  C534    1.417   1_556 S
C1103  C1104   1.391   .     A
C1103  H1114   1.079   .     S
C1106  H1111   1.083   .     S
F1110  C521    1.357   1_556 S
N1116  Zn1133  2.019   .     S
N1117  Zn1134  2.019   .     S
N1122  C972    1.157   1_655 S
O1125  Zn1133  2.015   .     S
O1126  Zn1134  2.004   .     S
O1127  Zn1133  1.989   .     S
O1128  Zn1134  1.955   .     S
O1129  Zn1133  2.004   .     S
O1130  Zn1134  2.015   .     S
O1131  Zn1133  1.955   .     S
O1132  Zn1134  1.989   .     S
