data_str_m3_o2_o10_pcu_sym.56
_audit_creation_date              2020-01-03
_audit_creation_method            'Materials Studio'
_symmetry_space_group_name_H-M    'P1'
_symmetry_Int_Tables_number       1
_symmetry_cell_setting            triclinic
loop_
_symmetry_equiv_pos_as_xyz
  x,y,z
_cell_length_a                    25.7210
_cell_length_b                    30.0026
_cell_length_c                    28.3948
_cell_angle_alpha                 89.4493
_cell_angle_beta                  98.3404
_cell_angle_gamma                 90.5317
loop_
_atom_site_label
_atom_site_type_symbol
_atom_site_fract_x
_atom_site_fract_y
_atom_site_fract_z
_atom_site_U_iso_or_equiv
_atom_site_adp_type
_atom_site_occupancy
C1     C     0.16694   0.16418   0.25028   0.00000  Uiso   1.00
C2     C     0.14442   0.21521   0.44521   0.00000  Uiso   1.00
C3     C     0.16450   0.25107   0.02642   0.00000  Uiso   1.00
C4     C     0.16479   0.25157   0.47305   0.00000  Uiso   1.00
C5     C     0.06707   0.24964   0.23762   0.00000  Uiso   1.00
C6     C     0.26628   0.25002   0.26239   0.00000  Uiso   1.00
C7     C     0.01211   0.24841   0.23097   0.00000  Uiso   1.00
C8     C     0.32126   0.25064   0.26909   0.00000  Uiso   1.00
C9     C     0.20542   0.04759   0.28051   0.00000  Uiso   1.00
C10    C     0.15379   0.45482   0.20741   0.00000  Uiso   1.00
C11    C     0.20583   0.09392   0.28138   0.00000  Uiso   1.00
C12    C     0.16611   0.33625   0.24967   0.00000  Uiso   1.00
C13    C     0.15435   0.40856   0.20599   0.00000  Uiso   1.00
C14    C     0.16687   0.11671   0.25108   0.00000  Uiso   1.00
C15    C     0.16540   0.38449   0.24917   0.00000  Uiso   1.00
C16    C     0.12660   0.09428   0.22240   0.00000  Uiso   1.00
C17    C     0.17624   0.40685   0.29266   0.00000  Uiso   1.00
C18    C     0.12507   0.04834   0.22337   0.00000  Uiso   1.00
C19    C     0.17582   0.45277   0.29354   0.00000  Uiso   1.00
C20    C     0.16484   0.02494   0.25192   0.00000  Uiso   1.00
C21    C     0.16480   0.47677   0.25097   0.00000  Uiso   1.00
C22    C     0.24542   0.11124   0.35622   0.00000  Uiso   1.00
C23    C     0.12095   0.23533   0.04729   0.00000  Uiso   1.00
C24    C     0.17861   0.39193   0.13414   0.00000  Uiso   1.00
C25    C     0.04302   0.25723   0.00618   0.00000  Uiso   1.00
C26    C     0.32503   0.24100   0.47788   0.00000  Uiso   1.00
C27    C     0.16431   0.35514   0.47649   0.00000  Uiso   1.00
C28    C     0.18708   0.39873   0.49759   0.00000  Uiso   1.00
C29    C     0.28584   0.31223   0.11794   0.00000  Uiso   1.00
C30    C     0.06836   0.17463   0.37290   0.00000  Uiso   1.00
C31    C     0.18545   0.28791   0.44908   0.00000  Uiso   1.00
C32    C     0.12396   0.23369   0.09727   0.00000  Uiso   1.00
C33    C     0.18743   0.28550   0.39979   0.00000  Uiso   1.00
C34    C     0.20811   0.26850   0.10741   0.00000  Uiso   1.00
C35    C     0.14335   0.21574   0.39521   0.00000  Uiso   1.00
C36    C     0.20830   0.26687   0.05725   0.00000  Uiso   1.00
H37    H     0.32509   0.24538   0.19482   0.00000  Uiso   1.00
H38    H     0.20475   0.31276   0.38212   0.00000  Uiso   1.00
H39    H     0.24228   0.27758   0.04174   0.00000  Uiso   1.00
H40    H     0.12983   0.18618   0.46216   0.00000  Uiso   1.00
H41    H     0.20596   0.11899   0.36566   0.00000  Uiso   1.00
H42    H     0.27401   0.13464   0.37613   0.00000  Uiso   1.00
H43    H     0.25720   0.07690   0.36800   0.00000  Uiso   1.00
H44    H     0.16979   0.36878   0.10376   0.00000  Uiso   1.00
H45    H     0.21807   0.38309   0.15344   0.00000  Uiso   1.00
H46    H     0.17918   0.42632   0.11935   0.00000  Uiso   1.00
H47    H     0.06205   0.28078   0.48323   0.00000  Uiso   1.00
H48    H     0.00835   0.25350   0.30526   0.00000  Uiso   1.00
H49    H     0.03366   0.27527   0.03799   0.00000  Uiso   1.00
H50    H     0.30401   0.21860   0.00029   0.00000  Uiso   1.00
H51    H     0.29967   0.26994   0.46620   0.00000  Uiso   1.00
H52    H     0.33297   0.22262   0.44595   0.00000  Uiso   1.00
H53    H     0.13720   0.34120   0.00020   0.00000  Uiso   1.00
H54    H     0.14170   0.36259   0.44076   0.00000  Uiso   1.00
H55    H     0.21233   0.41454   0.47345   0.00000  Uiso   1.00
H56    H     0.15479   0.42185   0.00227   0.00000  Uiso   1.00
H57    H     0.21109   0.39246   0.03273   0.00000  Uiso   1.00
H58    H     0.26715   0.33792   0.09264   0.00000  Uiso   1.00
H59    H     0.23723   0.02939   0.30112   0.00000  Uiso   1.00
H60    H     0.31104   0.28943   0.10071   0.00000  Uiso   1.00
H61    H     0.31191   0.33007   0.14633   0.00000  Uiso   1.00
H62    H     0.04889   0.15475   0.34249   0.00000  Uiso   1.00
H63    H     0.06456   0.15557   0.40597   0.00000  Uiso   1.00
H64    H     0.04705   0.20683   0.37242   0.00000  Uiso   1.00
H65    H     0.14466   0.47355   0.17449   0.00000  Uiso   1.00
H66    H     0.09608   0.11239   0.19991   0.00000  Uiso   1.00
H67    H     0.18506   0.38892   0.32612   0.00000  Uiso   1.00
H68    H     0.09306   0.03110   0.20176   0.00000  Uiso   1.00
H69    H     0.18359   0.46954   0.32750   0.00000  Uiso   1.00
H70    H     0.09112   0.22035   0.11291   0.00000  Uiso   1.00
N71    N     0.16667   0.24999   0.12623   0.00000  Uiso   1.00
N72    N     0.16667   0.25001   0.37376   0.00000  Uiso   1.00
O73    O     0.16667   0.18454   0.28974   0.00000  Uiso   1.00
O74    O     0.13896   0.38692   0.16332   0.00000  Uiso   1.00
O75    O     0.07563   0.22030   0.01966   0.00000  Uiso   1.00
O76    O     0.20577   0.32537   0.47325   0.00000  Uiso   1.00
O77    O     0.24820   0.28783   0.13927   0.00000  Uiso   1.00
O78    O     0.12174   0.18057   0.36764   0.00000  Uiso   1.00
O79    O     0.16666   0.31547   0.21026   0.00000  Uiso   1.00
O80    O     0.16667   0.18453   0.21026   0.00000  Uiso   1.00
O81    O     0.16666   0.31547   0.28974   0.00000  Uiso   1.00
O82    O     0.09058   0.25000   0.28044   0.00000  Uiso   1.00
O83    O     0.24275   0.25000   0.21955   0.00000  Uiso   1.00
O84    O     0.09058   0.25000   0.20096   0.00000  Uiso   1.00
O85    O     0.24275   0.25001   0.29903   0.00000  Uiso   1.00
O86    O     0.24707   0.11726   0.30712   0.00000  Uiso   1.00
Zn87   Zn    0.16667   0.25001   0.30307   0.00000  Uiso   1.00
Zn88   Zn    0.16667   0.25000   0.19693   0.00000  Uiso   1.00
C89    C     0.50028   0.16418   0.25028   0.00000  Uiso   1.00
C90    C     0.47775   0.21521   0.44521   0.00000  Uiso   1.00
C91    C     0.49784   0.25107   0.02642   0.00000  Uiso   1.00
C92    C     0.49812   0.25157   0.47305   0.00000  Uiso   1.00
C93    C     0.40040   0.24964   0.23762   0.00000  Uiso   1.00
C94    C     0.59961   0.25002   0.26239   0.00000  Uiso   1.00
C95    C     0.34545   0.24841   0.23097   0.00000  Uiso   1.00
C96    C     0.65459   0.25064   0.26909   0.00000  Uiso   1.00
C97    C     0.53876   0.04759   0.28051   0.00000  Uiso   1.00
C98    C     0.48712   0.45482   0.20741   0.00000  Uiso   1.00
C99    C     0.53916   0.09392   0.28138   0.00000  Uiso   1.00
C100   C     0.49945   0.33625   0.24967   0.00000  Uiso   1.00
C101   C     0.48768   0.40856   0.20599   0.00000  Uiso   1.00
C102   C     0.50021   0.11671   0.25108   0.00000  Uiso   1.00
C103   C     0.49873   0.38449   0.24917   0.00000  Uiso   1.00
C104   C     0.45993   0.09428   0.22240   0.00000  Uiso   1.00
C105   C     0.50958   0.40685   0.29266   0.00000  Uiso   1.00
C106   C     0.45840   0.04834   0.22337   0.00000  Uiso   1.00
C107   C     0.50915   0.45277   0.29354   0.00000  Uiso   1.00
C108   C     0.49817   0.02494   0.25192   0.00000  Uiso   1.00
C109   C     0.49814   0.47677   0.25097   0.00000  Uiso   1.00
C110   C     0.57876   0.11124   0.35622   0.00000  Uiso   1.00
C111   C     0.45428   0.23533   0.04729   0.00000  Uiso   1.00
C112   C     0.51194   0.39193   0.13414   0.00000  Uiso   1.00
C113   C     0.37636   0.25723   0.00618   0.00000  Uiso   1.00
C114   C     0.65836   0.24100   0.47788   0.00000  Uiso   1.00
C115   C     0.49764   0.35514   0.47649   0.00000  Uiso   1.00
C116   C     0.52042   0.39873   0.49759   0.00000  Uiso   1.00
C117   C     0.61918   0.31223   0.11794   0.00000  Uiso   1.00
C118   C     0.40169   0.17463   0.37290   0.00000  Uiso   1.00
C119   C     0.51879   0.28791   0.44908   0.00000  Uiso   1.00
C120   C     0.45729   0.23369   0.09727   0.00000  Uiso   1.00
C121   C     0.52076   0.28550   0.39979   0.00000  Uiso   1.00
C122   C     0.54144   0.26850   0.10741   0.00000  Uiso   1.00
C123   C     0.47668   0.21574   0.39521   0.00000  Uiso   1.00
C124   C     0.54163   0.26687   0.05725   0.00000  Uiso   1.00
H125   H     0.65842   0.24538   0.19482   0.00000  Uiso   1.00
H126   H     0.53808   0.31276   0.38212   0.00000  Uiso   1.00
H127   H     0.57561   0.27758   0.04174   0.00000  Uiso   1.00
H128   H     0.46316   0.18618   0.46216   0.00000  Uiso   1.00
H129   H     0.53929   0.11899   0.36566   0.00000  Uiso   1.00
H130   H     0.60735   0.13464   0.37613   0.00000  Uiso   1.00
H131   H     0.59054   0.07690   0.36800   0.00000  Uiso   1.00
H132   H     0.50313   0.36878   0.10376   0.00000  Uiso   1.00
H133   H     0.55140   0.38309   0.15344   0.00000  Uiso   1.00
H134   H     0.51251   0.42632   0.11935   0.00000  Uiso   1.00
H135   H     0.39538   0.28078   0.48323   0.00000  Uiso   1.00
H136   H     0.34168   0.25350   0.30526   0.00000  Uiso   1.00
H137   H     0.36700   0.27527   0.03799   0.00000  Uiso   1.00
H138   H     0.63734   0.21860   0.00029   0.00000  Uiso   1.00
H139   H     0.63300   0.26994   0.46620   0.00000  Uiso   1.00
H140   H     0.66630   0.22262   0.44595   0.00000  Uiso   1.00
H141   H     0.47054   0.34120   0.00020   0.00000  Uiso   1.00
H142   H     0.47504   0.36259   0.44076   0.00000  Uiso   1.00
H143   H     0.54566   0.41454   0.47345   0.00000  Uiso   1.00
H144   H     0.48812   0.42185   0.00227   0.00000  Uiso   1.00
H145   H     0.54442   0.39246   0.03273   0.00000  Uiso   1.00
H146   H     0.60048   0.33792   0.09264   0.00000  Uiso   1.00
H147   H     0.57056   0.02939   0.30112   0.00000  Uiso   1.00
H148   H     0.64437   0.28943   0.10071   0.00000  Uiso   1.00
H149   H     0.64524   0.33007   0.14633   0.00000  Uiso   1.00
H150   H     0.38222   0.15475   0.34249   0.00000  Uiso   1.00
H151   H     0.39789   0.15557   0.40597   0.00000  Uiso   1.00
H152   H     0.38038   0.20683   0.37242   0.00000  Uiso   1.00
H153   H     0.47799   0.47355   0.17449   0.00000  Uiso   1.00
H154   H     0.42941   0.11239   0.19991   0.00000  Uiso   1.00
H155   H     0.51839   0.38892   0.32612   0.00000  Uiso   1.00
H156   H     0.42640   0.03110   0.20176   0.00000  Uiso   1.00
H157   H     0.51692   0.46954   0.32750   0.00000  Uiso   1.00
H158   H     0.42446   0.22035   0.11291   0.00000  Uiso   1.00
N159   N     0.50000   0.24999   0.12623   0.00000  Uiso   1.00
N160   N     0.50000   0.25001   0.37376   0.00000  Uiso   1.00
O161   O     0.50000   0.18454   0.28974   0.00000  Uiso   1.00
O162   O     0.47229   0.38692   0.16332   0.00000  Uiso   1.00
O163   O     0.40896   0.22030   0.01966   0.00000  Uiso   1.00
O164   O     0.53910   0.32537   0.47325   0.00000  Uiso   1.00
O165   O     0.58154   0.28783   0.13927   0.00000  Uiso   1.00
O166   O     0.45507   0.18057   0.36764   0.00000  Uiso   1.00
O167   O     0.50000   0.31547   0.21026   0.00000  Uiso   1.00
O168   O     0.50000   0.18453   0.21026   0.00000  Uiso   1.00
O169   O     0.50000   0.31547   0.28974   0.00000  Uiso   1.00
O170   O     0.42392   0.25000   0.28044   0.00000  Uiso   1.00
O171   O     0.57608   0.25000   0.21955   0.00000  Uiso   1.00
O172   O     0.42392   0.25000   0.20096   0.00000  Uiso   1.00
O173   O     0.57608   0.25001   0.29903   0.00000  Uiso   1.00
O174   O     0.58040   0.11726   0.30712   0.00000  Uiso   1.00
Zn175  Zn    0.50000   0.25001   0.30307   0.00000  Uiso   1.00
Zn176  Zn    0.50000   0.25000   0.19693   0.00000  Uiso   1.00
C177   C     0.83361   0.16418   0.25028   0.00000  Uiso   1.00
C178   C     0.81109   0.21521   0.44521   0.00000  Uiso   1.00
C179   C     0.83117   0.25107   0.02642   0.00000  Uiso   1.00
C180   C     0.83146   0.25157   0.47305   0.00000  Uiso   1.00
C181   C     0.73373   0.24964   0.23762   0.00000  Uiso   1.00
C182   C     0.93294   0.25002   0.26239   0.00000  Uiso   1.00
C183   C     0.67878   0.24841   0.23097   0.00000  Uiso   1.00
C184   C     0.98792   0.25064   0.26909   0.00000  Uiso   1.00
C185   C     0.87209   0.04759   0.28051   0.00000  Uiso   1.00
C186   C     0.82046   0.45482   0.20741   0.00000  Uiso   1.00
C187   C     0.87250   0.09392   0.28138   0.00000  Uiso   1.00
C188   C     0.83278   0.33625   0.24967   0.00000  Uiso   1.00
C189   C     0.82102   0.40856   0.20599   0.00000  Uiso   1.00
C190   C     0.83354   0.11671   0.25108   0.00000  Uiso   1.00
C191   C     0.83206   0.38449   0.24917   0.00000  Uiso   1.00
C192   C     0.79326   0.09428   0.22240   0.00000  Uiso   1.00
C193   C     0.84291   0.40685   0.29266   0.00000  Uiso   1.00
C194   C     0.79174   0.04834   0.22337   0.00000  Uiso   1.00
C195   C     0.84249   0.45277   0.29354   0.00000  Uiso   1.00
C196   C     0.83150   0.02494   0.25192   0.00000  Uiso   1.00
C197   C     0.83147   0.47677   0.25097   0.00000  Uiso   1.00
C198   C     0.91209   0.11124   0.35622   0.00000  Uiso   1.00
C199   C     0.78761   0.23533   0.04729   0.00000  Uiso   1.00
C200   C     0.84527   0.39193   0.13414   0.00000  Uiso   1.00
C201   C     0.70969   0.25723   0.00618   0.00000  Uiso   1.00
C202   C     0.99170   0.24100   0.47788   0.00000  Uiso   1.00
C203   C     0.83098   0.35514   0.47649   0.00000  Uiso   1.00
C204   C     0.85375   0.39873   0.49759   0.00000  Uiso   1.00
C205   C     0.95251   0.31223   0.11794   0.00000  Uiso   1.00
C206   C     0.73502   0.17463   0.37290   0.00000  Uiso   1.00
C207   C     0.85212   0.28791   0.44908   0.00000  Uiso   1.00
C208   C     0.79063   0.23369   0.09727   0.00000  Uiso   1.00
C209   C     0.85409   0.28550   0.39979   0.00000  Uiso   1.00
C210   C     0.87478   0.26850   0.10741   0.00000  Uiso   1.00
C211   C     0.81002   0.21574   0.39521   0.00000  Uiso   1.00
C212   C     0.87497   0.26687   0.05725   0.00000  Uiso   1.00
H213   H     0.99175   0.24538   0.19482   0.00000  Uiso   1.00
H214   H     0.87142   0.31276   0.38212   0.00000  Uiso   1.00
H215   H     0.90894   0.27758   0.04174   0.00000  Uiso   1.00
H216   H     0.79650   0.18618   0.46216   0.00000  Uiso   1.00
H217   H     0.87263   0.11899   0.36566   0.00000  Uiso   1.00
H218   H     0.94068   0.13464   0.37613   0.00000  Uiso   1.00
H219   H     0.92387   0.07690   0.36800   0.00000  Uiso   1.00
H220   H     0.83646   0.36878   0.10376   0.00000  Uiso   1.00
H221   H     0.88473   0.38309   0.15344   0.00000  Uiso   1.00
H222   H     0.84584   0.42632   0.11935   0.00000  Uiso   1.00
H223   H     0.72871   0.28078   0.48323   0.00000  Uiso   1.00
H224   H     0.67501   0.25350   0.30526   0.00000  Uiso   1.00
H225   H     0.70033   0.27527   0.03799   0.00000  Uiso   1.00
H226   H     0.97067   0.21860   0.00029   0.00000  Uiso   1.00
H227   H     0.96634   0.26994   0.46620   0.00000  Uiso   1.00
H228   H     0.99964   0.22262   0.44595   0.00000  Uiso   1.00
H229   H     0.80387   0.34120   0.00020   0.00000  Uiso   1.00
H230   H     0.80837   0.36259   0.44076   0.00000  Uiso   1.00
H231   H     0.87900   0.41454   0.47345   0.00000  Uiso   1.00
H232   H     0.82145   0.42185   0.00227   0.00000  Uiso   1.00
H233   H     0.87776   0.39246   0.03273   0.00000  Uiso   1.00
H234   H     0.93381   0.33792   0.09264   0.00000  Uiso   1.00
H235   H     0.90390   0.02939   0.30112   0.00000  Uiso   1.00
H236   H     0.97771   0.28943   0.10071   0.00000  Uiso   1.00
H237   H     0.97857   0.33007   0.14633   0.00000  Uiso   1.00
H238   H     0.71555   0.15475   0.34249   0.00000  Uiso   1.00
H239   H     0.73122   0.15557   0.40597   0.00000  Uiso   1.00
H240   H     0.71372   0.20683   0.37242   0.00000  Uiso   1.00
H241   H     0.81133   0.47355   0.17449   0.00000  Uiso   1.00
H242   H     0.76274   0.11239   0.19991   0.00000  Uiso   1.00
H243   H     0.85172   0.38892   0.32612   0.00000  Uiso   1.00
H244   H     0.75973   0.03110   0.20176   0.00000  Uiso   1.00
H245   H     0.85026   0.46954   0.32750   0.00000  Uiso   1.00
H246   H     0.75779   0.22035   0.11291   0.00000  Uiso   1.00
N247   N     0.83333   0.24999   0.12623   0.00000  Uiso   1.00
N248   N     0.83333   0.25001   0.37376   0.00000  Uiso   1.00
O249   O     0.83334   0.18454   0.28974   0.00000  Uiso   1.00
O250   O     0.80562   0.38692   0.16332   0.00000  Uiso   1.00
O251   O     0.74229   0.22030   0.01966   0.00000  Uiso   1.00
O252   O     0.87243   0.32537   0.47325   0.00000  Uiso   1.00
O253   O     0.91487   0.28783   0.13927   0.00000  Uiso   1.00
O254   O     0.78840   0.18057   0.36764   0.00000  Uiso   1.00
O255   O     0.83333   0.31547   0.21026   0.00000  Uiso   1.00
O256   O     0.83334   0.18453   0.21026   0.00000  Uiso   1.00
O257   O     0.83333   0.31547   0.28974   0.00000  Uiso   1.00
O258   O     0.75725   0.25000   0.28044   0.00000  Uiso   1.00
O259   O     0.90942   0.25000   0.21955   0.00000  Uiso   1.00
O260   O     0.75725   0.25000   0.20096   0.00000  Uiso   1.00
O261   O     0.90942   0.25001   0.29903   0.00000  Uiso   1.00
O262   O     0.91373   0.11726   0.30712   0.00000  Uiso   1.00
Zn263  Zn    0.83333   0.25001   0.30307   0.00000  Uiso   1.00
Zn264  Zn    0.83333   0.25000   0.19693   0.00000  Uiso   1.00
C265   C     0.16694   0.66418   0.25028   0.00000  Uiso   1.00
C266   C     0.14442   0.71521   0.44521   0.00000  Uiso   1.00
C267   C     0.16450   0.75107   0.02642   0.00000  Uiso   1.00
C268   C     0.16479   0.75157   0.47305   0.00000  Uiso   1.00
C269   C     0.06707   0.74964   0.23762   0.00000  Uiso   1.00
C270   C     0.26628   0.75002   0.26239   0.00000  Uiso   1.00
C271   C     0.01211   0.74841   0.23097   0.00000  Uiso   1.00
C272   C     0.32126   0.75064   0.26909   0.00000  Uiso   1.00
C273   C     0.20542   0.54759   0.28051   0.00000  Uiso   1.00
C274   C     0.15379   0.95482   0.20741   0.00000  Uiso   1.00
C275   C     0.20583   0.59392   0.28138   0.00000  Uiso   1.00
C276   C     0.16611   0.83625   0.24967   0.00000  Uiso   1.00
C277   C     0.15435   0.90856   0.20599   0.00000  Uiso   1.00
C278   C     0.16687   0.61671   0.25108   0.00000  Uiso   1.00
C279   C     0.16540   0.88449   0.24917   0.00000  Uiso   1.00
C280   C     0.12660   0.59428   0.22240   0.00000  Uiso   1.00
C281   C     0.17624   0.90685   0.29266   0.00000  Uiso   1.00
C282   C     0.12507   0.54834   0.22337   0.00000  Uiso   1.00
C283   C     0.17582   0.95277   0.29354   0.00000  Uiso   1.00
C284   C     0.16484   0.52494   0.25192   0.00000  Uiso   1.00
C285   C     0.16480   0.97677   0.25097   0.00000  Uiso   1.00
C286   C     0.24542   0.61124   0.35622   0.00000  Uiso   1.00
C287   C     0.12095   0.73533   0.04729   0.00000  Uiso   1.00
C288   C     0.17861   0.89193   0.13414   0.00000  Uiso   1.00
C289   C     0.04302   0.75723   0.00618   0.00000  Uiso   1.00
C290   C     0.32503   0.74100   0.47788   0.00000  Uiso   1.00
C291   C     0.16431   0.85514   0.47649   0.00000  Uiso   1.00
C292   C     0.18708   0.89873   0.49759   0.00000  Uiso   1.00
C293   C     0.28584   0.81223   0.11794   0.00000  Uiso   1.00
C294   C     0.06836   0.67463   0.37290   0.00000  Uiso   1.00
C295   C     0.18545   0.78791   0.44908   0.00000  Uiso   1.00
C296   C     0.12396   0.73369   0.09727   0.00000  Uiso   1.00
C297   C     0.18743   0.78550   0.39979   0.00000  Uiso   1.00
C298   C     0.20811   0.76850   0.10741   0.00000  Uiso   1.00
C299   C     0.14335   0.71574   0.39521   0.00000  Uiso   1.00
C300   C     0.20830   0.76687   0.05725   0.00000  Uiso   1.00
H301   H     0.32509   0.74538   0.19482   0.00000  Uiso   1.00
H302   H     0.20475   0.81276   0.38212   0.00000  Uiso   1.00
H303   H     0.24228   0.77758   0.04174   0.00000  Uiso   1.00
H304   H     0.12983   0.68618   0.46216   0.00000  Uiso   1.00
H305   H     0.20596   0.61899   0.36566   0.00000  Uiso   1.00
H306   H     0.27401   0.63464   0.37613   0.00000  Uiso   1.00
H307   H     0.25720   0.57690   0.36800   0.00000  Uiso   1.00
H308   H     0.16979   0.86878   0.10376   0.00000  Uiso   1.00
H309   H     0.21807   0.88309   0.15344   0.00000  Uiso   1.00
H310   H     0.17918   0.92632   0.11935   0.00000  Uiso   1.00
H311   H     0.06205   0.78078   0.48323   0.00000  Uiso   1.00
H312   H     0.00835   0.75350   0.30526   0.00000  Uiso   1.00
H313   H     0.03366   0.77527   0.03799   0.00000  Uiso   1.00
H314   H     0.30401   0.71860   0.00029   0.00000  Uiso   1.00
H315   H     0.29967   0.76994   0.46620   0.00000  Uiso   1.00
H316   H     0.33297   0.72262   0.44595   0.00000  Uiso   1.00
H317   H     0.13720   0.84120   0.00020   0.00000  Uiso   1.00
H318   H     0.14170   0.86259   0.44076   0.00000  Uiso   1.00
H319   H     0.21233   0.91454   0.47345   0.00000  Uiso   1.00
H320   H     0.15479   0.92185   0.00227   0.00000  Uiso   1.00
H321   H     0.21109   0.89246   0.03273   0.00000  Uiso   1.00
H322   H     0.26715   0.83792   0.09264   0.00000  Uiso   1.00
H323   H     0.23723   0.52939   0.30112   0.00000  Uiso   1.00
H324   H     0.31104   0.78943   0.10071   0.00000  Uiso   1.00
H325   H     0.31191   0.83007   0.14633   0.00000  Uiso   1.00
H326   H     0.04889   0.65475   0.34249   0.00000  Uiso   1.00
H327   H     0.06456   0.65557   0.40597   0.00000  Uiso   1.00
H328   H     0.04705   0.70683   0.37242   0.00000  Uiso   1.00
H329   H     0.14466   0.97355   0.17449   0.00000  Uiso   1.00
H330   H     0.09608   0.61239   0.19991   0.00000  Uiso   1.00
H331   H     0.18506   0.88892   0.32612   0.00000  Uiso   1.00
H332   H     0.09306   0.53110   0.20176   0.00000  Uiso   1.00
H333   H     0.18359   0.96954   0.32750   0.00000  Uiso   1.00
H334   H     0.09112   0.72035   0.11291   0.00000  Uiso   1.00
N335   N     0.16667   0.74999   0.12623   0.00000  Uiso   1.00
N336   N     0.16667   0.75001   0.37376   0.00000  Uiso   1.00
O337   O     0.16667   0.68454   0.28974   0.00000  Uiso   1.00
O338   O     0.13896   0.88692   0.16332   0.00000  Uiso   1.00
O339   O     0.07563   0.72030   0.01966   0.00000  Uiso   1.00
O340   O     0.20577   0.82537   0.47325   0.00000  Uiso   1.00
O341   O     0.24820   0.78783   0.13927   0.00000  Uiso   1.00
O342   O     0.12174   0.68057   0.36764   0.00000  Uiso   1.00
O343   O     0.16666   0.81547   0.21026   0.00000  Uiso   1.00
O344   O     0.16667   0.68453   0.21026   0.00000  Uiso   1.00
O345   O     0.16666   0.81547   0.28974   0.00000  Uiso   1.00
O346   O     0.09058   0.75000   0.28044   0.00000  Uiso   1.00
O347   O     0.24275   0.75000   0.21955   0.00000  Uiso   1.00
O348   O     0.09058   0.75000   0.20096   0.00000  Uiso   1.00
O349   O     0.24275   0.75001   0.29903   0.00000  Uiso   1.00
O350   O     0.24707   0.61726   0.30712   0.00000  Uiso   1.00
Zn351  Zn    0.16667   0.75001   0.30307   0.00000  Uiso   1.00
Zn352  Zn    0.16667   0.75000   0.19693   0.00000  Uiso   1.00
C353   C     0.50028   0.66418   0.25028   0.00000  Uiso   1.00
C354   C     0.47775   0.71521   0.44521   0.00000  Uiso   1.00
C355   C     0.49784   0.75107   0.02642   0.00000  Uiso   1.00
C356   C     0.49812   0.75157   0.47305   0.00000  Uiso   1.00
C357   C     0.40040   0.74964   0.23762   0.00000  Uiso   1.00
C358   C     0.59961   0.75002   0.26239   0.00000  Uiso   1.00
C359   C     0.34545   0.74841   0.23097   0.00000  Uiso   1.00
C360   C     0.65459   0.75064   0.26909   0.00000  Uiso   1.00
C361   C     0.53876   0.54759   0.28051   0.00000  Uiso   1.00
C362   C     0.48712   0.95482   0.20741   0.00000  Uiso   1.00
C363   C     0.53916   0.59392   0.28138   0.00000  Uiso   1.00
C364   C     0.49945   0.83625   0.24967   0.00000  Uiso   1.00
C365   C     0.48768   0.90856   0.20599   0.00000  Uiso   1.00
C366   C     0.50021   0.61671   0.25108   0.00000  Uiso   1.00
C367   C     0.49873   0.88449   0.24917   0.00000  Uiso   1.00
C368   C     0.45993   0.59428   0.22240   0.00000  Uiso   1.00
C369   C     0.50958   0.90685   0.29266   0.00000  Uiso   1.00
C370   C     0.45840   0.54834   0.22337   0.00000  Uiso   1.00
C371   C     0.50915   0.95277   0.29354   0.00000  Uiso   1.00
C372   C     0.49817   0.52494   0.25192   0.00000  Uiso   1.00
C373   C     0.49814   0.97677   0.25097   0.00000  Uiso   1.00
C374   C     0.57876   0.61124   0.35622   0.00000  Uiso   1.00
C375   C     0.45428   0.73533   0.04729   0.00000  Uiso   1.00
C376   C     0.51194   0.89193   0.13414   0.00000  Uiso   1.00
C377   C     0.37636   0.75723   0.00618   0.00000  Uiso   1.00
C378   C     0.65836   0.74100   0.47788   0.00000  Uiso   1.00
C379   C     0.49764   0.85514   0.47649   0.00000  Uiso   1.00
C380   C     0.52042   0.89873   0.49759   0.00000  Uiso   1.00
C381   C     0.61918   0.81223   0.11794   0.00000  Uiso   1.00
C382   C     0.40169   0.67463   0.37290   0.00000  Uiso   1.00
C383   C     0.51879   0.78791   0.44908   0.00000  Uiso   1.00
C384   C     0.45729   0.73369   0.09727   0.00000  Uiso   1.00
C385   C     0.52076   0.78550   0.39979   0.00000  Uiso   1.00
C386   C     0.54144   0.76850   0.10741   0.00000  Uiso   1.00
C387   C     0.47668   0.71574   0.39521   0.00000  Uiso   1.00
C388   C     0.54163   0.76687   0.05725   0.00000  Uiso   1.00
H389   H     0.65842   0.74538   0.19482   0.00000  Uiso   1.00
H390   H     0.53808   0.81276   0.38212   0.00000  Uiso   1.00
H391   H     0.57561   0.77758   0.04174   0.00000  Uiso   1.00
H392   H     0.46316   0.68618   0.46216   0.00000  Uiso   1.00
H393   H     0.53929   0.61899   0.36566   0.00000  Uiso   1.00
H394   H     0.60735   0.63464   0.37613   0.00000  Uiso   1.00
H395   H     0.59054   0.57690   0.36800   0.00000  Uiso   1.00
H396   H     0.50313   0.86878   0.10376   0.00000  Uiso   1.00
H397   H     0.55140   0.88309   0.15344   0.00000  Uiso   1.00
H398   H     0.51251   0.92632   0.11935   0.00000  Uiso   1.00
H399   H     0.39538   0.78078   0.48323   0.00000  Uiso   1.00
H400   H     0.34168   0.75350   0.30526   0.00000  Uiso   1.00
H401   H     0.36700   0.77527   0.03799   0.00000  Uiso   1.00
H402   H     0.63734   0.71860   0.00029   0.00000  Uiso   1.00
H403   H     0.63300   0.76994   0.46620   0.00000  Uiso   1.00
H404   H     0.66630   0.72262   0.44595   0.00000  Uiso   1.00
H405   H     0.47054   0.84120   0.00020   0.00000  Uiso   1.00
H406   H     0.47504   0.86259   0.44076   0.00000  Uiso   1.00
H407   H     0.54566   0.91454   0.47345   0.00000  Uiso   1.00
H408   H     0.48812   0.92185   0.00227   0.00000  Uiso   1.00
H409   H     0.54442   0.89246   0.03273   0.00000  Uiso   1.00
H410   H     0.60048   0.83792   0.09264   0.00000  Uiso   1.00
H411   H     0.57056   0.52939   0.30112   0.00000  Uiso   1.00
H412   H     0.64437   0.78943   0.10071   0.00000  Uiso   1.00
H413   H     0.64524   0.83007   0.14633   0.00000  Uiso   1.00
H414   H     0.38222   0.65475   0.34249   0.00000  Uiso   1.00
H415   H     0.39789   0.65557   0.40597   0.00000  Uiso   1.00
H416   H     0.38038   0.70683   0.37242   0.00000  Uiso   1.00
H417   H     0.47799   0.97355   0.17449   0.00000  Uiso   1.00
H418   H     0.42941   0.61239   0.19991   0.00000  Uiso   1.00
H419   H     0.51839   0.88892   0.32612   0.00000  Uiso   1.00
H420   H     0.42640   0.53110   0.20176   0.00000  Uiso   1.00
H421   H     0.51692   0.96954   0.32750   0.00000  Uiso   1.00
H422   H     0.42446   0.72035   0.11291   0.00000  Uiso   1.00
N423   N     0.50000   0.74999   0.12623   0.00000  Uiso   1.00
N424   N     0.50000   0.75001   0.37376   0.00000  Uiso   1.00
O425   O     0.50000   0.68454   0.28974   0.00000  Uiso   1.00
O426   O     0.47229   0.88692   0.16332   0.00000  Uiso   1.00
O427   O     0.40896   0.72030   0.01966   0.00000  Uiso   1.00
O428   O     0.53910   0.82537   0.47325   0.00000  Uiso   1.00
O429   O     0.58154   0.78783   0.13927   0.00000  Uiso   1.00
O430   O     0.45507   0.68057   0.36764   0.00000  Uiso   1.00
O431   O     0.50000   0.81547   0.21026   0.00000  Uiso   1.00
O432   O     0.50000   0.68453   0.21026   0.00000  Uiso   1.00
O433   O     0.50000   0.81547   0.28974   0.00000  Uiso   1.00
O434   O     0.42392   0.75000   0.28044   0.00000  Uiso   1.00
O435   O     0.57608   0.75000   0.21955   0.00000  Uiso   1.00
O436   O     0.42392   0.75000   0.20096   0.00000  Uiso   1.00
O437   O     0.57608   0.75001   0.29903   0.00000  Uiso   1.00
O438   O     0.58040   0.61726   0.30712   0.00000  Uiso   1.00
Zn439  Zn    0.50000   0.75001   0.30307   0.00000  Uiso   1.00
Zn440  Zn    0.50000   0.75000   0.19693   0.00000  Uiso   1.00
C441   C     0.83361   0.66418   0.25028   0.00000  Uiso   1.00
C442   C     0.81109   0.71521   0.44521   0.00000  Uiso   1.00
C443   C     0.83117   0.75107   0.02642   0.00000  Uiso   1.00
C444   C     0.83146   0.75157   0.47305   0.00000  Uiso   1.00
C445   C     0.73373   0.74964   0.23762   0.00000  Uiso   1.00
C446   C     0.93294   0.75002   0.26239   0.00000  Uiso   1.00
C447   C     0.67878   0.74841   0.23097   0.00000  Uiso   1.00
C448   C     0.98792   0.75064   0.26909   0.00000  Uiso   1.00
C449   C     0.87209   0.54759   0.28051   0.00000  Uiso   1.00
C450   C     0.82046   0.95482   0.20741   0.00000  Uiso   1.00
C451   C     0.87250   0.59392   0.28138   0.00000  Uiso   1.00
C452   C     0.83278   0.83625   0.24967   0.00000  Uiso   1.00
C453   C     0.82102   0.90856   0.20599   0.00000  Uiso   1.00
C454   C     0.83354   0.61671   0.25108   0.00000  Uiso   1.00
C455   C     0.83206   0.88449   0.24917   0.00000  Uiso   1.00
C456   C     0.79326   0.59428   0.22240   0.00000  Uiso   1.00
C457   C     0.84291   0.90685   0.29266   0.00000  Uiso   1.00
C458   C     0.79174   0.54834   0.22337   0.00000  Uiso   1.00
C459   C     0.84249   0.95277   0.29354   0.00000  Uiso   1.00
C460   C     0.83150   0.52494   0.25192   0.00000  Uiso   1.00
C461   C     0.83147   0.97677   0.25097   0.00000  Uiso   1.00
C462   C     0.91209   0.61124   0.35622   0.00000  Uiso   1.00
C463   C     0.78761   0.73533   0.04729   0.00000  Uiso   1.00
C464   C     0.84527   0.89193   0.13414   0.00000  Uiso   1.00
C465   C     0.70969   0.75723   0.00618   0.00000  Uiso   1.00
C466   C     0.99170   0.74100   0.47788   0.00000  Uiso   1.00
C467   C     0.83098   0.85514   0.47649   0.00000  Uiso   1.00
C468   C     0.85375   0.89873   0.49759   0.00000  Uiso   1.00
C469   C     0.95251   0.81223   0.11794   0.00000  Uiso   1.00
C470   C     0.73502   0.67463   0.37290   0.00000  Uiso   1.00
C471   C     0.85212   0.78791   0.44908   0.00000  Uiso   1.00
C472   C     0.79063   0.73369   0.09727   0.00000  Uiso   1.00
C473   C     0.85409   0.78550   0.39979   0.00000  Uiso   1.00
C474   C     0.87478   0.76850   0.10741   0.00000  Uiso   1.00
C475   C     0.81002   0.71574   0.39521   0.00000  Uiso   1.00
C476   C     0.87497   0.76687   0.05725   0.00000  Uiso   1.00
H477   H     0.99175   0.74538   0.19482   0.00000  Uiso   1.00
H478   H     0.87142   0.81276   0.38212   0.00000  Uiso   1.00
H479   H     0.90894   0.77758   0.04174   0.00000  Uiso   1.00
H480   H     0.79650   0.68618   0.46216   0.00000  Uiso   1.00
H481   H     0.87263   0.61899   0.36566   0.00000  Uiso   1.00
H482   H     0.94068   0.63464   0.37613   0.00000  Uiso   1.00
H483   H     0.92387   0.57690   0.36800   0.00000  Uiso   1.00
H484   H     0.83646   0.86878   0.10376   0.00000  Uiso   1.00
H485   H     0.88473   0.88309   0.15344   0.00000  Uiso   1.00
H486   H     0.84584   0.92632   0.11935   0.00000  Uiso   1.00
H487   H     0.72871   0.78078   0.48323   0.00000  Uiso   1.00
H488   H     0.67501   0.75350   0.30526   0.00000  Uiso   1.00
H489   H     0.70033   0.77527   0.03799   0.00000  Uiso   1.00
H490   H     0.97067   0.71860   0.00029   0.00000  Uiso   1.00
H491   H     0.96634   0.76994   0.46620   0.00000  Uiso   1.00
H492   H     0.99964   0.72262   0.44595   0.00000  Uiso   1.00
H493   H     0.80387   0.84120   0.00020   0.00000  Uiso   1.00
H494   H     0.80837   0.86259   0.44076   0.00000  Uiso   1.00
H495   H     0.87900   0.91454   0.47345   0.00000  Uiso   1.00
H496   H     0.82145   0.92185   0.00227   0.00000  Uiso   1.00
H497   H     0.87776   0.89246   0.03273   0.00000  Uiso   1.00
H498   H     0.93381   0.83792   0.09264   0.00000  Uiso   1.00
H499   H     0.90390   0.52939   0.30112   0.00000  Uiso   1.00
H500   H     0.97771   0.78943   0.10071   0.00000  Uiso   1.00
H501   H     0.97857   0.83007   0.14633   0.00000  Uiso   1.00
H502   H     0.71555   0.65475   0.34249   0.00000  Uiso   1.00
H503   H     0.73122   0.65557   0.40597   0.00000  Uiso   1.00
H504   H     0.71372   0.70683   0.37242   0.00000  Uiso   1.00
H505   H     0.81133   0.97355   0.17449   0.00000  Uiso   1.00
H506   H     0.76274   0.61239   0.19991   0.00000  Uiso   1.00
H507   H     0.85172   0.88892   0.32612   0.00000  Uiso   1.00
H508   H     0.75973   0.53110   0.20176   0.00000  Uiso   1.00
H509   H     0.85026   0.96954   0.32750   0.00000  Uiso   1.00
H510   H     0.75779   0.72035   0.11291   0.00000  Uiso   1.00
N511   N     0.83333   0.74999   0.12623   0.00000  Uiso   1.00
N512   N     0.83333   0.75001   0.37376   0.00000  Uiso   1.00
O513   O     0.83334   0.68454   0.28974   0.00000  Uiso   1.00
O514   O     0.80562   0.88692   0.16332   0.00000  Uiso   1.00
O515   O     0.74229   0.72030   0.01966   0.00000  Uiso   1.00
O516   O     0.87243   0.82537   0.47325   0.00000  Uiso   1.00
O517   O     0.91487   0.78783   0.13927   0.00000  Uiso   1.00
O518   O     0.78840   0.68057   0.36764   0.00000  Uiso   1.00
O519   O     0.83333   0.81547   0.21026   0.00000  Uiso   1.00
O520   O     0.83334   0.68453   0.21026   0.00000  Uiso   1.00
O521   O     0.83333   0.81547   0.28974   0.00000  Uiso   1.00
O522   O     0.75725   0.75000   0.28044   0.00000  Uiso   1.00
O523   O     0.90942   0.75000   0.21955   0.00000  Uiso   1.00
O524   O     0.75725   0.75000   0.20096   0.00000  Uiso   1.00
O525   O     0.90942   0.75001   0.29903   0.00000  Uiso   1.00
O526   O     0.91373   0.61726   0.30712   0.00000  Uiso   1.00
Zn527  Zn    0.83333   0.75001   0.30307   0.00000  Uiso   1.00
Zn528  Zn    0.83333   0.75000   0.19693   0.00000  Uiso   1.00
C529   C     0.16694   0.16418   0.75028   0.00000  Uiso   1.00
C530   C     0.14442   0.21521   0.94521   0.00000  Uiso   1.00
C531   C     0.16450   0.25107   0.52642   0.00000  Uiso   1.00
C532   C     0.16479   0.25157   0.97305   0.00000  Uiso   1.00
C533   C     0.06707   0.24964   0.73762   0.00000  Uiso   1.00
C534   C     0.26628   0.25002   0.76239   0.00000  Uiso   1.00
C535   C     0.01211   0.24841   0.73097   0.00000  Uiso   1.00
C536   C     0.32126   0.25064   0.76909   0.00000  Uiso   1.00
C537   C     0.20542   0.04759   0.78051   0.00000  Uiso   1.00
C538   C     0.15379   0.45482   0.70741   0.00000  Uiso   1.00
C539   C     0.20583   0.09392   0.78138   0.00000  Uiso   1.00
C540   C     0.16611   0.33625   0.74967   0.00000  Uiso   1.00
C541   C     0.15435   0.40856   0.70599   0.00000  Uiso   1.00
C542   C     0.16687   0.11671   0.75108   0.00000  Uiso   1.00
C543   C     0.16540   0.38449   0.74917   0.00000  Uiso   1.00
C544   C     0.12660   0.09428   0.72240   0.00000  Uiso   1.00
C545   C     0.17624   0.40685   0.79266   0.00000  Uiso   1.00
C546   C     0.12507   0.04834   0.72337   0.00000  Uiso   1.00
C547   C     0.17582   0.45277   0.79354   0.00000  Uiso   1.00
C548   C     0.16484   0.02494   0.75192   0.00000  Uiso   1.00
C549   C     0.16480   0.47677   0.75097   0.00000  Uiso   1.00
C550   C     0.24542   0.11124   0.85622   0.00000  Uiso   1.00
C551   C     0.12095   0.23533   0.54729   0.00000  Uiso   1.00
C552   C     0.17861   0.39193   0.63414   0.00000  Uiso   1.00
C553   C     0.04302   0.25723   0.50618   0.00000  Uiso   1.00
C554   C     0.32503   0.24100   0.97788   0.00000  Uiso   1.00
C555   C     0.16431   0.35514   0.97649   0.00000  Uiso   1.00
C556   C     0.18708   0.39873   0.99759   0.00000  Uiso   1.00
C557   C     0.28584   0.31223   0.61794   0.00000  Uiso   1.00
C558   C     0.06836   0.17463   0.87290   0.00000  Uiso   1.00
C559   C     0.18545   0.28791   0.94908   0.00000  Uiso   1.00
C560   C     0.12396   0.23369   0.59727   0.00000  Uiso   1.00
C561   C     0.18743   0.28550   0.89979   0.00000  Uiso   1.00
C562   C     0.20811   0.26850   0.60741   0.00000  Uiso   1.00
C563   C     0.14335   0.21574   0.89521   0.00000  Uiso   1.00
C564   C     0.20830   0.26687   0.55725   0.00000  Uiso   1.00
H565   H     0.32509   0.24538   0.69482   0.00000  Uiso   1.00
H566   H     0.20475   0.31276   0.88212   0.00000  Uiso   1.00
H567   H     0.24228   0.27758   0.54174   0.00000  Uiso   1.00
H568   H     0.12983   0.18618   0.96216   0.00000  Uiso   1.00
H569   H     0.20596   0.11899   0.86566   0.00000  Uiso   1.00
H570   H     0.27401   0.13464   0.87613   0.00000  Uiso   1.00
H571   H     0.25720   0.07690   0.86800   0.00000  Uiso   1.00
H572   H     0.16979   0.36878   0.60376   0.00000  Uiso   1.00
H573   H     0.21807   0.38309   0.65344   0.00000  Uiso   1.00
H574   H     0.17918   0.42632   0.61935   0.00000  Uiso   1.00
H575   H     0.06205   0.28078   0.98323   0.00000  Uiso   1.00
H576   H     0.00835   0.25350   0.80526   0.00000  Uiso   1.00
H577   H     0.03366   0.27527   0.53799   0.00000  Uiso   1.00
H578   H     0.30401   0.21860   0.50029   0.00000  Uiso   1.00
H579   H     0.29967   0.26994   0.96620   0.00000  Uiso   1.00
H580   H     0.33297   0.22262   0.94595   0.00000  Uiso   1.00
H581   H     0.13720   0.34120   0.50020   0.00000  Uiso   1.00
H582   H     0.14170   0.36259   0.94076   0.00000  Uiso   1.00
H583   H     0.21233   0.41454   0.97345   0.00000  Uiso   1.00
H584   H     0.15479   0.42185   0.50227   0.00000  Uiso   1.00
H585   H     0.21109   0.39246   0.53273   0.00000  Uiso   1.00
H586   H     0.26715   0.33792   0.59264   0.00000  Uiso   1.00
H587   H     0.23723   0.02939   0.80112   0.00000  Uiso   1.00
H588   H     0.31104   0.28943   0.60071   0.00000  Uiso   1.00
H589   H     0.31191   0.33007   0.64633   0.00000  Uiso   1.00
H590   H     0.04889   0.15475   0.84249   0.00000  Uiso   1.00
H591   H     0.06456   0.15557   0.90597   0.00000  Uiso   1.00
H592   H     0.04705   0.20683   0.87242   0.00000  Uiso   1.00
H593   H     0.14466   0.47355   0.67449   0.00000  Uiso   1.00
H594   H     0.09608   0.11239   0.69991   0.00000  Uiso   1.00
H595   H     0.18506   0.38892   0.82612   0.00000  Uiso   1.00
H596   H     0.09306   0.03110   0.70176   0.00000  Uiso   1.00
H597   H     0.18359   0.46954   0.82750   0.00000  Uiso   1.00
H598   H     0.09112   0.22035   0.61291   0.00000  Uiso   1.00
N599   N     0.16667   0.24999   0.62623   0.00000  Uiso   1.00
N600   N     0.16667   0.25001   0.87376   0.00000  Uiso   1.00
O601   O     0.16667   0.18454   0.78974   0.00000  Uiso   1.00
O602   O     0.13896   0.38692   0.66332   0.00000  Uiso   1.00
O603   O     0.07563   0.22030   0.51966   0.00000  Uiso   1.00
O604   O     0.20577   0.32537   0.97325   0.00000  Uiso   1.00
O605   O     0.24820   0.28783   0.63927   0.00000  Uiso   1.00
O606   O     0.12174   0.18057   0.86764   0.00000  Uiso   1.00
O607   O     0.16666   0.31547   0.71026   0.00000  Uiso   1.00
O608   O     0.16667   0.18453   0.71026   0.00000  Uiso   1.00
O609   O     0.16666   0.31547   0.78974   0.00000  Uiso   1.00
O610   O     0.09058   0.25000   0.78044   0.00000  Uiso   1.00
O611   O     0.24275   0.25000   0.71955   0.00000  Uiso   1.00
O612   O     0.09058   0.25000   0.70096   0.00000  Uiso   1.00
O613   O     0.24275   0.25001   0.79903   0.00000  Uiso   1.00
O614   O     0.24707   0.11726   0.80712   0.00000  Uiso   1.00
Zn615  Zn    0.16667   0.25001   0.80307   0.00000  Uiso   1.00
Zn616  Zn    0.16667   0.25000   0.69693   0.00000  Uiso   1.00
C617   C     0.50028   0.16418   0.75028   0.00000  Uiso   1.00
C618   C     0.47775   0.21521   0.94521   0.00000  Uiso   1.00
C619   C     0.49784   0.25107   0.52642   0.00000  Uiso   1.00
C620   C     0.49812   0.25157   0.97305   0.00000  Uiso   1.00
C621   C     0.40040   0.24964   0.73762   0.00000  Uiso   1.00
C622   C     0.59961   0.25002   0.76239   0.00000  Uiso   1.00
C623   C     0.34545   0.24841   0.73097   0.00000  Uiso   1.00
C624   C     0.65459   0.25064   0.76909   0.00000  Uiso   1.00
C625   C     0.53876   0.04759   0.78051   0.00000  Uiso   1.00
C626   C     0.48712   0.45482   0.70741   0.00000  Uiso   1.00
C627   C     0.53916   0.09392   0.78138   0.00000  Uiso   1.00
C628   C     0.49945   0.33625   0.74967   0.00000  Uiso   1.00
C629   C     0.48768   0.40856   0.70599   0.00000  Uiso   1.00
C630   C     0.50021   0.11671   0.75108   0.00000  Uiso   1.00
C631   C     0.49873   0.38449   0.74917   0.00000  Uiso   1.00
C632   C     0.45993   0.09428   0.72240   0.00000  Uiso   1.00
C633   C     0.50958   0.40685   0.79266   0.00000  Uiso   1.00
C634   C     0.45840   0.04834   0.72337   0.00000  Uiso   1.00
C635   C     0.50915   0.45277   0.79354   0.00000  Uiso   1.00
C636   C     0.49817   0.02494   0.75192   0.00000  Uiso   1.00
C637   C     0.49814   0.47677   0.75097   0.00000  Uiso   1.00
C638   C     0.57876   0.11124   0.85622   0.00000  Uiso   1.00
C639   C     0.45428   0.23533   0.54729   0.00000  Uiso   1.00
C640   C     0.51194   0.39193   0.63414   0.00000  Uiso   1.00
C641   C     0.37636   0.25723   0.50618   0.00000  Uiso   1.00
C642   C     0.65836   0.24100   0.97788   0.00000  Uiso   1.00
C643   C     0.49764   0.35514   0.97649   0.00000  Uiso   1.00
C644   C     0.52042   0.39873   0.99759   0.00000  Uiso   1.00
C645   C     0.61918   0.31223   0.61794   0.00000  Uiso   1.00
C646   C     0.40169   0.17463   0.87290   0.00000  Uiso   1.00
C647   C     0.51879   0.28791   0.94908   0.00000  Uiso   1.00
C648   C     0.45729   0.23369   0.59727   0.00000  Uiso   1.00
C649   C     0.52076   0.28550   0.89979   0.00000  Uiso   1.00
C650   C     0.54144   0.26850   0.60741   0.00000  Uiso   1.00
C651   C     0.47668   0.21574   0.89521   0.00000  Uiso   1.00
C652   C     0.54163   0.26687   0.55725   0.00000  Uiso   1.00
H653   H     0.65842   0.24538   0.69482   0.00000  Uiso   1.00
H654   H     0.53808   0.31276   0.88212   0.00000  Uiso   1.00
H655   H     0.57561   0.27758   0.54174   0.00000  Uiso   1.00
H656   H     0.46316   0.18618   0.96216   0.00000  Uiso   1.00
H657   H     0.53929   0.11899   0.86566   0.00000  Uiso   1.00
H658   H     0.60735   0.13464   0.87613   0.00000  Uiso   1.00
H659   H     0.59054   0.07690   0.86800   0.00000  Uiso   1.00
H660   H     0.50313   0.36878   0.60376   0.00000  Uiso   1.00
H661   H     0.55140   0.38309   0.65344   0.00000  Uiso   1.00
H662   H     0.51251   0.42632   0.61935   0.00000  Uiso   1.00
H663   H     0.39538   0.28078   0.98323   0.00000  Uiso   1.00
H664   H     0.34168   0.25350   0.80526   0.00000  Uiso   1.00
H665   H     0.36700   0.27527   0.53799   0.00000  Uiso   1.00
H666   H     0.63734   0.21860   0.50029   0.00000  Uiso   1.00
H667   H     0.63300   0.26994   0.96620   0.00000  Uiso   1.00
H668   H     0.66630   0.22262   0.94595   0.00000  Uiso   1.00
H669   H     0.47054   0.34120   0.50020   0.00000  Uiso   1.00
H670   H     0.47504   0.36259   0.94076   0.00000  Uiso   1.00
H671   H     0.54566   0.41454   0.97345   0.00000  Uiso   1.00
H672   H     0.48812   0.42185   0.50227   0.00000  Uiso   1.00
H673   H     0.54442   0.39246   0.53273   0.00000  Uiso   1.00
H674   H     0.60048   0.33792   0.59264   0.00000  Uiso   1.00
H675   H     0.57056   0.02939   0.80112   0.00000  Uiso   1.00
H676   H     0.64437   0.28943   0.60071   0.00000  Uiso   1.00
H677   H     0.64524   0.33007   0.64633   0.00000  Uiso   1.00
H678   H     0.38222   0.15475   0.84249   0.00000  Uiso   1.00
H679   H     0.39789   0.15557   0.90597   0.00000  Uiso   1.00
H680   H     0.38038   0.20683   0.87242   0.00000  Uiso   1.00
H681   H     0.47799   0.47355   0.67449   0.00000  Uiso   1.00
H682   H     0.42941   0.11239   0.69991   0.00000  Uiso   1.00
H683   H     0.51839   0.38892   0.82612   0.00000  Uiso   1.00
H684   H     0.42640   0.03110   0.70176   0.00000  Uiso   1.00
H685   H     0.51692   0.46954   0.82750   0.00000  Uiso   1.00
H686   H     0.42446   0.22035   0.61291   0.00000  Uiso   1.00
N687   N     0.50000   0.24999   0.62623   0.00000  Uiso   1.00
N688   N     0.50000   0.25001   0.87376   0.00000  Uiso   1.00
O689   O     0.50000   0.18454   0.78974   0.00000  Uiso   1.00
O690   O     0.47229   0.38692   0.66332   0.00000  Uiso   1.00
O691   O     0.40896   0.22030   0.51966   0.00000  Uiso   1.00
O692   O     0.53910   0.32537   0.97325   0.00000  Uiso   1.00
O693   O     0.58154   0.28783   0.63927   0.00000  Uiso   1.00
O694   O     0.45507   0.18057   0.86764   0.00000  Uiso   1.00
O695   O     0.50000   0.31547   0.71026   0.00000  Uiso   1.00
O696   O     0.50000   0.18453   0.71026   0.00000  Uiso   1.00
O697   O     0.50000   0.31547   0.78974   0.00000  Uiso   1.00
O698   O     0.42392   0.25000   0.78044   0.00000  Uiso   1.00
O699   O     0.57608   0.25000   0.71955   0.00000  Uiso   1.00
O700   O     0.42392   0.25000   0.70096   0.00000  Uiso   1.00
O701   O     0.57608   0.25001   0.79903   0.00000  Uiso   1.00
O702   O     0.58040   0.11726   0.80712   0.00000  Uiso   1.00
Zn703  Zn    0.50000   0.25001   0.80307   0.00000  Uiso   1.00
Zn704  Zn    0.50000   0.25000   0.69693   0.00000  Uiso   1.00
C705   C     0.83361   0.16418   0.75028   0.00000  Uiso   1.00
C706   C     0.81109   0.21521   0.94521   0.00000  Uiso   1.00
C707   C     0.83117   0.25107   0.52642   0.00000  Uiso   1.00
C708   C     0.83146   0.25157   0.97305   0.00000  Uiso   1.00
C709   C     0.73373   0.24964   0.73762   0.00000  Uiso   1.00
C710   C     0.93294   0.25002   0.76239   0.00000  Uiso   1.00
C711   C     0.67878   0.24841   0.73097   0.00000  Uiso   1.00
C712   C     0.98792   0.25064   0.76909   0.00000  Uiso   1.00
C713   C     0.87209   0.04759   0.78051   0.00000  Uiso   1.00
C714   C     0.82046   0.45482   0.70741   0.00000  Uiso   1.00
C715   C     0.87250   0.09392   0.78138   0.00000  Uiso   1.00
C716   C     0.83278   0.33625   0.74967   0.00000  Uiso   1.00
C717   C     0.82102   0.40856   0.70599   0.00000  Uiso   1.00
C718   C     0.83354   0.11671   0.75108   0.00000  Uiso   1.00
C719   C     0.83206   0.38449   0.74917   0.00000  Uiso   1.00
C720   C     0.79326   0.09428   0.72240   0.00000  Uiso   1.00
C721   C     0.84291   0.40685   0.79266   0.00000  Uiso   1.00
C722   C     0.79174   0.04834   0.72337   0.00000  Uiso   1.00
C723   C     0.84249   0.45277   0.79354   0.00000  Uiso   1.00
C724   C     0.83150   0.02494   0.75192   0.00000  Uiso   1.00
C725   C     0.83147   0.47677   0.75097   0.00000  Uiso   1.00
C726   C     0.91209   0.11124   0.85622   0.00000  Uiso   1.00
C727   C     0.78761   0.23533   0.54729   0.00000  Uiso   1.00
C728   C     0.84527   0.39193   0.63414   0.00000  Uiso   1.00
C729   C     0.70969   0.25723   0.50618   0.00000  Uiso   1.00
C730   C     0.99170   0.24100   0.97788   0.00000  Uiso   1.00
C731   C     0.83098   0.35514   0.97649   0.00000  Uiso   1.00
C732   C     0.85375   0.39873   0.99759   0.00000  Uiso   1.00
C733   C     0.95251   0.31223   0.61794   0.00000  Uiso   1.00
C734   C     0.73502   0.17463   0.87290   0.00000  Uiso   1.00
C735   C     0.85212   0.28791   0.94908   0.00000  Uiso   1.00
C736   C     0.79063   0.23369   0.59727   0.00000  Uiso   1.00
C737   C     0.85409   0.28550   0.89979   0.00000  Uiso   1.00
C738   C     0.87478   0.26850   0.60741   0.00000  Uiso   1.00
C739   C     0.81002   0.21574   0.89521   0.00000  Uiso   1.00
C740   C     0.87497   0.26687   0.55725   0.00000  Uiso   1.00
H741   H     0.99175   0.24538   0.69482   0.00000  Uiso   1.00
H742   H     0.87142   0.31276   0.88212   0.00000  Uiso   1.00
H743   H     0.90894   0.27758   0.54174   0.00000  Uiso   1.00
H744   H     0.79650   0.18618   0.96216   0.00000  Uiso   1.00
H745   H     0.87263   0.11899   0.86566   0.00000  Uiso   1.00
H746   H     0.94068   0.13464   0.87613   0.00000  Uiso   1.00
H747   H     0.92387   0.07690   0.86800   0.00000  Uiso   1.00
H748   H     0.83646   0.36878   0.60376   0.00000  Uiso   1.00
H749   H     0.88473   0.38309   0.65344   0.00000  Uiso   1.00
H750   H     0.84584   0.42632   0.61935   0.00000  Uiso   1.00
H751   H     0.72871   0.28078   0.98323   0.00000  Uiso   1.00
H752   H     0.67501   0.25350   0.80526   0.00000  Uiso   1.00
H753   H     0.70033   0.27527   0.53799   0.00000  Uiso   1.00
H754   H     0.97067   0.21860   0.50029   0.00000  Uiso   1.00
H755   H     0.96634   0.26994   0.96620   0.00000  Uiso   1.00
H756   H     0.99964   0.22262   0.94595   0.00000  Uiso   1.00
H757   H     0.80387   0.34120   0.50020   0.00000  Uiso   1.00
H758   H     0.80837   0.36259   0.94076   0.00000  Uiso   1.00
H759   H     0.87900   0.41454   0.97345   0.00000  Uiso   1.00
H760   H     0.82145   0.42185   0.50227   0.00000  Uiso   1.00
H761   H     0.87776   0.39246   0.53273   0.00000  Uiso   1.00
H762   H     0.93381   0.33792   0.59264   0.00000  Uiso   1.00
H763   H     0.90390   0.02939   0.80112   0.00000  Uiso   1.00
H764   H     0.97771   0.28943   0.60071   0.00000  Uiso   1.00
H765   H     0.97857   0.33007   0.64633   0.00000  Uiso   1.00
H766   H     0.71555   0.15475   0.84249   0.00000  Uiso   1.00
H767   H     0.73122   0.15557   0.90597   0.00000  Uiso   1.00
H768   H     0.71372   0.20683   0.87242   0.00000  Uiso   1.00
H769   H     0.81133   0.47355   0.67449   0.00000  Uiso   1.00
H770   H     0.76274   0.11239   0.69991   0.00000  Uiso   1.00
H771   H     0.85172   0.38892   0.82612   0.00000  Uiso   1.00
H772   H     0.75973   0.03110   0.70176   0.00000  Uiso   1.00
H773   H     0.85026   0.46954   0.82750   0.00000  Uiso   1.00
H774   H     0.75779   0.22035   0.61291   0.00000  Uiso   1.00
N775   N     0.83333   0.24999   0.62623   0.00000  Uiso   1.00
N776   N     0.83333   0.25001   0.87376   0.00000  Uiso   1.00
O777   O     0.83334   0.18454   0.78974   0.00000  Uiso   1.00
O778   O     0.80562   0.38692   0.66332   0.00000  Uiso   1.00
O779   O     0.74229   0.22030   0.51966   0.00000  Uiso   1.00
O780   O     0.87243   0.32537   0.97325   0.00000  Uiso   1.00
O781   O     0.91487   0.28783   0.63927   0.00000  Uiso   1.00
O782   O     0.78840   0.18057   0.86764   0.00000  Uiso   1.00
O783   O     0.83333   0.31547   0.71026   0.00000  Uiso   1.00
O784   O     0.83334   0.18453   0.71026   0.00000  Uiso   1.00
O785   O     0.83333   0.31547   0.78974   0.00000  Uiso   1.00
O786   O     0.75725   0.25000   0.78044   0.00000  Uiso   1.00
O787   O     0.90942   0.25000   0.71955   0.00000  Uiso   1.00
O788   O     0.75725   0.25000   0.70096   0.00000  Uiso   1.00
O789   O     0.90942   0.25001   0.79903   0.00000  Uiso   1.00
O790   O     0.91373   0.11726   0.80712   0.00000  Uiso   1.00
Zn791  Zn    0.83333   0.25001   0.80307   0.00000  Uiso   1.00
Zn792  Zn    0.83333   0.25000   0.69693   0.00000  Uiso   1.00
C793   C     0.16694   0.66418   0.75028   0.00000  Uiso   1.00
C794   C     0.14442   0.71521   0.94521   0.00000  Uiso   1.00
C795   C     0.16450   0.75107   0.52642   0.00000  Uiso   1.00
C796   C     0.16479   0.75157   0.97305   0.00000  Uiso   1.00
C797   C     0.06707   0.74964   0.73762   0.00000  Uiso   1.00
C798   C     0.26628   0.75002   0.76239   0.00000  Uiso   1.00
C799   C     0.01211   0.74841   0.73097   0.00000  Uiso   1.00
C800   C     0.32126   0.75064   0.76909   0.00000  Uiso   1.00
C801   C     0.20542   0.54759   0.78051   0.00000  Uiso   1.00
C802   C     0.15379   0.95482   0.70741   0.00000  Uiso   1.00
C803   C     0.20583   0.59392   0.78138   0.00000  Uiso   1.00
C804   C     0.16611   0.83625   0.74967   0.00000  Uiso   1.00
C805   C     0.15435   0.90856   0.70599   0.00000  Uiso   1.00
C806   C     0.16687   0.61671   0.75108   0.00000  Uiso   1.00
C807   C     0.16540   0.88449   0.74917   0.00000  Uiso   1.00
C808   C     0.12660   0.59428   0.72240   0.00000  Uiso   1.00
C809   C     0.17624   0.90685   0.79266   0.00000  Uiso   1.00
C810   C     0.12507   0.54834   0.72337   0.00000  Uiso   1.00
C811   C     0.17582   0.95277   0.79354   0.00000  Uiso   1.00
C812   C     0.16484   0.52494   0.75192   0.00000  Uiso   1.00
C813   C     0.16480   0.97677   0.75097   0.00000  Uiso   1.00
C814   C     0.24542   0.61124   0.85622   0.00000  Uiso   1.00
C815   C     0.12095   0.73533   0.54729   0.00000  Uiso   1.00
C816   C     0.17861   0.89193   0.63414   0.00000  Uiso   1.00
C817   C     0.04302   0.75723   0.50618   0.00000  Uiso   1.00
C818   C     0.32503   0.74100   0.97788   0.00000  Uiso   1.00
C819   C     0.16431   0.85514   0.97649   0.00000  Uiso   1.00
C820   C     0.18708   0.89873   0.99759   0.00000  Uiso   1.00
C821   C     0.28584   0.81223   0.61794   0.00000  Uiso   1.00
C822   C     0.06836   0.67463   0.87290   0.00000  Uiso   1.00
C823   C     0.18545   0.78791   0.94908   0.00000  Uiso   1.00
C824   C     0.12396   0.73369   0.59727   0.00000  Uiso   1.00
C825   C     0.18743   0.78550   0.89979   0.00000  Uiso   1.00
C826   C     0.20811   0.76850   0.60741   0.00000  Uiso   1.00
C827   C     0.14335   0.71574   0.89521   0.00000  Uiso   1.00
C828   C     0.20830   0.76687   0.55725   0.00000  Uiso   1.00
H829   H     0.32509   0.74538   0.69482   0.00000  Uiso   1.00
H830   H     0.20475   0.81276   0.88212   0.00000  Uiso   1.00
H831   H     0.24228   0.77758   0.54174   0.00000  Uiso   1.00
H832   H     0.12983   0.68618   0.96216   0.00000  Uiso   1.00
H833   H     0.20596   0.61899   0.86566   0.00000  Uiso   1.00
H834   H     0.27401   0.63464   0.87613   0.00000  Uiso   1.00
H835   H     0.25720   0.57690   0.86800   0.00000  Uiso   1.00
H836   H     0.16979   0.86878   0.60376   0.00000  Uiso   1.00
H837   H     0.21807   0.88309   0.65344   0.00000  Uiso   1.00
H838   H     0.17918   0.92632   0.61935   0.00000  Uiso   1.00
H839   H     0.06205   0.78078   0.98323   0.00000  Uiso   1.00
H840   H     0.00835   0.75350   0.80526   0.00000  Uiso   1.00
H841   H     0.03366   0.77527   0.53799   0.00000  Uiso   1.00
H842   H     0.30401   0.71860   0.50029   0.00000  Uiso   1.00
H843   H     0.29967   0.76994   0.96620   0.00000  Uiso   1.00
H844   H     0.33297   0.72262   0.94595   0.00000  Uiso   1.00
H845   H     0.13720   0.84120   0.50020   0.00000  Uiso   1.00
H846   H     0.14170   0.86259   0.94076   0.00000  Uiso   1.00
H847   H     0.21233   0.91454   0.97345   0.00000  Uiso   1.00
H848   H     0.15479   0.92185   0.50227   0.00000  Uiso   1.00
H849   H     0.21109   0.89246   0.53273   0.00000  Uiso   1.00
H850   H     0.26715   0.83792   0.59264   0.00000  Uiso   1.00
H851   H     0.23723   0.52939   0.80112   0.00000  Uiso   1.00
H852   H     0.31104   0.78943   0.60071   0.00000  Uiso   1.00
H853   H     0.31191   0.83007   0.64633   0.00000  Uiso   1.00
H854   H     0.04889   0.65475   0.84249   0.00000  Uiso   1.00
H855   H     0.06456   0.65557   0.90597   0.00000  Uiso   1.00
H856   H     0.04705   0.70683   0.87242   0.00000  Uiso   1.00
H857   H     0.14466   0.97355   0.67449   0.00000  Uiso   1.00
H858   H     0.09608   0.61239   0.69991   0.00000  Uiso   1.00
H859   H     0.18506   0.88892   0.82612   0.00000  Uiso   1.00
H860   H     0.09306   0.53110   0.70176   0.00000  Uiso   1.00
H861   H     0.18359   0.96954   0.82750   0.00000  Uiso   1.00
H862   H     0.09112   0.72035   0.61291   0.00000  Uiso   1.00
N863   N     0.16667   0.74999   0.62623   0.00000  Uiso   1.00
N864   N     0.16667   0.75001   0.87376   0.00000  Uiso   1.00
O865   O     0.16667   0.68454   0.78974   0.00000  Uiso   1.00
O866   O     0.13896   0.88692   0.66332   0.00000  Uiso   1.00
O867   O     0.07563   0.72030   0.51966   0.00000  Uiso   1.00
O868   O     0.20577   0.82537   0.97325   0.00000  Uiso   1.00
O869   O     0.24820   0.78783   0.63927   0.00000  Uiso   1.00
O870   O     0.12174   0.68057   0.86764   0.00000  Uiso   1.00
O871   O     0.16666   0.81547   0.71026   0.00000  Uiso   1.00
O872   O     0.16667   0.68453   0.71026   0.00000  Uiso   1.00
O873   O     0.16666   0.81547   0.78974   0.00000  Uiso   1.00
O874   O     0.09058   0.75000   0.78044   0.00000  Uiso   1.00
O875   O     0.24275   0.75000   0.71955   0.00000  Uiso   1.00
O876   O     0.09058   0.75000   0.70096   0.00000  Uiso   1.00
O877   O     0.24275   0.75001   0.79903   0.00000  Uiso   1.00
O878   O     0.24707   0.61726   0.80712   0.00000  Uiso   1.00
Zn879  Zn    0.16667   0.75001   0.80307   0.00000  Uiso   1.00
Zn880  Zn    0.16667   0.75000   0.69693   0.00000  Uiso   1.00
C881   C     0.50028   0.66418   0.75028   0.00000  Uiso   1.00
C882   C     0.47775   0.71521   0.94521   0.00000  Uiso   1.00
C883   C     0.49784   0.75107   0.52642   0.00000  Uiso   1.00
C884   C     0.49812   0.75157   0.97305   0.00000  Uiso   1.00
C885   C     0.40040   0.74964   0.73762   0.00000  Uiso   1.00
C886   C     0.59961   0.75002   0.76239   0.00000  Uiso   1.00
C887   C     0.34545   0.74841   0.73097   0.00000  Uiso   1.00
C888   C     0.65459   0.75064   0.76909   0.00000  Uiso   1.00
C889   C     0.53876   0.54759   0.78051   0.00000  Uiso   1.00
C890   C     0.48712   0.95482   0.70741   0.00000  Uiso   1.00
C891   C     0.53916   0.59392   0.78138   0.00000  Uiso   1.00
C892   C     0.49945   0.83625   0.74967   0.00000  Uiso   1.00
C893   C     0.48768   0.90856   0.70599   0.00000  Uiso   1.00
C894   C     0.50021   0.61671   0.75108   0.00000  Uiso   1.00
C895   C     0.49873   0.88449   0.74917   0.00000  Uiso   1.00
C896   C     0.45993   0.59428   0.72240   0.00000  Uiso   1.00
C897   C     0.50958   0.90685   0.79266   0.00000  Uiso   1.00
C898   C     0.45840   0.54834   0.72337   0.00000  Uiso   1.00
C899   C     0.50915   0.95277   0.79354   0.00000  Uiso   1.00
C900   C     0.49817   0.52494   0.75192   0.00000  Uiso   1.00
C901   C     0.49814   0.97677   0.75097   0.00000  Uiso   1.00
C902   C     0.57876   0.61124   0.85622   0.00000  Uiso   1.00
C903   C     0.45428   0.73533   0.54729   0.00000  Uiso   1.00
C904   C     0.51194   0.89193   0.63414   0.00000  Uiso   1.00
C905   C     0.37636   0.75723   0.50618   0.00000  Uiso   1.00
C906   C     0.65836   0.74100   0.97788   0.00000  Uiso   1.00
C907   C     0.49764   0.85514   0.97649   0.00000  Uiso   1.00
C908   C     0.52042   0.89873   0.99759   0.00000  Uiso   1.00
C909   C     0.61918   0.81223   0.61794   0.00000  Uiso   1.00
C910   C     0.40169   0.67463   0.87290   0.00000  Uiso   1.00
C911   C     0.51879   0.78791   0.94908   0.00000  Uiso   1.00
C912   C     0.45729   0.73369   0.59727   0.00000  Uiso   1.00
C913   C     0.52076   0.78550   0.89979   0.00000  Uiso   1.00
C914   C     0.54144   0.76850   0.60741   0.00000  Uiso   1.00
C915   C     0.47668   0.71574   0.89521   0.00000  Uiso   1.00
C916   C     0.54163   0.76687   0.55725   0.00000  Uiso   1.00
H917   H     0.65842   0.74538   0.69482   0.00000  Uiso   1.00
H918   H     0.53808   0.81276   0.88212   0.00000  Uiso   1.00
H919   H     0.57561   0.77758   0.54174   0.00000  Uiso   1.00
H920   H     0.46316   0.68618   0.96216   0.00000  Uiso   1.00
H921   H     0.53929   0.61899   0.86566   0.00000  Uiso   1.00
H922   H     0.60735   0.63464   0.87613   0.00000  Uiso   1.00
H923   H     0.59054   0.57690   0.86800   0.00000  Uiso   1.00
H924   H     0.50313   0.86878   0.60376   0.00000  Uiso   1.00
H925   H     0.55140   0.88309   0.65344   0.00000  Uiso   1.00
H926   H     0.51251   0.92632   0.61935   0.00000  Uiso   1.00
H927   H     0.39538   0.78078   0.98323   0.00000  Uiso   1.00
H928   H     0.34168   0.75350   0.80526   0.00000  Uiso   1.00
H929   H     0.36700   0.77527   0.53799   0.00000  Uiso   1.00
H930   H     0.63734   0.71860   0.50029   0.00000  Uiso   1.00
H931   H     0.63300   0.76994   0.96620   0.00000  Uiso   1.00
H932   H     0.66630   0.72262   0.94595   0.00000  Uiso   1.00
H933   H     0.47054   0.84120   0.50020   0.00000  Uiso   1.00
H934   H     0.47504   0.86259   0.94076   0.00000  Uiso   1.00
H935   H     0.54566   0.91454   0.97345   0.00000  Uiso   1.00
H936   H     0.48812   0.92185   0.50227   0.00000  Uiso   1.00
H937   H     0.54442   0.89246   0.53273   0.00000  Uiso   1.00
H938   H     0.60048   0.83792   0.59264   0.00000  Uiso   1.00
H939   H     0.57056   0.52939   0.80112   0.00000  Uiso   1.00
H940   H     0.64437   0.78943   0.60071   0.00000  Uiso   1.00
H941   H     0.64524   0.83007   0.64633   0.00000  Uiso   1.00
H942   H     0.38222   0.65475   0.84249   0.00000  Uiso   1.00
H943   H     0.39789   0.65557   0.90597   0.00000  Uiso   1.00
H944   H     0.38038   0.70683   0.87242   0.00000  Uiso   1.00
H945   H     0.47799   0.97355   0.67449   0.00000  Uiso   1.00
H946   H     0.42941   0.61239   0.69991   0.00000  Uiso   1.00
H947   H     0.51839   0.88892   0.82612   0.00000  Uiso   1.00
H948   H     0.42640   0.53110   0.70176   0.00000  Uiso   1.00
H949   H     0.51692   0.96954   0.82750   0.00000  Uiso   1.00
H950   H     0.42446   0.72035   0.61291   0.00000  Uiso   1.00
N951   N     0.50000   0.74999   0.62623   0.00000  Uiso   1.00
N952   N     0.50000   0.75001   0.87376   0.00000  Uiso   1.00
O953   O     0.50000   0.68454   0.78974   0.00000  Uiso   1.00
O954   O     0.47229   0.88692   0.66332   0.00000  Uiso   1.00
O955   O     0.40896   0.72030   0.51966   0.00000  Uiso   1.00
O956   O     0.53910   0.82537   0.97325   0.00000  Uiso   1.00
O957   O     0.58154   0.78783   0.63927   0.00000  Uiso   1.00
O958   O     0.45507   0.68057   0.86764   0.00000  Uiso   1.00
O959   O     0.50000   0.81547   0.71026   0.00000  Uiso   1.00
O960   O     0.50000   0.68453   0.71026   0.00000  Uiso   1.00
O961   O     0.50000   0.81547   0.78974   0.00000  Uiso   1.00
O962   O     0.42392   0.75000   0.78044   0.00000  Uiso   1.00
O963   O     0.57608   0.75000   0.71955   0.00000  Uiso   1.00
O964   O     0.42392   0.75000   0.70096   0.00000  Uiso   1.00
O965   O     0.57608   0.75001   0.79903   0.00000  Uiso   1.00
O966   O     0.58040   0.61726   0.80712   0.00000  Uiso   1.00
Zn967  Zn    0.50000   0.75001   0.80307   0.00000  Uiso   1.00
Zn968  Zn    0.50000   0.75000   0.69693   0.00000  Uiso   1.00
C969   C     0.83361   0.66418   0.75028   0.00000  Uiso   1.00
C970   C     0.81109   0.71521   0.94521   0.00000  Uiso   1.00
C971   C     0.83117   0.75107   0.52642   0.00000  Uiso   1.00
C972   C     0.83146   0.75157   0.97305   0.00000  Uiso   1.00
C973   C     0.73373   0.74964   0.73762   0.00000  Uiso   1.00
C974   C     0.93294   0.75002   0.76239   0.00000  Uiso   1.00
C975   C     0.67878   0.74841   0.73097   0.00000  Uiso   1.00
C976   C     0.98792   0.75064   0.76909   0.00000  Uiso   1.00
C977   C     0.87209   0.54759   0.78051   0.00000  Uiso   1.00
C978   C     0.82046   0.95482   0.70741   0.00000  Uiso   1.00
C979   C     0.87250   0.59392   0.78138   0.00000  Uiso   1.00
C980   C     0.83278   0.83625   0.74967   0.00000  Uiso   1.00
C981   C     0.82102   0.90856   0.70599   0.00000  Uiso   1.00
C982   C     0.83354   0.61671   0.75108   0.00000  Uiso   1.00
C983   C     0.83206   0.88449   0.74917   0.00000  Uiso   1.00
C984   C     0.79326   0.59428   0.72240   0.00000  Uiso   1.00
C985   C     0.84291   0.90685   0.79266   0.00000  Uiso   1.00
C986   C     0.79174   0.54834   0.72337   0.00000  Uiso   1.00
C987   C     0.84249   0.95277   0.79354   0.00000  Uiso   1.00
C988   C     0.83150   0.52494   0.75192   0.00000  Uiso   1.00
C989   C     0.83147   0.97677   0.75097   0.00000  Uiso   1.00
C990   C     0.91209   0.61124   0.85622   0.00000  Uiso   1.00
C991   C     0.78761   0.73533   0.54729   0.00000  Uiso   1.00
C992   C     0.84527   0.89193   0.63414   0.00000  Uiso   1.00
C993   C     0.70969   0.75723   0.50618   0.00000  Uiso   1.00
C994   C     0.99170   0.74100   0.97788   0.00000  Uiso   1.00
C995   C     0.83098   0.85514   0.97649   0.00000  Uiso   1.00
C996   C     0.85375   0.89873   0.99759   0.00000  Uiso   1.00
C997   C     0.95251   0.81223   0.61794   0.00000  Uiso   1.00
C998   C     0.73502   0.67463   0.87290   0.00000  Uiso   1.00
C999   C     0.85212   0.78791   0.94908   0.00000  Uiso   1.00
C1000  C     0.79063   0.73369   0.59727   0.00000  Uiso   1.00
C1001  C     0.85409   0.78550   0.89979   0.00000  Uiso   1.00
C1002  C     0.87478   0.76850   0.60741   0.00000  Uiso   1.00
C1003  C     0.81002   0.71574   0.89521   0.00000  Uiso   1.00
C1004  C     0.87497   0.76687   0.55725   0.00000  Uiso   1.00
H1005  H     0.99175   0.74538   0.69482   0.00000  Uiso   1.00
H1006  H     0.87142   0.81276   0.88212   0.00000  Uiso   1.00
H1007  H     0.90894   0.77758   0.54174   0.00000  Uiso   1.00
H1008  H     0.79650   0.68618   0.96216   0.00000  Uiso   1.00
H1009  H     0.87263   0.61899   0.86566   0.00000  Uiso   1.00
H1010  H     0.94068   0.63464   0.87613   0.00000  Uiso   1.00
H1011  H     0.92387   0.57690   0.86800   0.00000  Uiso   1.00
H1012  H     0.83646   0.86878   0.60376   0.00000  Uiso   1.00
H1013  H     0.88473   0.88309   0.65344   0.00000  Uiso   1.00
H1014  H     0.84584   0.92632   0.61935   0.00000  Uiso   1.00
H1015  H     0.72871   0.78078   0.98323   0.00000  Uiso   1.00
H1016  H     0.67501   0.75350   0.80526   0.00000  Uiso   1.00
H1017  H     0.70033   0.77527   0.53799   0.00000  Uiso   1.00
H1018  H     0.97067   0.71860   0.50029   0.00000  Uiso   1.00
H1019  H     0.96634   0.76994   0.96620   0.00000  Uiso   1.00
H1020  H     0.99964   0.72262   0.94595   0.00000  Uiso   1.00
H1021  H     0.80387   0.84120   0.50020   0.00000  Uiso   1.00
H1022  H     0.80837   0.86259   0.94076   0.00000  Uiso   1.00
H1023  H     0.87900   0.91454   0.97345   0.00000  Uiso   1.00
H1024  H     0.82145   0.92185   0.50227   0.00000  Uiso   1.00
H1025  H     0.87776   0.89246   0.53273   0.00000  Uiso   1.00
H1026  H     0.93381   0.83792   0.59264   0.00000  Uiso   1.00
H1027  H     0.90390   0.52939   0.80112   0.00000  Uiso   1.00
H1028  H     0.97771   0.78943   0.60071   0.00000  Uiso   1.00
H1029  H     0.97857   0.83007   0.64633   0.00000  Uiso   1.00
H1030  H     0.71555   0.65475   0.84249   0.00000  Uiso   1.00
H1031  H     0.73122   0.65557   0.90597   0.00000  Uiso   1.00
H1032  H     0.71372   0.70683   0.87242   0.00000  Uiso   1.00
H1033  H     0.81133   0.97355   0.67449   0.00000  Uiso   1.00
H1034  H     0.76274   0.61239   0.69991   0.00000  Uiso   1.00
H1035  H     0.85172   0.88892   0.82612   0.00000  Uiso   1.00
H1036  H     0.75973   0.53110   0.70176   0.00000  Uiso   1.00
H1037  H     0.85026   0.96954   0.82750   0.00000  Uiso   1.00
H1038  H     0.75779   0.72035   0.61291   0.00000  Uiso   1.00
N1039  N     0.83333   0.74999   0.62623   0.00000  Uiso   1.00
N1040  N     0.83333   0.75001   0.87376   0.00000  Uiso   1.00
O1041  O     0.83334   0.68454   0.78974   0.00000  Uiso   1.00
O1042  O     0.80562   0.88692   0.66332   0.00000  Uiso   1.00
O1043  O     0.74229   0.72030   0.51966   0.00000  Uiso   1.00
O1044  O     0.87243   0.82537   0.97325   0.00000  Uiso   1.00
O1045  O     0.91487   0.78783   0.63927   0.00000  Uiso   1.00
O1046  O     0.78840   0.68057   0.86764   0.00000  Uiso   1.00
O1047  O     0.83333   0.81547   0.71026   0.00000  Uiso   1.00
O1048  O     0.83334   0.68453   0.71026   0.00000  Uiso   1.00
O1049  O     0.83333   0.81547   0.78974   0.00000  Uiso   1.00
O1050  O     0.75725   0.75000   0.78044   0.00000  Uiso   1.00
O1051  O     0.90942   0.75000   0.71955   0.00000  Uiso   1.00
O1052  O     0.75725   0.75000   0.70096   0.00000  Uiso   1.00
O1053  O     0.90942   0.75001   0.79903   0.00000  Uiso   1.00
O1054  O     0.91373   0.61726   0.80712   0.00000  Uiso   1.00
Zn1055 Zn    0.83333   0.75001   0.80307   0.00000  Uiso   1.00
Zn1056 Zn    0.83333   0.75000   0.69693   0.00000  Uiso   1.00
loop_
_geom_bond_atom_site_label_1
_geom_bond_atom_site_label_2
_geom_bond_distance
_geom_bond_site_symmetry_2
_ccdc_geom_bond_type
C1     O73     1.282   .     A
C1     O80     1.284   .     A
C1     C14     1.424   .     S
C2     C35     1.416   .     A
C2     C4      1.405   .     A
C2     H40     1.082   .     S
C3     C23     1.417   .     A
C3     C36     1.404   .     A
C3     C532    1.516   1_554 S
C4     C31     1.419   .     A
C4     C531    1.516   .     S
C5     C7      1.399   .     S
C5     O84     1.277   .     A
C5     O82     1.277   .     A
C6     O85     1.277   .     A
C6     O83     1.277   .     A
C6     C8      1.399   .     S
C7     C184    1.327   1_455 S
C7     H213    1.087   1_455 S
C8     C95     1.327   .     S
C8     H136    1.087   .     S
C9     C20     1.401   .     A
C9     C11     1.390   .     A
C9     H59     1.083   .     S
C10    C21     1.398   .     A
C10    H65     1.083   .     S
C10    C13     1.389   .     A
C11    C14     1.401   .     A
C11    O86     1.386   .     S
C12    O79     1.288   .     A
C12    C15     1.448   .     S
C12    O81     1.290   .     A
C13    C15     1.411   .     A
C13    O74     1.385   .     S
C14    C16     1.394   .     A
C15    C17     1.402   .     A
C16    H66     1.084   .     S
C16    C18     1.379   .     A
C17    H67     1.083   .     S
C17    C19     1.378   .     A
C18    H68     1.083   .     S
C18    C20     1.399   .     A
C19    C21     1.396   .     A
C19    H69     1.084   .     S
C20    C285    1.446   1_545 S
C21    C284    1.446   .     S
C22    H41     1.114   .     S
C22    H43     1.111   .     S
C22    H42     1.110   .     S
C22    O86     1.411   .     S
C23    O75     1.382   .     S
C23    C32     1.410   .     A
C24    H45     1.114   .     S
C24    H44     1.109   .     S
C24    H46     1.111   .     S
C24    O74     1.410   .     S
C25    O75     1.412   .     S
C25    H49     1.114   .     S
C25    C730    1.521   1_454 S
C25    H575    1.114   1_554 S
C26    H52     1.110   .     S
C26    H51     1.110   .     S
C26    C641    1.521   .     S
C26    H578    1.111   .     S
C27    H54     1.116   .     S
C27    C28     1.521   .     S
C27    O76     1.411   .     S
C27    H581    1.113   .     S
C28    H55     1.111   .     S
C28    H584    1.110   .     S
C28    H585    1.110   .     S
C29    H61     1.109   .     S
C29    H60     1.111   .     S
C29    H58     1.112   .     S
C29    O77     1.410   .     S
C30    H64     1.114   .     S
C30    H63     1.111   .     S
C30    H62     1.109   .     S
C30    O78     1.412   .     S
C31    C33     1.410   .     A
C31    O76     1.381   .     S
C32    N71     1.363   .     A
C32    H70     1.082   .     S
C33    N72     1.362   .     A
C33    H38     1.082   .     S
C34    O77     1.395   .     S
C34    C36     1.426   .     A
C34    N71     1.371   .     A
C35    N72     1.367   .     A
C35    O78     1.384   .     S
C36    H39     1.079   .     S
H37    C95     1.087   .     S
H47    C553    1.114   .     S
H48    C184    1.087   1_455 S
H50    C554    1.111   1_554 S
H53    C555    1.113   1_554 S
H56    C556    1.110   1_554 S
H57    C556    1.110   1_554 S
N71    Zn88    2.007   .     S
N72    Zn87    2.007   .     S
O73    Zn87    2.004   .     S
O79    Zn88    2.004   .     S
O80    Zn88    1.997   .     S
O81    Zn87    1.997   .     S
O82    Zn87    1.969   .     S
O83    Zn88    1.969   .     S
O84    Zn88    1.977   .     S
O85    Zn87    1.977   .     S
C89    O161    1.282   .     A
C89    O168    1.284   .     A
C89    C102    1.424   .     S
C90    C123    1.416   .     A
C90    C92     1.405   .     A
C90    H128    1.082   .     S
C91    C111    1.417   .     A
C91    C124    1.404   .     A
C91    C620    1.516   1_554 S
C92    C119    1.419   .     A
C92    C619    1.516   .     S
C93    C95     1.399   .     S
C93    O172    1.277   .     A
C93    O170    1.277   .     A
C94    O173    1.277   .     A
C94    O171    1.277   .     A
C94    C96     1.399   .     S
C96    C183    1.327   .     S
C96    H224    1.087   .     S
C97    C108    1.401   .     A
C97    C99     1.390   .     A
C97    H147    1.083   .     S
C98    C109    1.398   .     A
C98    H153    1.083   .     S
C98    C101    1.389   .     A
C99    C102    1.401   .     A
C99    O174    1.386   .     S
C100   O167    1.288   .     A
C100   C103    1.448   .     S
C100   O169    1.290   .     A
C101   C103    1.411   .     A
C101   O162    1.385   .     S
C102   C104    1.394   .     A
C103   C105    1.402   .     A
C104   H154    1.084   .     S
C104   C106    1.379   .     A
C105   H155    1.083   .     S
C105   C107    1.378   .     A
C106   H156    1.083   .     S
C106   C108    1.399   .     A
C107   C109    1.396   .     A
C107   H157    1.084   .     S
C108   C373    1.446   1_545 S
C109   C372    1.446   .     S
C110   H129    1.114   .     S
C110   H131    1.111   .     S
C110   H130    1.110   .     S
C110   O174    1.411   .     S
C111   O163    1.382   .     S
C111   C120    1.410   .     A
C112   H133    1.114   .     S
C112   H132    1.109   .     S
C112   H134    1.111   .     S
C112   O162    1.410   .     S
C113   O163    1.412   .     S
C113   H137    1.114   .     S
C113   C554    1.521   1_554 S
C113   H663    1.114   1_554 S
C114   H140    1.110   .     S
C114   H139    1.110   .     S
C114   C729    1.521   .     S
C114   H666    1.111   .     S
C115   H142    1.116   .     S
C115   C116    1.521   .     S
C115   O164    1.411   .     S
C115   H669    1.113   .     S
C116   H143    1.111   .     S
C116   H672    1.110   .     S
C116   H673    1.110   .     S
C117   H149    1.109   .     S
C117   H148    1.111   .     S
C117   H146    1.112   .     S
C117   O165    1.410   .     S
C118   H152    1.114   .     S
C118   H151    1.111   .     S
C118   H150    1.109   .     S
C118   O166    1.412   .     S
C119   C121    1.410   .     A
C119   O164    1.381   .     S
C120   N159    1.363   .     A
C120   H158    1.082   .     S
C121   N160    1.362   .     A
C121   H126    1.082   .     S
C122   O165    1.395   .     S
C122   C124    1.426   .     A
C122   N159    1.371   .     A
C123   N160    1.367   .     A
C123   O166    1.384   .     S
C124   H127    1.079   .     S
H125   C183    1.087   .     S
H135   C641    1.114   .     S
H138   C642    1.111   1_554 S
H141   C643    1.113   1_554 S
H144   C644    1.110   1_554 S
H145   C644    1.110   1_554 S
N159   Zn176   2.007   .     S
N160   Zn175   2.007   .     S
O161   Zn175   2.004   .     S
O167   Zn176   2.004   .     S
O168   Zn176   1.997   .     S
O169   Zn175   1.997   .     S
O170   Zn175   1.969   .     S
O171   Zn176   1.969   .     S
O172   Zn176   1.977   .     S
O173   Zn175   1.977   .     S
C177   O249    1.282   .     A
C177   O256    1.284   .     A
C177   C190    1.424   .     S
C178   C211    1.416   .     A
C178   C180    1.405   .     A
C178   H216    1.082   .     S
C179   C199    1.417   .     A
C179   C212    1.404   .     A
C179   C708    1.516   1_554 S
C180   C207    1.419   .     A
C180   C707    1.516   .     S
C181   C183    1.399   .     S
C181   O260    1.277   .     A
C181   O258    1.277   .     A
C182   O261    1.277   .     A
C182   O259    1.277   .     A
C182   C184    1.399   .     S
C184   C7      1.327   1_655 S
C184   H48     1.087   1_655 S
C185   C196    1.401   .     A
C185   C187    1.390   .     A
C185   H235    1.083   .     S
C186   C197    1.398   .     A
C186   H241    1.083   .     S
C186   C189    1.389   .     A
C187   C190    1.401   .     A
C187   O262    1.386   .     S
C188   O255    1.288   .     A
C188   C191    1.448   .     S
C188   O257    1.290   .     A
C189   C191    1.411   .     A
C189   O250    1.385   .     S
C190   C192    1.394   .     A
C191   C193    1.402   .     A
C192   H242    1.084   .     S
C192   C194    1.379   .     A
C193   H243    1.083   .     S
C193   C195    1.378   .     A
C194   H244    1.083   .     S
C194   C196    1.399   .     A
C195   C197    1.396   .     A
C195   H245    1.084   .     S
C196   C461    1.446   1_545 S
C197   C460    1.446   .     S
C198   H217    1.114   .     S
C198   H219    1.111   .     S
C198   H218    1.110   .     S
C198   O262    1.411   .     S
C199   O251    1.382   .     S
C199   C208    1.410   .     A
C200   H221    1.114   .     S
C200   H220    1.109   .     S
C200   H222    1.111   .     S
C200   O250    1.410   .     S
C201   O251    1.412   .     S
C201   H225    1.114   .     S
C201   C642    1.521   1_554 S
C201   H751    1.114   1_554 S
C202   H228    1.110   .     S
C202   H227    1.110   .     S
C202   C553    1.521   1_655 S
C202   H754    1.111   .     S
C203   H230    1.116   .     S
C203   C204    1.521   .     S
C203   O252    1.411   .     S
C203   H757    1.113   .     S
C204   H231    1.111   .     S
C204   H760    1.110   .     S
C204   H761    1.110   .     S
C205   H237    1.109   .     S
C205   H236    1.111   .     S
C205   H234    1.112   .     S
C205   O253    1.410   .     S
C206   H240    1.114   .     S
C206   H239    1.111   .     S
C206   H238    1.109   .     S
C206   O254    1.412   .     S
C207   C209    1.410   .     A
C207   O252    1.381   .     S
C208   N247    1.363   .     A
C208   H246    1.082   .     S
C209   N248    1.362   .     A
C209   H214    1.082   .     S
C210   O253    1.395   .     S
C210   C212    1.426   .     A
C210   N247    1.371   .     A
C211   N248    1.367   .     A
C211   O254    1.384   .     S
C212   H215    1.079   .     S
H213   C7      1.087   1_655 S
H223   C729    1.114   .     S
H226   C730    1.111   1_554 S
H229   C731    1.113   1_554 S
H232   C732    1.110   1_554 S
H233   C732    1.110   1_554 S
N247   Zn264   2.007   .     S
N248   Zn263   2.007   .     S
O249   Zn263   2.004   .     S
O255   Zn264   2.004   .     S
O256   Zn264   1.997   .     S
O257   Zn263   1.997   .     S
O258   Zn263   1.969   .     S
O259   Zn264   1.969   .     S
O260   Zn264   1.977   .     S
O261   Zn263   1.977   .     S
C265   O337    1.282   .     A
C265   O344    1.284   .     A
C265   C278    1.424   .     S
C266   C299    1.416   .     A
C266   C268    1.405   .     A
C266   H304    1.082   .     S
C267   C287    1.417   .     A
C267   C300    1.404   .     A
C267   C796    1.516   1_554 S
C268   C295    1.419   .     A
C268   C795    1.516   .     S
C269   C271    1.399   .     S
C269   O348    1.277   .     A
C269   O346    1.277   .     A
C270   O349    1.277   .     A
C270   O347    1.277   .     A
C270   C272    1.399   .     S
C271   C448    1.327   1_455 S
C271   H477    1.087   1_455 S
C272   C359    1.327   .     S
C272   H400    1.087   .     S
C273   C284    1.401   .     A
C273   C275    1.390   .     A
C273   H323    1.083   .     S
C274   C285    1.398   .     A
C274   H329    1.083   .     S
C274   C277    1.389   .     A
C275   C278    1.401   .     A
C275   O350    1.386   .     S
C276   O343    1.288   .     A
C276   C279    1.448   .     S
C276   O345    1.290   .     A
C277   C279    1.411   .     A
C277   O338    1.385   .     S
C278   C280    1.394   .     A
C279   C281    1.402   .     A
C280   H330    1.084   .     S
C280   C282    1.379   .     A
C281   H331    1.083   .     S
C281   C283    1.378   .     A
C282   H332    1.083   .     S
C282   C284    1.399   .     A
C283   C285    1.396   .     A
C283   H333    1.084   .     S
C285   C20     1.446   1_565 S
C286   H305    1.114   .     S
C286   H307    1.111   .     S
C286   H306    1.110   .     S
C286   O350    1.411   .     S
C287   O339    1.382   .     S
C287   C296    1.410   .     A
C288   H309    1.114   .     S
C288   H308    1.109   .     S
C288   H310    1.111   .     S
C288   O338    1.410   .     S
C289   O339    1.412   .     S
C289   H313    1.114   .     S
C289   C994    1.521   1_454 S
C289   H839    1.114   1_554 S
C290   H316    1.110   .     S
C290   H315    1.110   .     S
C290   C905    1.521   .     S
C290   H842    1.111   .     S
C291   H318    1.116   .     S
C291   C292    1.521   .     S
C291   O340    1.411   .     S
C291   H845    1.113   .     S
C292   H319    1.111   .     S
C292   H848    1.110   .     S
C292   H849    1.110   .     S
C293   H325    1.109   .     S
C293   H324    1.111   .     S
C293   H322    1.112   .     S
C293   O341    1.410   .     S
C294   H328    1.114   .     S
C294   H327    1.111   .     S
C294   H326    1.109   .     S
C294   O342    1.412   .     S
C295   C297    1.410   .     A
C295   O340    1.381   .     S
C296   N335    1.363   .     A
C296   H334    1.082   .     S
C297   N336    1.362   .     A
C297   H302    1.082   .     S
C298   O341    1.395   .     S
C298   C300    1.426   .     A
C298   N335    1.371   .     A
C299   N336    1.367   .     A
C299   O342    1.384   .     S
C300   H303    1.079   .     S
H301   C359    1.087   .     S
H311   C817    1.114   .     S
H312   C448    1.087   1_455 S
H314   C818    1.111   1_554 S
H317   C819    1.113   1_554 S
H320   C820    1.110   1_554 S
H321   C820    1.110   1_554 S
N335   Zn352   2.007   .     S
N336   Zn351   2.007   .     S
O337   Zn351   2.004   .     S
O343   Zn352   2.004   .     S
O344   Zn352   1.997   .     S
O345   Zn351   1.997   .     S
O346   Zn351   1.969   .     S
O347   Zn352   1.969   .     S
O348   Zn352   1.977   .     S
O349   Zn351   1.977   .     S
C353   O425    1.282   .     A
C353   O432    1.284   .     A
C353   C366    1.424   .     S
C354   C387    1.416   .     A
C354   C356    1.405   .     A
C354   H392    1.082   .     S
C355   C375    1.417   .     A
C355   C388    1.404   .     A
C355   C884    1.516   1_554 S
C356   C383    1.419   .     A
C356   C883    1.516   .     S
C357   C359    1.399   .     S
C357   O436    1.277   .     A
C357   O434    1.277   .     A
C358   O437    1.277   .     A
C358   O435    1.277   .     A
C358   C360    1.399   .     S
C360   C447    1.327   .     S
C360   H488    1.087   .     S
C361   C372    1.401   .     A
C361   C363    1.390   .     A
C361   H411    1.083   .     S
C362   C373    1.398   .     A
C362   H417    1.083   .     S
C362   C365    1.389   .     A
C363   C366    1.401   .     A
C363   O438    1.386   .     S
C364   O431    1.288   .     A
C364   C367    1.448   .     S
C364   O433    1.290   .     A
C365   C367    1.411   .     A
C365   O426    1.385   .     S
C366   C368    1.394   .     A
C367   C369    1.402   .     A
C368   H418    1.084   .     S
C368   C370    1.379   .     A
C369   H419    1.083   .     S
C369   C371    1.378   .     A
C370   H420    1.083   .     S
C370   C372    1.399   .     A
C371   C373    1.396   .     A
C371   H421    1.084   .     S
C373   C108    1.446   1_565 S
C374   H393    1.114   .     S
C374   H395    1.111   .     S
C374   H394    1.110   .     S
C374   O438    1.411   .     S
C375   O427    1.382   .     S
C375   C384    1.410   .     A
C376   H397    1.114   .     S
C376   H396    1.109   .     S
C376   H398    1.111   .     S
C376   O426    1.410   .     S
C377   O427    1.412   .     S
C377   H401    1.114   .     S
C377   C818    1.521   1_554 S
C377   H927    1.114   1_554 S
C378   H404    1.110   .     S
C378   H403    1.110   .     S
C378   C993    1.521   .     S
C378   H930    1.111   .     S
C379   H406    1.116   .     S
C379   C380    1.521   .     S
C379   O428    1.411   .     S
C379   H933    1.113   .     S
C380   H407    1.111   .     S
C380   H936    1.110   .     S
C380   H937    1.110   .     S
C381   H413    1.109   .     S
C381   H412    1.111   .     S
C381   H410    1.112   .     S
C381   O429    1.410   .     S
C382   H416    1.114   .     S
C382   H415    1.111   .     S
C382   H414    1.109   .     S
C382   O430    1.412   .     S
C383   C385    1.410   .     A
C383   O428    1.381   .     S
C384   N423    1.363   .     A
C384   H422    1.082   .     S
C385   N424    1.362   .     A
C385   H390    1.082   .     S
C386   O429    1.395   .     S
C386   C388    1.426   .     A
C386   N423    1.371   .     A
C387   N424    1.367   .     A
C387   O430    1.384   .     S
C388   H391    1.079   .     S
H389   C447    1.087   .     S
H399   C905    1.114   .     S
H402   C906    1.111   1_554 S
H405   C907    1.113   1_554 S
H408   C908    1.110   1_554 S
H409   C908    1.110   1_554 S
N423   Zn440   2.007   .     S
N424   Zn439   2.007   .     S
O425   Zn439   2.004   .     S
O431   Zn440   2.004   .     S
O432   Zn440   1.997   .     S
O433   Zn439   1.997   .     S
O434   Zn439   1.969   .     S
O435   Zn440   1.969   .     S
O436   Zn440   1.977   .     S
O437   Zn439   1.977   .     S
C441   O513    1.282   .     A
C441   O520    1.284   .     A
C441   C454    1.424   .     S
C442   C475    1.416   .     A
C442   C444    1.405   .     A
C442   H480    1.082   .     S
C443   C463    1.417   .     A
C443   C476    1.404   .     A
C443   C972    1.516   1_554 S
C444   C471    1.419   .     A
C444   C971    1.516   .     S
C445   C447    1.399   .     S
C445   O524    1.277   .     A
C445   O522    1.277   .     A
C446   O525    1.277   .     A
C446   O523    1.277   .     A
C446   C448    1.399   .     S
C448   C271    1.327   1_655 S
C448   H312    1.087   1_655 S
C449   C460    1.401   .     A
C449   C451    1.390   .     A
C449   H499    1.083   .     S
C450   C461    1.398   .     A
C450   H505    1.083   .     S
C450   C453    1.389   .     A
C451   C454    1.401   .     A
C451   O526    1.386   .     S
C452   O519    1.288   .     A
C452   C455    1.448   .     S
C452   O521    1.290   .     A
C453   C455    1.411   .     A
C453   O514    1.385   .     S
C454   C456    1.394   .     A
C455   C457    1.402   .     A
C456   H506    1.084   .     S
C456   C458    1.379   .     A
C457   H507    1.083   .     S
C457   C459    1.378   .     A
C458   H508    1.083   .     S
C458   C460    1.399   .     A
C459   C461    1.396   .     A
C459   H509    1.084   .     S
C461   C196    1.446   1_565 S
C462   H481    1.114   .     S
C462   H483    1.111   .     S
C462   H482    1.110   .     S
C462   O526    1.411   .     S
C463   O515    1.382   .     S
C463   C472    1.410   .     A
C464   H485    1.114   .     S
C464   H484    1.109   .     S
C464   H486    1.111   .     S
C464   O514    1.410   .     S
C465   O515    1.412   .     S
C465   H489    1.114   .     S
C465   C906    1.521   1_554 S
C465   H1015   1.114   1_554 S
C466   H492    1.110   .     S
C466   H491    1.110   .     S
C466   C817    1.521   1_655 S
C466   H1018   1.111   .     S
C467   H494    1.116   .     S
C467   C468    1.521   .     S
C467   O516    1.411   .     S
C467   H1021   1.113   .     S
C468   H495    1.111   .     S
C468   H1024   1.110   .     S
C468   H1025   1.110   .     S
C469   H501    1.109   .     S
C469   H500    1.111   .     S
C469   H498    1.112   .     S
C469   O517    1.410   .     S
C470   H504    1.114   .     S
C470   H503    1.111   .     S
C470   H502    1.109   .     S
C470   O518    1.412   .     S
C471   C473    1.410   .     A
C471   O516    1.381   .     S
C472   N511    1.363   .     A
C472   H510    1.082   .     S
C473   N512    1.362   .     A
C473   H478    1.082   .     S
C474   O517    1.395   .     S
C474   C476    1.426   .     A
C474   N511    1.371   .     A
C475   N512    1.367   .     A
C475   O518    1.384   .     S
C476   H479    1.079   .     S
H477   C271    1.087   1_655 S
H487   C993    1.114   .     S
H490   C994    1.111   1_554 S
H493   C995    1.113   1_554 S
H496   C996    1.110   1_554 S
H497   C996    1.110   1_554 S
N511   Zn528   2.007   .     S
N512   Zn527   2.007   .     S
O513   Zn527   2.004   .     S
O519   Zn528   2.004   .     S
O520   Zn528   1.997   .     S
O521   Zn527   1.997   .     S
O522   Zn527   1.969   .     S
O523   Zn528   1.969   .     S
O524   Zn528   1.977   .     S
O525   Zn527   1.977   .     S
C529   O601    1.282   .     A
C529   O608    1.284   .     A
C529   C542    1.424   .     S
C530   C563    1.416   .     A
C530   C532    1.405   .     A
C530   H568    1.082   .     S
C531   C551    1.417   .     A
C531   C564    1.404   .     A
C532   C559    1.419   .     A
C532   C3      1.516   1_556 S
C533   C535    1.399   .     S
C533   O612    1.277   .     A
C533   O610    1.277   .     A
C534   O613    1.277   .     A
C534   O611    1.277   .     A
C534   C536    1.399   .     S
C535   C712    1.327   1_455 S
C535   H741    1.087   1_455 S
C536   C623    1.327   .     S
C536   H664    1.087   .     S
C537   C548    1.401   .     A
C537   C539    1.390   .     A
C537   H587    1.083   .     S
C538   C549    1.398   .     A
C538   H593    1.083   .     S
C538   C541    1.389   .     A
C539   C542    1.401   .     A
C539   O614    1.386   .     S
C540   O607    1.288   .     A
C540   C543    1.448   .     S
C540   O609    1.290   .     A
C541   C543    1.411   .     A
C541   O602    1.385   .     S
C542   C544    1.394   .     A
C543   C545    1.402   .     A
C544   H594    1.084   .     S
C544   C546    1.379   .     A
C545   H595    1.083   .     S
C545   C547    1.378   .     A
C546   H596    1.083   .     S
C546   C548    1.399   .     A
C547   C549    1.396   .     A
C547   H597    1.084   .     S
C548   C813    1.446   1_545 S
C549   C812    1.446   .     S
C550   H569    1.114   .     S
C550   H571    1.111   .     S
C550   H570    1.110   .     S
C550   O614    1.411   .     S
C551   O603    1.382   .     S
C551   C560    1.410   .     A
C552   H573    1.114   .     S
C552   H572    1.109   .     S
C552   H574    1.111   .     S
C552   O602    1.410   .     S
C553   O603    1.412   .     S
C553   H577    1.114   .     S
C553   C202    1.521   1_455 S
C554   H580    1.110   .     S
C554   H579    1.110   .     S
C554   C113    1.521   1_556 S
C554   H50     1.111   1_556 S
C555   H582    1.116   .     S
C555   C556    1.521   .     S
C555   O604    1.411   .     S
C555   H53     1.113   1_556 S
C556   H583    1.111   .     S
C556   H56     1.110   1_556 S
C556   H57     1.110   1_556 S
C557   H589    1.109   .     S
C557   H588    1.111   .     S
C557   H586    1.112   .     S
C557   O605    1.410   .     S
C558   H592    1.114   .     S
C558   H591    1.111   .     S
C558   H590    1.109   .     S
C558   O606    1.412   .     S
C559   C561    1.410   .     A
C559   O604    1.381   .     S
C560   N599    1.363   .     A
C560   H598    1.082   .     S
C561   N600    1.362   .     A
C561   H566    1.082   .     S
C562   O605    1.395   .     S
C562   C564    1.426   .     A
C562   N599    1.371   .     A
C563   N600    1.367   .     A
C563   O606    1.384   .     S
C564   H567    1.079   .     S
H565   C623    1.087   .     S
H575   C25     1.114   1_556 S
H576   C712    1.087   1_455 S
N599   Zn616   2.007   .     S
N600   Zn615   2.007   .     S
O601   Zn615   2.004   .     S
O607   Zn616   2.004   .     S
O608   Zn616   1.997   .     S
O609   Zn615   1.997   .     S
O610   Zn615   1.969   .     S
O611   Zn616   1.969   .     S
O612   Zn616   1.977   .     S
O613   Zn615   1.977   .     S
C617   O689    1.282   .     A
C617   O696    1.284   .     A
C617   C630    1.424   .     S
C618   C651    1.416   .     A
C618   C620    1.405   .     A
C618   H656    1.082   .     S
C619   C639    1.417   .     A
C619   C652    1.404   .     A
C620   C647    1.419   .     A
C620   C91     1.516   1_556 S
C621   C623    1.399   .     S
C621   O700    1.277   .     A
C621   O698    1.277   .     A
C622   O701    1.277   .     A
C622   O699    1.277   .     A
C622   C624    1.399   .     S
C624   C711    1.327   .     S
C624   H752    1.087   .     S
C625   C636    1.401   .     A
C625   C627    1.390   .     A
C625   H675    1.083   .     S
C626   C637    1.398   .     A
C626   H681    1.083   .     S
C626   C629    1.389   .     A
C627   C630    1.401   .     A
C627   O702    1.386   .     S
C628   O695    1.288   .     A
C628   C631    1.448   .     S
C628   O697    1.290   .     A
C629   C631    1.411   .     A
C629   O690    1.385   .     S
C630   C632    1.394   .     A
C631   C633    1.402   .     A
C632   H682    1.084   .     S
C632   C634    1.379   .     A
C633   H683    1.083   .     S
C633   C635    1.378   .     A
C634   H684    1.083   .     S
C634   C636    1.399   .     A
C635   C637    1.396   .     A
C635   H685    1.084   .     S
C636   C901    1.446   1_545 S
C637   C900    1.446   .     S
C638   H657    1.114   .     S
C638   H659    1.111   .     S
C638   H658    1.110   .     S
C638   O702    1.411   .     S
C639   O691    1.382   .     S
C639   C648    1.410   .     A
C640   H661    1.114   .     S
C640   H660    1.109   .     S
C640   H662    1.111   .     S
C640   O690    1.410   .     S
C641   O691    1.412   .     S
C641   H665    1.114   .     S
C642   H668    1.110   .     S
C642   H667    1.110   .     S
C642   C201    1.521   1_556 S
C642   H138    1.111   1_556 S
C643   H670    1.116   .     S
C643   C644    1.521   .     S
C643   O692    1.411   .     S
C643   H141    1.113   1_556 S
C644   H671    1.111   .     S
C644   H144    1.110   1_556 S
C644   H145    1.110   1_556 S
C645   H677    1.109   .     S
C645   H676    1.111   .     S
C645   H674    1.112   .     S
C645   O693    1.410   .     S
C646   H680    1.114   .     S
C646   H679    1.111   .     S
C646   H678    1.109   .     S
C646   O694    1.412   .     S
C647   C649    1.410   .     A
C647   O692    1.381   .     S
C648   N687    1.363   .     A
C648   H686    1.082   .     S
C649   N688    1.362   .     A
C649   H654    1.082   .     S
C650   O693    1.395   .     S
C650   C652    1.426   .     A
C650   N687    1.371   .     A
C651   N688    1.367   .     A
C651   O694    1.384   .     S
C652   H655    1.079   .     S
H653   C711    1.087   .     S
H663   C113    1.114   1_556 S
N687   Zn704   2.007   .     S
N688   Zn703   2.007   .     S
O689   Zn703   2.004   .     S
O695   Zn704   2.004   .     S
O696   Zn704   1.997   .     S
O697   Zn703   1.997   .     S
O698   Zn703   1.969   .     S
O699   Zn704   1.969   .     S
O700   Zn704   1.977   .     S
O701   Zn703   1.977   .     S
C705   O777    1.282   .     A
C705   O784    1.284   .     A
C705   C718    1.424   .     S
C706   C739    1.416   .     A
C706   C708    1.405   .     A
C706   H744    1.082   .     S
C707   C727    1.417   .     A
C707   C740    1.404   .     A
C708   C735    1.419   .     A
C708   C179    1.516   1_556 S
C709   C711    1.399   .     S
C709   O788    1.277   .     A
C709   O786    1.277   .     A
C710   O789    1.277   .     A
C710   O787    1.277   .     A
C710   C712    1.399   .     S
C712   C535    1.327   1_655 S
C712   H576    1.087   1_655 S
C713   C724    1.401   .     A
C713   C715    1.390   .     A
C713   H763    1.083   .     S
C714   C725    1.398   .     A
C714   H769    1.083   .     S
C714   C717    1.389   .     A
C715   C718    1.401   .     A
C715   O790    1.386   .     S
C716   O783    1.288   .     A
C716   C719    1.448   .     S
C716   O785    1.290   .     A
C717   C719    1.411   .     A
C717   O778    1.385   .     S
C718   C720    1.394   .     A
C719   C721    1.402   .     A
C720   H770    1.084   .     S
C720   C722    1.379   .     A
C721   H771    1.083   .     S
C721   C723    1.378   .     A
C722   H772    1.083   .     S
C722   C724    1.399   .     A
C723   C725    1.396   .     A
C723   H773    1.084   .     S
C724   C989    1.446   1_545 S
C725   C988    1.446   .     S
C726   H745    1.114   .     S
C726   H747    1.111   .     S
C726   H746    1.110   .     S
C726   O790    1.411   .     S
C727   O779    1.382   .     S
C727   C736    1.410   .     A
C728   H749    1.114   .     S
C728   H748    1.109   .     S
C728   H750    1.111   .     S
C728   O778    1.410   .     S
C729   O779    1.412   .     S
C729   H753    1.114   .     S
C730   H756    1.110   .     S
C730   H755    1.110   .     S
C730   C25     1.521   1_656 S
C730   H226    1.111   1_556 S
C731   H758    1.116   .     S
C731   C732    1.521   .     S
C731   O780    1.411   .     S
C731   H229    1.113   1_556 S
C732   H759    1.111   .     S
C732   H232    1.110   1_556 S
C732   H233    1.110   1_556 S
C733   H765    1.109   .     S
C733   H764    1.111   .     S
C733   H762    1.112   .     S
C733   O781    1.410   .     S
C734   H768    1.114   .     S
C734   H767    1.111   .     S
C734   H766    1.109   .     S
C734   O782    1.412   .     S
C735   C737    1.410   .     A
C735   O780    1.381   .     S
C736   N775    1.363   .     A
C736   H774    1.082   .     S
C737   N776    1.362   .     A
C737   H742    1.082   .     S
C738   O781    1.395   .     S
C738   C740    1.426   .     A
C738   N775    1.371   .     A
C739   N776    1.367   .     A
C739   O782    1.384   .     S
C740   H743    1.079   .     S
H741   C535    1.087   1_655 S
H751   C201    1.114   1_556 S
N775   Zn792   2.007   .     S
N776   Zn791   2.007   .     S
O777   Zn791   2.004   .     S
O783   Zn792   2.004   .     S
O784   Zn792   1.997   .     S
O785   Zn791   1.997   .     S
O786   Zn791   1.969   .     S
O787   Zn792   1.969   .     S
O788   Zn792   1.977   .     S
O789   Zn791   1.977   .     S
C793   O865    1.282   .     A
C793   O872    1.284   .     A
C793   C806    1.424   .     S
C794   C827    1.416   .     A
C794   C796    1.405   .     A
C794   H832    1.082   .     S
C795   C815    1.417   .     A
C795   C828    1.404   .     A
C796   C823    1.419   .     A
C796   C267    1.516   1_556 S
C797   C799    1.399   .     S
C797   O876    1.277   .     A
C797   O874    1.277   .     A
C798   O877    1.277   .     A
C798   O875    1.277   .     A
C798   C800    1.399   .     S
C799   C976    1.327   1_455 S
C799   H1005   1.087   1_455 S
C800   C887    1.327   .     S
C800   H928    1.087   .     S
C801   C812    1.401   .     A
C801   C803    1.390   .     A
C801   H851    1.083   .     S
C802   C813    1.398   .     A
C802   H857    1.083   .     S
C802   C805    1.389   .     A
C803   C806    1.401   .     A
C803   O878    1.386   .     S
C804   O871    1.288   .     A
C804   C807    1.448   .     S
C804   O873    1.290   .     A
C805   C807    1.411   .     A
C805   O866    1.385   .     S
C806   C808    1.394   .     A
C807   C809    1.402   .     A
C808   H858    1.084   .     S
C808   C810    1.379   .     A
C809   H859    1.083   .     S
C809   C811    1.378   .     A
C810   H860    1.083   .     S
C810   C812    1.399   .     A
C811   C813    1.396   .     A
C811   H861    1.084   .     S
C813   C548    1.446   1_565 S
C814   H833    1.114   .     S
C814   H835    1.111   .     S
C814   H834    1.110   .     S
C814   O878    1.411   .     S
C815   O867    1.382   .     S
C815   C824    1.410   .     A
C816   H837    1.114   .     S
C816   H836    1.109   .     S
C816   H838    1.111   .     S
C816   O866    1.410   .     S
C817   O867    1.412   .     S
C817   H841    1.114   .     S
C817   C466    1.521   1_455 S
C818   H844    1.110   .     S
C818   H843    1.110   .     S
C818   C377    1.521   1_556 S
C818   H314    1.111   1_556 S
C819   H846    1.116   .     S
C819   C820    1.521   .     S
C819   O868    1.411   .     S
C819   H317    1.113   1_556 S
C820   H847    1.111   .     S
C820   H320    1.110   1_556 S
C820   H321    1.110   1_556 S
C821   H853    1.109   .     S
C821   H852    1.111   .     S
C821   H850    1.112   .     S
C821   O869    1.410   .     S
C822   H856    1.114   .     S
C822   H855    1.111   .     S
C822   H854    1.109   .     S
C822   O870    1.412   .     S
C823   C825    1.410   .     A
C823   O868    1.381   .     S
C824   N863    1.363   .     A
C824   H862    1.082   .     S
C825   N864    1.362   .     A
C825   H830    1.082   .     S
C826   O869    1.395   .     S
C826   C828    1.426   .     A
C826   N863    1.371   .     A
C827   N864    1.367   .     A
C827   O870    1.384   .     S
C828   H831    1.079   .     S
H829   C887    1.087   .     S
H839   C289    1.114   1_556 S
H840   C976    1.087   1_455 S
N863   Zn880   2.007   .     S
N864   Zn879   2.007   .     S
O865   Zn879   2.004   .     S
O871   Zn880   2.004   .     S
O872   Zn880   1.997   .     S
O873   Zn879   1.997   .     S
O874   Zn879   1.969   .     S
O875   Zn880   1.969   .     S
O876   Zn880   1.977   .     S
O877   Zn879   1.977   .     S
C881   O953    1.282   .     A
C881   O960    1.284   .     A
C881   C894    1.424   .     S
C882   C915    1.416   .     A
C882   C884    1.405   .     A
C882   H920    1.082   .     S
C883   C903    1.417   .     A
C883   C916    1.404   .     A
C884   C911    1.419   .     A
C884   C355    1.516   1_556 S
C885   C887    1.399   .     S
C885   O964    1.277   .     A
C885   O962    1.277   .     A
C886   O965    1.277   .     A
C886   O963    1.277   .     A
C886   C888    1.399   .     S
C888   C975    1.327   .     S
C888   H1016   1.087   .     S
C889   C900    1.401   .     A
C889   C891    1.390   .     A
C889   H939    1.083   .     S
C890   C901    1.398   .     A
C890   H945    1.083   .     S
C890   C893    1.389   .     A
C891   C894    1.401   .     A
C891   O966    1.386   .     S
C892   O959    1.288   .     A
C892   C895    1.448   .     S
C892   O961    1.290   .     A
C893   C895    1.411   .     A
C893   O954    1.385   .     S
C894   C896    1.394   .     A
C895   C897    1.402   .     A
C896   H946    1.084   .     S
C896   C898    1.379   .     A
C897   H947    1.083   .     S
C897   C899    1.378   .     A
C898   H948    1.083   .     S
C898   C900    1.399   .     A
C899   C901    1.396   .     A
C899   H949    1.084   .     S
C901   C636    1.446   1_565 S
C902   H921    1.114   .     S
C902   H923    1.111   .     S
C902   H922    1.110   .     S
C902   O966    1.411   .     S
C903   O955    1.382   .     S
C903   C912    1.410   .     A
C904   H925    1.114   .     S
C904   H924    1.109   .     S
C904   H926    1.111   .     S
C904   O954    1.410   .     S
C905   O955    1.412   .     S
C905   H929    1.114   .     S
C906   H932    1.110   .     S
C906   H931    1.110   .     S
C906   C465    1.521   1_556 S
C906   H402    1.111   1_556 S
C907   H934    1.116   .     S
C907   C908    1.521   .     S
C907   O956    1.411   .     S
C907   H405    1.113   1_556 S
C908   H935    1.111   .     S
C908   H408    1.110   1_556 S
C908   H409    1.110   1_556 S
C909   H941    1.109   .     S
C909   H940    1.111   .     S
C909   H938    1.112   .     S
C909   O957    1.410   .     S
C910   H944    1.114   .     S
C910   H943    1.111   .     S
C910   H942    1.109   .     S
C910   O958    1.412   .     S
C911   C913    1.410   .     A
C911   O956    1.381   .     S
C912   N951    1.363   .     A
C912   H950    1.082   .     S
C913   N952    1.362   .     A
C913   H918    1.082   .     S
C914   O957    1.395   .     S
C914   C916    1.426   .     A
C914   N951    1.371   .     A
C915   N952    1.367   .     A
C915   O958    1.384   .     S
C916   H919    1.079   .     S
H917   C975    1.087   .     S
H927   C377    1.114   1_556 S
N951   Zn968   2.007   .     S
N952   Zn967   2.007   .     S
O953   Zn967   2.004   .     S
O959   Zn968   2.004   .     S
O960   Zn968   1.997   .     S
O961   Zn967   1.997   .     S
O962   Zn967   1.969   .     S
O963   Zn968   1.969   .     S
O964   Zn968   1.977   .     S
O965   Zn967   1.977   .     S
C969   O1041   1.282   .     A
C969   O1048   1.284   .     A
C969   C982    1.424   .     S
C970   C1003   1.416   .     A
C970   C972    1.405   .     A
C970   H1008   1.082   .     S
C971   C991    1.417   .     A
C971   C1004   1.404   .     A
C972   C999    1.419   .     A
C972   C443    1.516   1_556 S
C973   C975    1.399   .     S
C973   O1052   1.277   .     A
C973   O1050   1.277   .     A
C974   O1053   1.277   .     A
C974   O1051   1.277   .     A
C974   C976    1.399   .     S
C976   C799    1.327   1_655 S
C976   H840    1.087   1_655 S
C977   C988    1.401   .     A
C977   C979    1.390   .     A
C977   H1027   1.083   .     S
C978   C989    1.398   .     A
C978   H1033   1.083   .     S
C978   C981    1.389   .     A
C979   C982    1.401   .     A
C979   O1054   1.386   .     S
C980   O1047   1.288   .     A
C980   C983    1.448   .     S
C980   O1049   1.290   .     A
C981   C983    1.411   .     A
C981   O1042   1.385   .     S
C982   C984    1.394   .     A
C983   C985    1.402   .     A
C984   H1034   1.084   .     S
C984   C986    1.379   .     A
C985   H1035   1.083   .     S
C985   C987    1.378   .     A
C986   H1036   1.083   .     S
C986   C988    1.399   .     A
C987   C989    1.396   .     A
C987   H1037   1.084   .     S
C989   C724    1.446   1_565 S
C990   H1009   1.114   .     S
C990   H1011   1.111   .     S
C990   H1010   1.110   .     S
C990   O1054   1.411   .     S
C991   O1043   1.382   .     S
C991   C1000   1.410   .     A
C992   H1013   1.114   .     S
C992   H1012   1.109   .     S
C992   H1014   1.111   .     S
C992   O1042   1.410   .     S
C993   O1043   1.412   .     S
C993   H1017   1.114   .     S
C994   H1020   1.110   .     S
C994   H1019   1.110   .     S
C994   C289    1.521   1_656 S
C994   H490    1.111   1_556 S
C995   H1022   1.116   .     S
C995   C996    1.521   .     S
C995   O1044   1.411   .     S
C995   H493    1.113   1_556 S
C996   H1023   1.111   .     S
C996   H496    1.110   1_556 S
C996   H497    1.110   1_556 S
C997   H1029   1.109   .     S
C997   H1028   1.111   .     S
C997   H1026   1.112   .     S
C997   O1045   1.410   .     S
C998   H1032   1.114   .     S
C998   H1031   1.111   .     S
C998   H1030   1.109   .     S
C998   O1046   1.412   .     S
C999   C1001   1.410   .     A
C999   O1044   1.381   .     S
C1000  N1039   1.363   .     A
C1000  H1038   1.082   .     S
C1001  N1040   1.362   .     A
C1001  H1006   1.082   .     S
C1002  O1045   1.395   .     S
C1002  C1004   1.426   .     A
C1002  N1039   1.371   .     A
C1003  N1040   1.367   .     A
C1003  O1046   1.384   .     S
C1004  H1007   1.079   .     S
H1005  C799    1.087   1_655 S
H1015  C465    1.114   1_556 S
N1039  Zn1056  2.007   .     S
N1040  Zn1055  2.007   .     S
O1041  Zn1055  2.004   .     S
O1047  Zn1056  2.004   .     S
O1048  Zn1056  1.997   .     S
O1049  Zn1055  1.997   .     S
O1050  Zn1055  1.969   .     S
O1051  Zn1056  1.969   .     S
O1052  Zn1056  1.977   .     S
O1053  Zn1055  1.977   .     S
