data_str_m3_o1_o16_pcu_sym.101
_audit_creation_date              2020-01-03
_audit_creation_method            'Materials Studio'
_symmetry_space_group_name_H-M    'P1'
_symmetry_Int_Tables_number       1
_symmetry_cell_setting            triclinic
loop_
_symmetry_equiv_pos_as_xyz
  x,y,z
_cell_length_a                    29.8805
_cell_length_b                    31.9655
_cell_length_c                    26.5875
_cell_angle_alpha                 90.4399
_cell_angle_beta                  71.9831
_cell_angle_gamma                 91.8550
loop_
_atom_site_label
_atom_site_type_symbol
_atom_site_fract_x
_atom_site_fract_y
_atom_site_fract_z
_atom_site_U_iso_or_equiv
_atom_site_adp_type
_atom_site_occupancy
C1     C     0.16659   0.24698   0.25320   0.00000  Uiso   1.00
C2     C     0.14866   0.17846   0.48948   0.00000  Uiso   1.00
C3     C     0.15970   0.16237   0.43752   0.00000  Uiso   1.00
C4     C     0.18343   0.17824   0.01555   0.00000  Uiso   1.00
C5     C     0.22948   0.16510   0.48834   0.00000  Uiso   1.00
C6     C     0.23905   0.14742   0.43862   0.00000  Uiso   1.00
C7     C     0.20393   0.14398   0.41498   0.00000  Uiso   1.00
C8     C     0.17336   0.18798   0.06902   0.00000  Uiso   1.00
C9     C     0.25517   0.18669   0.06264   0.00000  Uiso   1.00
C10    C     0.12658   0.16619   0.40930   0.00000  Uiso   1.00
C11    C     0.20368   0.31535   0.27040   0.00000  Uiso   1.00
C12    C     0.14109   0.16477   0.35150   0.00000  Uiso   1.00
C13    C     0.19806   0.02434   0.28225   0.00000  Uiso   1.00
C14    C     0.15938   0.04370   0.27450   0.00000  Uiso   1.00
C15    C     0.11848   0.01991   0.27933   0.00000  Uiso   1.00
C16    C     0.12076   0.31015   0.27788   0.00000  Uiso   1.00
C17    C     0.16462   0.29141   0.26549   0.00000  Uiso   1.00
C18    C     0.31827   0.14336   0.21370   0.00000  Uiso   1.00
C19    C     0.03273   0.14311   0.21397   0.00000  Uiso   1.00
C20    C     0.01433   0.18815   0.28731   0.00000  Uiso   1.00
C21    C     0.29995   0.18776   0.28761   0.00000  Uiso   1.00
C22    C     0.16382   0.08735   0.25851   0.00000  Uiso   1.00
C23    C     0.19245   0.17307   0.14973   0.00000  Uiso   1.00
C24    C     0.26560   0.17103   0.01115   0.00000  Uiso   1.00
C25    C     0.20776   0.18444   0.09369   0.00000  Uiso   1.00
C26    C     0.08107   0.17916   0.43561   0.00000  Uiso   1.00
C27    C     0.06992   0.19320   0.48703   0.00000  Uiso   1.00
C28    C     0.10364   0.19488   0.01300   0.00000  Uiso   1.00
H29    H     0.08536   0.03429   0.28410   0.00000  Uiso   1.00
H30    H     0.08874   0.29158   0.28449   0.00000  Uiso   1.00
H31    H     0.02445   0.20533   0.31749   0.00000  Uiso   1.00
H32    H     0.27429   0.20427   0.31839   0.00000  Uiso   1.00
H33    H     0.27349   0.13540   0.41837   0.00000  Uiso   1.00
H34    H     0.30197   0.16835   0.48699   0.00000  Uiso   1.00
H35    H     0.13836   0.19451   0.09346   0.00000  Uiso   1.00
H36    H     0.05489   0.18150   0.41531   0.00000  Uiso   1.00
H37    H     0.09379   0.21000   0.05090   0.00000  Uiso   1.00
H38    H     0.03566   0.20512   0.00555   0.00000  Uiso   1.00
H39    H     0.21282   0.12699   0.37852   0.00000  Uiso   1.00
N40    N     0.04760   0.16668   0.25001   0.00000  Uiso   1.00
N41    N     0.28573   0.16665   0.25000   0.00000  Uiso   1.00
O42    O     0.12846   0.22775   0.25000   0.00000  Uiso   1.00
O43    O     0.20490   0.22774   0.25000   0.00000  Uiso   1.00
O44    O     0.10947   0.16666   0.32681   0.00000  Uiso   1.00
O45    O     0.18591   0.16665   0.32681   0.00000  Uiso   1.00
O46    O     0.12843   0.10559   0.24999   0.00000  Uiso   1.00
O47    O     0.20488   0.10558   0.24999   0.00000  Uiso   1.00
O48    O     0.14742   0.16668   0.17319   0.00000  Uiso   1.00
O49    O     0.22387   0.16667   0.17319   0.00000  Uiso   1.00
Zn50   Zn    0.11562   0.16667   0.25000   0.00000  Uiso   1.00
Zn51   Zn    0.21771   0.16666   0.25000   0.00000  Uiso   1.00
C52    C     0.28537   0.22263   0.06963   0.00000  Uiso   1.00
C53    C     0.31100   0.22170   0.10568   0.00000  Uiso   1.00
C54    C     0.01381   0.25131   0.10235   0.00000  Uiso   1.00
C55    C     0.02213   0.28428   0.06606   0.00000  Uiso   1.00
C56    C     0.32733   0.28774   0.03320   0.00000  Uiso   1.00
C57    C     0.29268   0.25697   0.03463   0.00000  Uiso   1.00
H58    H     0.30465   0.19784   0.13519   0.00000  Uiso   1.00
H59    H     0.03569   0.24838   0.12777   0.00000  Uiso   1.00
H60    H     0.05019   0.30721   0.06361   0.00000  Uiso   1.00
H61    H     0.00004   0.31347   0.00543   0.00000  Uiso   1.00
H62    H     0.27273   0.25900   0.00698   0.00000  Uiso   1.00
C63    C     0.22607   0.04543   0.31294   0.00000  Uiso   1.00
O64    O     0.20627   0.05468   0.35892   0.00000  Uiso   1.00
O65    O     0.27464   0.05237   0.29116   0.00000  Uiso   1.00
H66    H     0.28926   0.06660   0.31677   0.00000  Uiso   1.00
C67    C     0.30365   0.11584   0.17587   0.00000  Uiso   1.00
O68    O     0.31310   0.12601   0.12949   0.00000  Uiso   1.00
O69    O     0.28422   0.07608   0.19155   0.00000  Uiso   1.00
H70    H     0.27614   0.06048   0.16202   0.00000  Uiso   1.00
C71    C     0.06471   0.11410   0.17745   0.00000  Uiso   1.00
C72    C     0.08261   0.12345   0.12340   0.00000  Uiso   1.00
C73    C     0.10954   0.09451   0.08795   0.00000  Uiso   1.00
C74    C     0.11787   0.05562   0.10623   0.00000  Uiso   1.00
C75    C     0.09750   0.04505   0.15945   0.00000  Uiso   1.00
C76    C     0.06943   0.07365   0.19442   0.00000  Uiso   1.00
H77    H     0.07409   0.15259   0.10891   0.00000  Uiso   1.00
H78    H     0.12336   0.10188   0.04627   0.00000  Uiso   1.00
H79    H     0.13888   0.03325   0.07894   0.00000  Uiso   1.00
H80    H     0.10268   0.01440   0.17318   0.00000  Uiso   1.00
H81    H     0.05060   0.06444   0.23454   0.00000  Uiso   1.00
C82    C     0.25195   0.30051   0.25678   0.00000  Uiso   1.00
C83    C     0.27049   0.28858   0.29679   0.00000  Uiso   1.00
C84    C     0.31922   0.28653   0.28597   0.00000  Uiso   1.00
C85    C     0.01589   0.29676   0.23555   0.00000  Uiso   1.00
C86    C     0.33085   0.31038   0.19674   0.00000  Uiso   1.00
C87    C     0.28241   0.31049   0.20638   0.00000  Uiso   1.00
H88    H     0.24744   0.28287   0.33663   0.00000  Uiso   1.00
H89    H     0.00030   0.27780   0.31689   0.00000  Uiso   1.00
H90    H     0.05341   0.29470   0.22593   0.00000  Uiso   1.00
H91    H     0.02099   0.32118   0.15921   0.00000  Uiso   1.00
H92    H     0.26860   0.32115   0.17572   0.00000  Uiso   1.00
C93    C     0.49993   0.24698   0.25320   0.00000  Uiso   1.00
C94    C     0.48199   0.17846   0.48948   0.00000  Uiso   1.00
C95    C     0.49304   0.16237   0.43752   0.00000  Uiso   1.00
C96    C     0.51676   0.17824   0.01555   0.00000  Uiso   1.00
C97    C     0.56281   0.16510   0.48834   0.00000  Uiso   1.00
C98    C     0.57238   0.14742   0.43862   0.00000  Uiso   1.00
C99    C     0.53726   0.14398   0.41498   0.00000  Uiso   1.00
C100   C     0.50669   0.18798   0.06902   0.00000  Uiso   1.00
C101   C     0.58850   0.18669   0.06264   0.00000  Uiso   1.00
C102   C     0.45992   0.16619   0.40930   0.00000  Uiso   1.00
C103   C     0.53701   0.31535   0.27040   0.00000  Uiso   1.00
C104   C     0.47443   0.16477   0.35150   0.00000  Uiso   1.00
C105   C     0.53140   0.02434   0.28225   0.00000  Uiso   1.00
C106   C     0.49271   0.04370   0.27450   0.00000  Uiso   1.00
C107   C     0.45181   0.01991   0.27933   0.00000  Uiso   1.00
C108   C     0.45409   0.31015   0.27788   0.00000  Uiso   1.00
C109   C     0.49795   0.29141   0.26549   0.00000  Uiso   1.00
C110   C     0.65160   0.14336   0.21370   0.00000  Uiso   1.00
C111   C     0.36607   0.14311   0.21397   0.00000  Uiso   1.00
C112   C     0.34767   0.18815   0.28731   0.00000  Uiso   1.00
C113   C     0.63328   0.18776   0.28761   0.00000  Uiso   1.00
C114   C     0.49715   0.08735   0.25851   0.00000  Uiso   1.00
C115   C     0.52579   0.17307   0.14973   0.00000  Uiso   1.00
C116   C     0.59893   0.17103   0.01115   0.00000  Uiso   1.00
C117   C     0.54109   0.18444   0.09369   0.00000  Uiso   1.00
C118   C     0.41440   0.17916   0.43561   0.00000  Uiso   1.00
C119   C     0.40326   0.19320   0.48703   0.00000  Uiso   1.00
C120   C     0.43698   0.19488   0.01300   0.00000  Uiso   1.00
H121   H     0.41869   0.03429   0.28410   0.00000  Uiso   1.00
H122   H     0.42208   0.29158   0.28449   0.00000  Uiso   1.00
H123   H     0.35778   0.20533   0.31749   0.00000  Uiso   1.00
H124   H     0.60763   0.20427   0.31839   0.00000  Uiso   1.00
H125   H     0.60682   0.13540   0.41837   0.00000  Uiso   1.00
H126   H     0.63531   0.16835   0.48699   0.00000  Uiso   1.00
H127   H     0.47169   0.19451   0.09346   0.00000  Uiso   1.00
H128   H     0.38822   0.18150   0.41531   0.00000  Uiso   1.00
H129   H     0.42712   0.21000   0.05090   0.00000  Uiso   1.00
H130   H     0.36900   0.20512   0.00555   0.00000  Uiso   1.00
H131   H     0.54615   0.12699   0.37852   0.00000  Uiso   1.00
N132   N     0.38093   0.16668   0.25001   0.00000  Uiso   1.00
N133   N     0.61906   0.16665   0.25000   0.00000  Uiso   1.00
O134   O     0.46179   0.22775   0.25000   0.00000  Uiso   1.00
O135   O     0.53823   0.22774   0.25000   0.00000  Uiso   1.00
O136   O     0.44280   0.16666   0.32681   0.00000  Uiso   1.00
O137   O     0.51924   0.16665   0.32681   0.00000  Uiso   1.00
O138   O     0.46177   0.10559   0.24999   0.00000  Uiso   1.00
O139   O     0.53821   0.10558   0.24999   0.00000  Uiso   1.00
O140   O     0.48076   0.16668   0.17319   0.00000  Uiso   1.00
O141   O     0.55720   0.16667   0.17319   0.00000  Uiso   1.00
Zn142  Zn    0.44896   0.16667   0.25000   0.00000  Uiso   1.00
Zn143  Zn    0.55104   0.16666   0.25000   0.00000  Uiso   1.00
C144   C     0.61870   0.22263   0.06963   0.00000  Uiso   1.00
C145   C     0.64434   0.22170   0.10568   0.00000  Uiso   1.00
C146   C     0.34715   0.25131   0.10235   0.00000  Uiso   1.00
C147   C     0.35546   0.28428   0.06606   0.00000  Uiso   1.00
C148   C     0.66066   0.28774   0.03320   0.00000  Uiso   1.00
C149   C     0.62601   0.25697   0.03463   0.00000  Uiso   1.00
H150   H     0.63798   0.19784   0.13519   0.00000  Uiso   1.00
H151   H     0.36902   0.24838   0.12777   0.00000  Uiso   1.00
H152   H     0.38353   0.30721   0.06361   0.00000  Uiso   1.00
H153   H     0.33337   0.31347   0.00543   0.00000  Uiso   1.00
H154   H     0.60607   0.25900   0.00698   0.00000  Uiso   1.00
C155   C     0.55940   0.04543   0.31294   0.00000  Uiso   1.00
O156   O     0.53960   0.05468   0.35892   0.00000  Uiso   1.00
O157   O     0.60798   0.05237   0.29116   0.00000  Uiso   1.00
H158   H     0.62260   0.06660   0.31677   0.00000  Uiso   1.00
C159   C     0.63698   0.11584   0.17587   0.00000  Uiso   1.00
O160   O     0.64644   0.12601   0.12949   0.00000  Uiso   1.00
O161   O     0.61755   0.07608   0.19155   0.00000  Uiso   1.00
H162   H     0.60947   0.06048   0.16202   0.00000  Uiso   1.00
C163   C     0.39804   0.11410   0.17745   0.00000  Uiso   1.00
C164   C     0.41594   0.12345   0.12340   0.00000  Uiso   1.00
C165   C     0.44287   0.09451   0.08795   0.00000  Uiso   1.00
C166   C     0.45121   0.05562   0.10623   0.00000  Uiso   1.00
C167   C     0.43083   0.04505   0.15945   0.00000  Uiso   1.00
C168   C     0.40276   0.07365   0.19442   0.00000  Uiso   1.00
H169   H     0.40742   0.15259   0.10891   0.00000  Uiso   1.00
H170   H     0.45669   0.10188   0.04627   0.00000  Uiso   1.00
H171   H     0.47221   0.03325   0.07894   0.00000  Uiso   1.00
H172   H     0.43602   0.01440   0.17318   0.00000  Uiso   1.00
H173   H     0.38393   0.06444   0.23454   0.00000  Uiso   1.00
C174   C     0.58529   0.30051   0.25678   0.00000  Uiso   1.00
C175   C     0.60382   0.28858   0.29679   0.00000  Uiso   1.00
C176   C     0.65255   0.28653   0.28597   0.00000  Uiso   1.00
C177   C     0.34922   0.29676   0.23555   0.00000  Uiso   1.00
C178   C     0.66418   0.31038   0.19674   0.00000  Uiso   1.00
C179   C     0.61575   0.31049   0.20638   0.00000  Uiso   1.00
H180   H     0.58077   0.28287   0.33663   0.00000  Uiso   1.00
H181   H     0.33363   0.27780   0.31689   0.00000  Uiso   1.00
H182   H     0.38674   0.29470   0.22593   0.00000  Uiso   1.00
H183   H     0.35432   0.32118   0.15921   0.00000  Uiso   1.00
H184   H     0.60193   0.32115   0.17572   0.00000  Uiso   1.00
C185   C     0.83326   0.24698   0.25320   0.00000  Uiso   1.00
C186   C     0.81532   0.17846   0.48948   0.00000  Uiso   1.00
C187   C     0.82637   0.16237   0.43752   0.00000  Uiso   1.00
C188   C     0.85010   0.17824   0.01555   0.00000  Uiso   1.00
C189   C     0.89615   0.16510   0.48834   0.00000  Uiso   1.00
C190   C     0.90572   0.14742   0.43862   0.00000  Uiso   1.00
C191   C     0.87060   0.14398   0.41498   0.00000  Uiso   1.00
C192   C     0.84002   0.18798   0.06902   0.00000  Uiso   1.00
C193   C     0.92184   0.18669   0.06264   0.00000  Uiso   1.00
C194   C     0.79325   0.16619   0.40930   0.00000  Uiso   1.00
C195   C     0.87035   0.31535   0.27040   0.00000  Uiso   1.00
C196   C     0.80776   0.16477   0.35150   0.00000  Uiso   1.00
C197   C     0.86473   0.02434   0.28225   0.00000  Uiso   1.00
C198   C     0.82605   0.04370   0.27450   0.00000  Uiso   1.00
C199   C     0.78515   0.01991   0.27933   0.00000  Uiso   1.00
C200   C     0.78742   0.31015   0.27788   0.00000  Uiso   1.00
C201   C     0.83128   0.29141   0.26549   0.00000  Uiso   1.00
C202   C     0.98494   0.14336   0.21370   0.00000  Uiso   1.00
C203   C     0.69940   0.14311   0.21397   0.00000  Uiso   1.00
C204   C     0.68100   0.18815   0.28731   0.00000  Uiso   1.00
C205   C     0.96661   0.18776   0.28761   0.00000  Uiso   1.00
C206   C     0.83048   0.08735   0.25851   0.00000  Uiso   1.00
C207   C     0.85912   0.17307   0.14973   0.00000  Uiso   1.00
C208   C     0.93227   0.17103   0.01115   0.00000  Uiso   1.00
C209   C     0.87443   0.18444   0.09369   0.00000  Uiso   1.00
C210   C     0.74773   0.17916   0.43561   0.00000  Uiso   1.00
C211   C     0.73659   0.19320   0.48703   0.00000  Uiso   1.00
C212   C     0.77031   0.19488   0.01300   0.00000  Uiso   1.00
H213   H     0.75202   0.03429   0.28410   0.00000  Uiso   1.00
H214   H     0.75541   0.29158   0.28449   0.00000  Uiso   1.00
H215   H     0.69111   0.20533   0.31749   0.00000  Uiso   1.00
H216   H     0.94096   0.20427   0.31839   0.00000  Uiso   1.00
H217   H     0.94016   0.13540   0.41837   0.00000  Uiso   1.00
H218   H     0.96864   0.16835   0.48699   0.00000  Uiso   1.00
H219   H     0.80503   0.19451   0.09346   0.00000  Uiso   1.00
H220   H     0.72156   0.18150   0.41531   0.00000  Uiso   1.00
H221   H     0.76046   0.21000   0.05090   0.00000  Uiso   1.00
H222   H     0.70233   0.20512   0.00555   0.00000  Uiso   1.00
H223   H     0.87949   0.12699   0.37852   0.00000  Uiso   1.00
N224   N     0.71426   0.16668   0.25001   0.00000  Uiso   1.00
N225   N     0.95239   0.16665   0.25000   0.00000  Uiso   1.00
O226   O     0.79512   0.22775   0.25000   0.00000  Uiso   1.00
O227   O     0.87157   0.22774   0.25000   0.00000  Uiso   1.00
O228   O     0.77613   0.16666   0.32681   0.00000  Uiso   1.00
O229   O     0.85258   0.16665   0.32681   0.00000  Uiso   1.00
O230   O     0.79510   0.10559   0.24999   0.00000  Uiso   1.00
O231   O     0.87154   0.10558   0.24999   0.00000  Uiso   1.00
O232   O     0.81409   0.16668   0.17319   0.00000  Uiso   1.00
O233   O     0.89053   0.16667   0.17319   0.00000  Uiso   1.00
Zn234  Zn    0.78229   0.16667   0.25000   0.00000  Uiso   1.00
Zn235  Zn    0.88438   0.16666   0.25000   0.00000  Uiso   1.00
C236   C     0.95204   0.22263   0.06963   0.00000  Uiso   1.00
C237   C     0.97767   0.22170   0.10568   0.00000  Uiso   1.00
C238   C     0.68048   0.25131   0.10235   0.00000  Uiso   1.00
C239   C     0.68880   0.28428   0.06606   0.00000  Uiso   1.00
C240   C     0.99400   0.28774   0.03320   0.00000  Uiso   1.00
C241   C     0.95934   0.25697   0.03463   0.00000  Uiso   1.00
H242   H     0.97131   0.19784   0.13519   0.00000  Uiso   1.00
H243   H     0.70236   0.24838   0.12777   0.00000  Uiso   1.00
H244   H     0.71686   0.30721   0.06361   0.00000  Uiso   1.00
H245   H     0.66670   0.31347   0.00543   0.00000  Uiso   1.00
H246   H     0.93940   0.25900   0.00698   0.00000  Uiso   1.00
C247   C     0.89273   0.04543   0.31294   0.00000  Uiso   1.00
O248   O     0.87294   0.05468   0.35892   0.00000  Uiso   1.00
O249   O     0.94131   0.05237   0.29116   0.00000  Uiso   1.00
H250   H     0.95593   0.06660   0.31677   0.00000  Uiso   1.00
C251   C     0.97031   0.11584   0.17587   0.00000  Uiso   1.00
O252   O     0.97977   0.12601   0.12949   0.00000  Uiso   1.00
O253   O     0.95088   0.07608   0.19155   0.00000  Uiso   1.00
H254   H     0.94281   0.06048   0.16202   0.00000  Uiso   1.00
C255   C     0.73138   0.11410   0.17745   0.00000  Uiso   1.00
C256   C     0.74927   0.12345   0.12340   0.00000  Uiso   1.00
C257   C     0.77621   0.09451   0.08795   0.00000  Uiso   1.00
C258   C     0.78454   0.05562   0.10623   0.00000  Uiso   1.00
C259   C     0.76417   0.04505   0.15945   0.00000  Uiso   1.00
C260   C     0.73609   0.07365   0.19442   0.00000  Uiso   1.00
H261   H     0.74076   0.15259   0.10891   0.00000  Uiso   1.00
H262   H     0.79002   0.10188   0.04627   0.00000  Uiso   1.00
H263   H     0.80554   0.03325   0.07894   0.00000  Uiso   1.00
H264   H     0.76935   0.01440   0.17318   0.00000  Uiso   1.00
H265   H     0.71727   0.06444   0.23454   0.00000  Uiso   1.00
C266   C     0.91862   0.30051   0.25678   0.00000  Uiso   1.00
C267   C     0.93715   0.28858   0.29679   0.00000  Uiso   1.00
C268   C     0.98589   0.28653   0.28597   0.00000  Uiso   1.00
C269   C     0.68255   0.29676   0.23555   0.00000  Uiso   1.00
C270   C     0.99752   0.31038   0.19674   0.00000  Uiso   1.00
C271   C     0.94908   0.31049   0.20638   0.00000  Uiso   1.00
H272   H     0.91411   0.28287   0.33663   0.00000  Uiso   1.00
H273   H     0.66697   0.27780   0.31689   0.00000  Uiso   1.00
H274   H     0.72007   0.29470   0.22593   0.00000  Uiso   1.00
H275   H     0.68765   0.32118   0.15921   0.00000  Uiso   1.00
H276   H     0.93527   0.32115   0.17572   0.00000  Uiso   1.00
C277   C     0.16659   0.58032   0.25320   0.00000  Uiso   1.00
C278   C     0.14866   0.51180   0.48948   0.00000  Uiso   1.00
C279   C     0.15970   0.49571   0.43752   0.00000  Uiso   1.00
C280   C     0.18343   0.51157   0.01555   0.00000  Uiso   1.00
C281   C     0.22948   0.49844   0.48834   0.00000  Uiso   1.00
C282   C     0.23905   0.48075   0.43862   0.00000  Uiso   1.00
C283   C     0.20393   0.47731   0.41498   0.00000  Uiso   1.00
C284   C     0.17336   0.52132   0.06902   0.00000  Uiso   1.00
C285   C     0.25517   0.52002   0.06264   0.00000  Uiso   1.00
C286   C     0.12658   0.49953   0.40930   0.00000  Uiso   1.00
C287   C     0.20368   0.64868   0.27040   0.00000  Uiso   1.00
C288   C     0.14109   0.49811   0.35150   0.00000  Uiso   1.00
C289   C     0.19806   0.35767   0.28225   0.00000  Uiso   1.00
C290   C     0.15938   0.37704   0.27450   0.00000  Uiso   1.00
C291   C     0.11848   0.35325   0.27933   0.00000  Uiso   1.00
C292   C     0.12076   0.64348   0.27788   0.00000  Uiso   1.00
C293   C     0.16462   0.62474   0.26549   0.00000  Uiso   1.00
C294   C     0.31827   0.47670   0.21370   0.00000  Uiso   1.00
C295   C     0.03273   0.47645   0.21397   0.00000  Uiso   1.00
C296   C     0.01433   0.52149   0.28731   0.00000  Uiso   1.00
C297   C     0.29995   0.52110   0.28761   0.00000  Uiso   1.00
C298   C     0.16382   0.42068   0.25851   0.00000  Uiso   1.00
C299   C     0.19245   0.50640   0.14973   0.00000  Uiso   1.00
C300   C     0.26560   0.50437   0.01115   0.00000  Uiso   1.00
C301   C     0.20776   0.51777   0.09369   0.00000  Uiso   1.00
C302   C     0.08107   0.51249   0.43561   0.00000  Uiso   1.00
C303   C     0.06992   0.52654   0.48703   0.00000  Uiso   1.00
C304   C     0.10364   0.52821   0.01300   0.00000  Uiso   1.00
H305   H     0.08536   0.36762   0.28410   0.00000  Uiso   1.00
H306   H     0.08874   0.62491   0.28449   0.00000  Uiso   1.00
H307   H     0.02445   0.53866   0.31749   0.00000  Uiso   1.00
H308   H     0.27429   0.53760   0.31839   0.00000  Uiso   1.00
H309   H     0.27349   0.46873   0.41837   0.00000  Uiso   1.00
H310   H     0.30197   0.50169   0.48699   0.00000  Uiso   1.00
H311   H     0.13836   0.52785   0.09346   0.00000  Uiso   1.00
H312   H     0.05489   0.51483   0.41531   0.00000  Uiso   1.00
H313   H     0.09379   0.54333   0.05090   0.00000  Uiso   1.00
H314   H     0.03566   0.53845   0.00555   0.00000  Uiso   1.00
H315   H     0.21282   0.46032   0.37852   0.00000  Uiso   1.00
N316   N     0.04760   0.50001   0.25001   0.00000  Uiso   1.00
N317   N     0.28573   0.49998   0.25000   0.00000  Uiso   1.00
O318   O     0.12846   0.56108   0.25000   0.00000  Uiso   1.00
O319   O     0.20490   0.56107   0.25000   0.00000  Uiso   1.00
O320   O     0.10947   0.50000   0.32681   0.00000  Uiso   1.00
O321   O     0.18591   0.49999   0.32681   0.00000  Uiso   1.00
O322   O     0.12843   0.43893   0.24999   0.00000  Uiso   1.00
O323   O     0.20488   0.43892   0.24999   0.00000  Uiso   1.00
O324   O     0.14742   0.50001   0.17319   0.00000  Uiso   1.00
O325   O     0.22387   0.50000   0.17319   0.00000  Uiso   1.00
Zn326  Zn    0.11562   0.50001   0.25000   0.00000  Uiso   1.00
Zn327  Zn    0.21771   0.49999   0.25000   0.00000  Uiso   1.00
C328   C     0.28537   0.55597   0.06963   0.00000  Uiso   1.00
C329   C     0.31100   0.55504   0.10568   0.00000  Uiso   1.00
C330   C     0.01381   0.58464   0.10235   0.00000  Uiso   1.00
C331   C     0.02213   0.61761   0.06606   0.00000  Uiso   1.00
C332   C     0.32733   0.62107   0.03320   0.00000  Uiso   1.00
C333   C     0.29268   0.59030   0.03463   0.00000  Uiso   1.00
H334   H     0.30465   0.53117   0.13519   0.00000  Uiso   1.00
H335   H     0.03569   0.58171   0.12777   0.00000  Uiso   1.00
H336   H     0.05019   0.64055   0.06361   0.00000  Uiso   1.00
H337   H     0.00004   0.64681   0.00543   0.00000  Uiso   1.00
H338   H     0.27273   0.59233   0.00698   0.00000  Uiso   1.00
C339   C     0.22607   0.37876   0.31294   0.00000  Uiso   1.00
O340   O     0.20627   0.38801   0.35892   0.00000  Uiso   1.00
O341   O     0.27464   0.38570   0.29116   0.00000  Uiso   1.00
H342   H     0.28926   0.39994   0.31677   0.00000  Uiso   1.00
C343   C     0.30365   0.44917   0.17587   0.00000  Uiso   1.00
O344   O     0.31310   0.45934   0.12949   0.00000  Uiso   1.00
O345   O     0.28422   0.40942   0.19155   0.00000  Uiso   1.00
H346   H     0.27614   0.39381   0.16202   0.00000  Uiso   1.00
C347   C     0.06471   0.44744   0.17745   0.00000  Uiso   1.00
C348   C     0.08261   0.45679   0.12340   0.00000  Uiso   1.00
C349   C     0.10954   0.42785   0.08795   0.00000  Uiso   1.00
C350   C     0.11787   0.38896   0.10623   0.00000  Uiso   1.00
C351   C     0.09750   0.37838   0.15945   0.00000  Uiso   1.00
C352   C     0.06943   0.40698   0.19442   0.00000  Uiso   1.00
H353   H     0.07409   0.48592   0.10891   0.00000  Uiso   1.00
H354   H     0.12336   0.43522   0.04627   0.00000  Uiso   1.00
H355   H     0.13888   0.36658   0.07894   0.00000  Uiso   1.00
H356   H     0.10268   0.34774   0.17318   0.00000  Uiso   1.00
H357   H     0.05060   0.39777   0.23454   0.00000  Uiso   1.00
C358   C     0.25195   0.63385   0.25678   0.00000  Uiso   1.00
C359   C     0.27049   0.62191   0.29679   0.00000  Uiso   1.00
C360   C     0.31922   0.61987   0.28597   0.00000  Uiso   1.00
C361   C     0.01589   0.63009   0.23555   0.00000  Uiso   1.00
C362   C     0.33085   0.64371   0.19674   0.00000  Uiso   1.00
C363   C     0.28241   0.64383   0.20638   0.00000  Uiso   1.00
H364   H     0.24744   0.61620   0.33663   0.00000  Uiso   1.00
H365   H     0.00030   0.61114   0.31689   0.00000  Uiso   1.00
H366   H     0.05341   0.62803   0.22593   0.00000  Uiso   1.00
H367   H     0.02099   0.65451   0.15921   0.00000  Uiso   1.00
H368   H     0.26860   0.65448   0.17572   0.00000  Uiso   1.00
C369   C     0.49993   0.58032   0.25320   0.00000  Uiso   1.00
C370   C     0.48199   0.51180   0.48948   0.00000  Uiso   1.00
C371   C     0.49304   0.49571   0.43752   0.00000  Uiso   1.00
C372   C     0.51676   0.51157   0.01555   0.00000  Uiso   1.00
C373   C     0.56281   0.49844   0.48834   0.00000  Uiso   1.00
C374   C     0.57238   0.48075   0.43862   0.00000  Uiso   1.00
C375   C     0.53726   0.47731   0.41498   0.00000  Uiso   1.00
C376   C     0.50669   0.52132   0.06902   0.00000  Uiso   1.00
C377   C     0.58850   0.52002   0.06264   0.00000  Uiso   1.00
C378   C     0.45992   0.49953   0.40930   0.00000  Uiso   1.00
C379   C     0.53701   0.64868   0.27040   0.00000  Uiso   1.00
C380   C     0.47443   0.49811   0.35150   0.00000  Uiso   1.00
C381   C     0.53140   0.35767   0.28225   0.00000  Uiso   1.00
C382   C     0.49271   0.37704   0.27450   0.00000  Uiso   1.00
C383   C     0.45181   0.35325   0.27933   0.00000  Uiso   1.00
C384   C     0.45409   0.64348   0.27788   0.00000  Uiso   1.00
C385   C     0.49795   0.62474   0.26549   0.00000  Uiso   1.00
C386   C     0.65160   0.47670   0.21370   0.00000  Uiso   1.00
C387   C     0.36607   0.47645   0.21397   0.00000  Uiso   1.00
C388   C     0.34767   0.52149   0.28731   0.00000  Uiso   1.00
C389   C     0.63328   0.52110   0.28761   0.00000  Uiso   1.00
C390   C     0.49715   0.42068   0.25851   0.00000  Uiso   1.00
C391   C     0.52579   0.50640   0.14973   0.00000  Uiso   1.00
C392   C     0.59893   0.50437   0.01115   0.00000  Uiso   1.00
C393   C     0.54109   0.51777   0.09369   0.00000  Uiso   1.00
C394   C     0.41440   0.51249   0.43561   0.00000  Uiso   1.00
C395   C     0.40326   0.52654   0.48703   0.00000  Uiso   1.00
C396   C     0.43698   0.52821   0.01300   0.00000  Uiso   1.00
H397   H     0.41869   0.36762   0.28410   0.00000  Uiso   1.00
H398   H     0.42208   0.62491   0.28449   0.00000  Uiso   1.00
H399   H     0.35778   0.53866   0.31749   0.00000  Uiso   1.00
H400   H     0.60763   0.53760   0.31839   0.00000  Uiso   1.00
H401   H     0.60682   0.46873   0.41837   0.00000  Uiso   1.00
H402   H     0.63531   0.50169   0.48699   0.00000  Uiso   1.00
H403   H     0.47169   0.52785   0.09346   0.00000  Uiso   1.00
H404   H     0.38822   0.51483   0.41531   0.00000  Uiso   1.00
H405   H     0.42712   0.54333   0.05090   0.00000  Uiso   1.00
H406   H     0.36900   0.53845   0.00555   0.00000  Uiso   1.00
H407   H     0.54615   0.46032   0.37852   0.00000  Uiso   1.00
N408   N     0.38093   0.50001   0.25001   0.00000  Uiso   1.00
N409   N     0.61906   0.49998   0.25000   0.00000  Uiso   1.00
O410   O     0.46179   0.56108   0.25000   0.00000  Uiso   1.00
O411   O     0.53823   0.56107   0.25000   0.00000  Uiso   1.00
O412   O     0.44280   0.50000   0.32681   0.00000  Uiso   1.00
O413   O     0.51924   0.49999   0.32681   0.00000  Uiso   1.00
O414   O     0.46177   0.43893   0.24999   0.00000  Uiso   1.00
O415   O     0.53821   0.43892   0.24999   0.00000  Uiso   1.00
O416   O     0.48076   0.50001   0.17319   0.00000  Uiso   1.00
O417   O     0.55720   0.50000   0.17319   0.00000  Uiso   1.00
Zn418  Zn    0.44896   0.50001   0.25000   0.00000  Uiso   1.00
Zn419  Zn    0.55104   0.49999   0.25000   0.00000  Uiso   1.00
C420   C     0.61870   0.55597   0.06963   0.00000  Uiso   1.00
C421   C     0.64434   0.55504   0.10568   0.00000  Uiso   1.00
C422   C     0.34715   0.58464   0.10235   0.00000  Uiso   1.00
C423   C     0.35546   0.61761   0.06606   0.00000  Uiso   1.00
C424   C     0.66066   0.62107   0.03320   0.00000  Uiso   1.00
C425   C     0.62601   0.59030   0.03463   0.00000  Uiso   1.00
H426   H     0.63798   0.53117   0.13519   0.00000  Uiso   1.00
H427   H     0.36902   0.58171   0.12777   0.00000  Uiso   1.00
H428   H     0.38353   0.64055   0.06361   0.00000  Uiso   1.00
H429   H     0.33337   0.64681   0.00543   0.00000  Uiso   1.00
H430   H     0.60607   0.59233   0.00698   0.00000  Uiso   1.00
C431   C     0.55940   0.37876   0.31294   0.00000  Uiso   1.00
O432   O     0.53960   0.38801   0.35892   0.00000  Uiso   1.00
O433   O     0.60798   0.38570   0.29116   0.00000  Uiso   1.00
H434   H     0.62260   0.39994   0.31677   0.00000  Uiso   1.00
C435   C     0.63698   0.44917   0.17587   0.00000  Uiso   1.00
O436   O     0.64644   0.45934   0.12949   0.00000  Uiso   1.00
O437   O     0.61755   0.40942   0.19155   0.00000  Uiso   1.00
H438   H     0.60947   0.39381   0.16202   0.00000  Uiso   1.00
C439   C     0.39804   0.44744   0.17745   0.00000  Uiso   1.00
C440   C     0.41594   0.45679   0.12340   0.00000  Uiso   1.00
C441   C     0.44287   0.42785   0.08795   0.00000  Uiso   1.00
C442   C     0.45121   0.38896   0.10623   0.00000  Uiso   1.00
C443   C     0.43083   0.37838   0.15945   0.00000  Uiso   1.00
C444   C     0.40276   0.40698   0.19442   0.00000  Uiso   1.00
H445   H     0.40742   0.48592   0.10891   0.00000  Uiso   1.00
H446   H     0.45669   0.43522   0.04627   0.00000  Uiso   1.00
H447   H     0.47221   0.36658   0.07894   0.00000  Uiso   1.00
H448   H     0.43602   0.34774   0.17318   0.00000  Uiso   1.00
H449   H     0.38393   0.39777   0.23454   0.00000  Uiso   1.00
C450   C     0.58529   0.63385   0.25678   0.00000  Uiso   1.00
C451   C     0.60382   0.62191   0.29679   0.00000  Uiso   1.00
C452   C     0.65255   0.61987   0.28597   0.00000  Uiso   1.00
C453   C     0.34922   0.63009   0.23555   0.00000  Uiso   1.00
C454   C     0.66418   0.64371   0.19674   0.00000  Uiso   1.00
C455   C     0.61575   0.64383   0.20638   0.00000  Uiso   1.00
H456   H     0.58077   0.61620   0.33663   0.00000  Uiso   1.00
H457   H     0.33363   0.61114   0.31689   0.00000  Uiso   1.00
H458   H     0.38674   0.62803   0.22593   0.00000  Uiso   1.00
H459   H     0.35432   0.65451   0.15921   0.00000  Uiso   1.00
H460   H     0.60193   0.65448   0.17572   0.00000  Uiso   1.00
C461   C     0.83326   0.58032   0.25320   0.00000  Uiso   1.00
C462   C     0.81532   0.51180   0.48948   0.00000  Uiso   1.00
C463   C     0.82637   0.49571   0.43752   0.00000  Uiso   1.00
C464   C     0.85010   0.51157   0.01555   0.00000  Uiso   1.00
C465   C     0.89615   0.49844   0.48834   0.00000  Uiso   1.00
C466   C     0.90572   0.48075   0.43862   0.00000  Uiso   1.00
C467   C     0.87060   0.47731   0.41498   0.00000  Uiso   1.00
C468   C     0.84002   0.52132   0.06902   0.00000  Uiso   1.00
C469   C     0.92184   0.52002   0.06264   0.00000  Uiso   1.00
C470   C     0.79325   0.49953   0.40930   0.00000  Uiso   1.00
C471   C     0.87035   0.64868   0.27040   0.00000  Uiso   1.00
C472   C     0.80776   0.49811   0.35150   0.00000  Uiso   1.00
C473   C     0.86473   0.35767   0.28225   0.00000  Uiso   1.00
C474   C     0.82605   0.37704   0.27450   0.00000  Uiso   1.00
C475   C     0.78515   0.35325   0.27933   0.00000  Uiso   1.00
C476   C     0.78742   0.64348   0.27788   0.00000  Uiso   1.00
C477   C     0.83128   0.62474   0.26549   0.00000  Uiso   1.00
C478   C     0.98494   0.47670   0.21370   0.00000  Uiso   1.00
C479   C     0.69940   0.47645   0.21397   0.00000  Uiso   1.00
C480   C     0.68100   0.52149   0.28731   0.00000  Uiso   1.00
C481   C     0.96661   0.52110   0.28761   0.00000  Uiso   1.00
C482   C     0.83048   0.42068   0.25851   0.00000  Uiso   1.00
C483   C     0.85912   0.50640   0.14973   0.00000  Uiso   1.00
C484   C     0.93227   0.50437   0.01115   0.00000  Uiso   1.00
C485   C     0.87443   0.51777   0.09369   0.00000  Uiso   1.00
C486   C     0.74773   0.51249   0.43561   0.00000  Uiso   1.00
C487   C     0.73659   0.52654   0.48703   0.00000  Uiso   1.00
C488   C     0.77031   0.52821   0.01300   0.00000  Uiso   1.00
H489   H     0.75202   0.36762   0.28410   0.00000  Uiso   1.00
H490   H     0.75541   0.62491   0.28449   0.00000  Uiso   1.00
H491   H     0.69111   0.53866   0.31749   0.00000  Uiso   1.00
H492   H     0.94096   0.53760   0.31839   0.00000  Uiso   1.00
H493   H     0.94016   0.46873   0.41837   0.00000  Uiso   1.00
H494   H     0.96864   0.50169   0.48699   0.00000  Uiso   1.00
H495   H     0.80503   0.52785   0.09346   0.00000  Uiso   1.00
H496   H     0.72156   0.51483   0.41531   0.00000  Uiso   1.00
H497   H     0.76046   0.54333   0.05090   0.00000  Uiso   1.00
H498   H     0.70233   0.53845   0.00555   0.00000  Uiso   1.00
H499   H     0.87949   0.46032   0.37852   0.00000  Uiso   1.00
N500   N     0.71426   0.50001   0.25001   0.00000  Uiso   1.00
N501   N     0.95239   0.49998   0.25000   0.00000  Uiso   1.00
O502   O     0.79512   0.56108   0.25000   0.00000  Uiso   1.00
O503   O     0.87157   0.56107   0.25000   0.00000  Uiso   1.00
O504   O     0.77613   0.50000   0.32681   0.00000  Uiso   1.00
O505   O     0.85258   0.49999   0.32681   0.00000  Uiso   1.00
O506   O     0.79510   0.43893   0.24999   0.00000  Uiso   1.00
O507   O     0.87154   0.43892   0.24999   0.00000  Uiso   1.00
O508   O     0.81409   0.50001   0.17319   0.00000  Uiso   1.00
O509   O     0.89053   0.50000   0.17319   0.00000  Uiso   1.00
Zn510  Zn    0.78229   0.50001   0.25000   0.00000  Uiso   1.00
Zn511  Zn    0.88438   0.49999   0.25000   0.00000  Uiso   1.00
C512   C     0.95204   0.55597   0.06963   0.00000  Uiso   1.00
C513   C     0.97767   0.55504   0.10568   0.00000  Uiso   1.00
C514   C     0.68048   0.58464   0.10235   0.00000  Uiso   1.00
C515   C     0.68880   0.61761   0.06606   0.00000  Uiso   1.00
C516   C     0.99400   0.62107   0.03320   0.00000  Uiso   1.00
C517   C     0.95934   0.59030   0.03463   0.00000  Uiso   1.00
H518   H     0.97131   0.53117   0.13519   0.00000  Uiso   1.00
H519   H     0.70236   0.58171   0.12777   0.00000  Uiso   1.00
H520   H     0.71686   0.64055   0.06361   0.00000  Uiso   1.00
H521   H     0.66670   0.64681   0.00543   0.00000  Uiso   1.00
H522   H     0.93940   0.59233   0.00698   0.00000  Uiso   1.00
C523   C     0.89273   0.37876   0.31294   0.00000  Uiso   1.00
O524   O     0.87294   0.38801   0.35892   0.00000  Uiso   1.00
O525   O     0.94131   0.38570   0.29116   0.00000  Uiso   1.00
H526   H     0.95593   0.39994   0.31677   0.00000  Uiso   1.00
C527   C     0.97031   0.44917   0.17587   0.00000  Uiso   1.00
O528   O     0.97977   0.45934   0.12949   0.00000  Uiso   1.00
O529   O     0.95088   0.40942   0.19155   0.00000  Uiso   1.00
H530   H     0.94281   0.39381   0.16202   0.00000  Uiso   1.00
C531   C     0.73138   0.44744   0.17745   0.00000  Uiso   1.00
C532   C     0.74927   0.45679   0.12340   0.00000  Uiso   1.00
C533   C     0.77621   0.42785   0.08795   0.00000  Uiso   1.00
C534   C     0.78454   0.38896   0.10623   0.00000  Uiso   1.00
C535   C     0.76417   0.37838   0.15945   0.00000  Uiso   1.00
C536   C     0.73609   0.40698   0.19442   0.00000  Uiso   1.00
H537   H     0.74076   0.48592   0.10891   0.00000  Uiso   1.00
H538   H     0.79002   0.43522   0.04627   0.00000  Uiso   1.00
H539   H     0.80554   0.36658   0.07894   0.00000  Uiso   1.00
H540   H     0.76935   0.34774   0.17318   0.00000  Uiso   1.00
H541   H     0.71727   0.39777   0.23454   0.00000  Uiso   1.00
C542   C     0.91862   0.63385   0.25678   0.00000  Uiso   1.00
C543   C     0.93715   0.62191   0.29679   0.00000  Uiso   1.00
C544   C     0.98589   0.61987   0.28597   0.00000  Uiso   1.00
C545   C     0.68255   0.63009   0.23555   0.00000  Uiso   1.00
C546   C     0.99752   0.64371   0.19674   0.00000  Uiso   1.00
C547   C     0.94908   0.64383   0.20638   0.00000  Uiso   1.00
H548   H     0.91411   0.61620   0.33663   0.00000  Uiso   1.00
H549   H     0.66697   0.61114   0.31689   0.00000  Uiso   1.00
H550   H     0.72007   0.62803   0.22593   0.00000  Uiso   1.00
H551   H     0.68765   0.65451   0.15921   0.00000  Uiso   1.00
H552   H     0.93527   0.65448   0.17572   0.00000  Uiso   1.00
C553   C     0.16659   0.91365   0.25320   0.00000  Uiso   1.00
C554   C     0.14866   0.84513   0.48948   0.00000  Uiso   1.00
C555   C     0.15970   0.82904   0.43752   0.00000  Uiso   1.00
C556   C     0.18343   0.84490   0.01555   0.00000  Uiso   1.00
C557   C     0.22948   0.83177   0.48834   0.00000  Uiso   1.00
C558   C     0.23905   0.81409   0.43862   0.00000  Uiso   1.00
C559   C     0.20393   0.81064   0.41498   0.00000  Uiso   1.00
C560   C     0.17336   0.85465   0.06902   0.00000  Uiso   1.00
C561   C     0.25517   0.85336   0.06264   0.00000  Uiso   1.00
C562   C     0.12658   0.83286   0.40930   0.00000  Uiso   1.00
C563   C     0.20368   0.98202   0.27040   0.00000  Uiso   1.00
C564   C     0.14109   0.83144   0.35150   0.00000  Uiso   1.00
C565   C     0.19806   0.69101   0.28225   0.00000  Uiso   1.00
C566   C     0.15938   0.71037   0.27450   0.00000  Uiso   1.00
C567   C     0.11848   0.68658   0.27933   0.00000  Uiso   1.00
C568   C     0.12076   0.97682   0.27788   0.00000  Uiso   1.00
C569   C     0.16462   0.95807   0.26549   0.00000  Uiso   1.00
C570   C     0.31827   0.81003   0.21370   0.00000  Uiso   1.00
C571   C     0.03273   0.80978   0.21397   0.00000  Uiso   1.00
C572   C     0.01433   0.85482   0.28731   0.00000  Uiso   1.00
C573   C     0.29995   0.85443   0.28761   0.00000  Uiso   1.00
C574   C     0.16382   0.75401   0.25851   0.00000  Uiso   1.00
C575   C     0.19245   0.83973   0.14973   0.00000  Uiso   1.00
C576   C     0.26560   0.83770   0.01115   0.00000  Uiso   1.00
C577   C     0.20776   0.85110   0.09369   0.00000  Uiso   1.00
C578   C     0.08107   0.84583   0.43561   0.00000  Uiso   1.00
C579   C     0.06992   0.85987   0.48703   0.00000  Uiso   1.00
C580   C     0.10364   0.86154   0.01300   0.00000  Uiso   1.00
H581   H     0.08536   0.70096   0.28410   0.00000  Uiso   1.00
H582   H     0.08874   0.95824   0.28449   0.00000  Uiso   1.00
H583   H     0.02445   0.87199   0.31749   0.00000  Uiso   1.00
H584   H     0.27429   0.87094   0.31839   0.00000  Uiso   1.00
H585   H     0.27349   0.80207   0.41837   0.00000  Uiso   1.00
H586   H     0.30197   0.83502   0.48699   0.00000  Uiso   1.00
H587   H     0.13836   0.86118   0.09346   0.00000  Uiso   1.00
H588   H     0.05489   0.84816   0.41531   0.00000  Uiso   1.00
H589   H     0.09379   0.87667   0.05090   0.00000  Uiso   1.00
H590   H     0.03566   0.87178   0.00555   0.00000  Uiso   1.00
H591   H     0.21282   0.79365   0.37852   0.00000  Uiso   1.00
N592   N     0.04760   0.83334   0.25001   0.00000  Uiso   1.00
N593   N     0.28573   0.83331   0.25000   0.00000  Uiso   1.00
O594   O     0.12846   0.89442   0.25000   0.00000  Uiso   1.00
O595   O     0.20490   0.89441   0.25000   0.00000  Uiso   1.00
O596   O     0.10947   0.83333   0.32681   0.00000  Uiso   1.00
O597   O     0.18591   0.83332   0.32681   0.00000  Uiso   1.00
O598   O     0.12843   0.77226   0.24999   0.00000  Uiso   1.00
O599   O     0.20488   0.77225   0.24999   0.00000  Uiso   1.00
O600   O     0.14742   0.83335   0.17319   0.00000  Uiso   1.00
O601   O     0.22387   0.83334   0.17319   0.00000  Uiso   1.00
Zn602  Zn    0.11562   0.83334   0.25000   0.00000  Uiso   1.00
Zn603  Zn    0.21771   0.83333   0.25000   0.00000  Uiso   1.00
C604   C     0.28537   0.88930   0.06963   0.00000  Uiso   1.00
C605   C     0.31100   0.88837   0.10568   0.00000  Uiso   1.00
C606   C     0.01381   0.91797   0.10235   0.00000  Uiso   1.00
C607   C     0.02213   0.95095   0.06606   0.00000  Uiso   1.00
C608   C     0.32733   0.95441   0.03320   0.00000  Uiso   1.00
C609   C     0.29268   0.92363   0.03463   0.00000  Uiso   1.00
H610   H     0.30465   0.86450   0.13519   0.00000  Uiso   1.00
H611   H     0.03569   0.91504   0.12777   0.00000  Uiso   1.00
H612   H     0.05019   0.97388   0.06361   0.00000  Uiso   1.00
H613   H     0.00004   0.98014   0.00543   0.00000  Uiso   1.00
H614   H     0.27273   0.92566   0.00698   0.00000  Uiso   1.00
C615   C     0.22607   0.71210   0.31294   0.00000  Uiso   1.00
O616   O     0.20627   0.72135   0.35892   0.00000  Uiso   1.00
O617   O     0.27464   0.71904   0.29116   0.00000  Uiso   1.00
H618   H     0.28926   0.73327   0.31677   0.00000  Uiso   1.00
C619   C     0.30365   0.78251   0.17587   0.00000  Uiso   1.00
O620   O     0.31310   0.79267   0.12949   0.00000  Uiso   1.00
O621   O     0.28422   0.74275   0.19155   0.00000  Uiso   1.00
H622   H     0.27614   0.72714   0.16202   0.00000  Uiso   1.00
C623   C     0.06471   0.78077   0.17745   0.00000  Uiso   1.00
C624   C     0.08261   0.79012   0.12340   0.00000  Uiso   1.00
C625   C     0.10954   0.76118   0.08795   0.00000  Uiso   1.00
C626   C     0.11787   0.72229   0.10623   0.00000  Uiso   1.00
C627   C     0.09750   0.71171   0.15945   0.00000  Uiso   1.00
C628   C     0.06943   0.74031   0.19442   0.00000  Uiso   1.00
H629   H     0.07409   0.81925   0.10891   0.00000  Uiso   1.00
H630   H     0.12336   0.76855   0.04627   0.00000  Uiso   1.00
H631   H     0.13888   0.69992   0.07894   0.00000  Uiso   1.00
H632   H     0.10268   0.68107   0.17318   0.00000  Uiso   1.00
H633   H     0.05060   0.73110   0.23454   0.00000  Uiso   1.00
C634   C     0.25195   0.96718   0.25678   0.00000  Uiso   1.00
C635   C     0.27049   0.95524   0.29679   0.00000  Uiso   1.00
C636   C     0.31922   0.95320   0.28597   0.00000  Uiso   1.00
C637   C     0.01589   0.96343   0.23555   0.00000  Uiso   1.00
C638   C     0.33085   0.97704   0.19674   0.00000  Uiso   1.00
C639   C     0.28241   0.97716   0.20638   0.00000  Uiso   1.00
H640   H     0.24744   0.94954   0.33663   0.00000  Uiso   1.00
H641   H     0.00030   0.94447   0.31689   0.00000  Uiso   1.00
H642   H     0.05341   0.96137   0.22593   0.00000  Uiso   1.00
H643   H     0.02099   0.98784   0.15921   0.00000  Uiso   1.00
H644   H     0.26860   0.98782   0.17572   0.00000  Uiso   1.00
C645   C     0.49993   0.91365   0.25320   0.00000  Uiso   1.00
C646   C     0.48199   0.84513   0.48948   0.00000  Uiso   1.00
C647   C     0.49304   0.82904   0.43752   0.00000  Uiso   1.00
C648   C     0.51676   0.84490   0.01555   0.00000  Uiso   1.00
C649   C     0.56281   0.83177   0.48834   0.00000  Uiso   1.00
C650   C     0.57238   0.81409   0.43862   0.00000  Uiso   1.00
C651   C     0.53726   0.81064   0.41498   0.00000  Uiso   1.00
C652   C     0.50669   0.85465   0.06902   0.00000  Uiso   1.00
C653   C     0.58850   0.85336   0.06264   0.00000  Uiso   1.00
C654   C     0.45992   0.83286   0.40930   0.00000  Uiso   1.00
C655   C     0.53701   0.98202   0.27040   0.00000  Uiso   1.00
C656   C     0.47443   0.83144   0.35150   0.00000  Uiso   1.00
C657   C     0.53140   0.69101   0.28225   0.00000  Uiso   1.00
C658   C     0.49271   0.71037   0.27450   0.00000  Uiso   1.00
C659   C     0.45181   0.68658   0.27933   0.00000  Uiso   1.00
C660   C     0.45409   0.97682   0.27788   0.00000  Uiso   1.00
C661   C     0.49795   0.95807   0.26549   0.00000  Uiso   1.00
C662   C     0.65160   0.81003   0.21370   0.00000  Uiso   1.00
C663   C     0.36607   0.80978   0.21397   0.00000  Uiso   1.00
C664   C     0.34767   0.85482   0.28731   0.00000  Uiso   1.00
C665   C     0.63328   0.85443   0.28761   0.00000  Uiso   1.00
C666   C     0.49715   0.75401   0.25851   0.00000  Uiso   1.00
C667   C     0.52579   0.83973   0.14973   0.00000  Uiso   1.00
C668   C     0.59893   0.83770   0.01115   0.00000  Uiso   1.00
C669   C     0.54109   0.85110   0.09369   0.00000  Uiso   1.00
C670   C     0.41440   0.84583   0.43561   0.00000  Uiso   1.00
C671   C     0.40326   0.85987   0.48703   0.00000  Uiso   1.00
C672   C     0.43698   0.86154   0.01300   0.00000  Uiso   1.00
H673   H     0.41869   0.70096   0.28410   0.00000  Uiso   1.00
H674   H     0.42208   0.95824   0.28449   0.00000  Uiso   1.00
H675   H     0.35778   0.87199   0.31749   0.00000  Uiso   1.00
H676   H     0.60763   0.87094   0.31839   0.00000  Uiso   1.00
H677   H     0.60682   0.80207   0.41837   0.00000  Uiso   1.00
H678   H     0.63531   0.83502   0.48699   0.00000  Uiso   1.00
H679   H     0.47169   0.86118   0.09346   0.00000  Uiso   1.00
H680   H     0.38822   0.84816   0.41531   0.00000  Uiso   1.00
H681   H     0.42712   0.87667   0.05090   0.00000  Uiso   1.00
H682   H     0.36900   0.87178   0.00555   0.00000  Uiso   1.00
H683   H     0.54615   0.79365   0.37852   0.00000  Uiso   1.00
N684   N     0.38093   0.83334   0.25001   0.00000  Uiso   1.00
N685   N     0.61906   0.83331   0.25000   0.00000  Uiso   1.00
O686   O     0.46179   0.89442   0.25000   0.00000  Uiso   1.00
O687   O     0.53823   0.89441   0.25000   0.00000  Uiso   1.00
O688   O     0.44280   0.83333   0.32681   0.00000  Uiso   1.00
O689   O     0.51924   0.83332   0.32681   0.00000  Uiso   1.00
O690   O     0.46177   0.77226   0.24999   0.00000  Uiso   1.00
O691   O     0.53821   0.77225   0.24999   0.00000  Uiso   1.00
O692   O     0.48076   0.83335   0.17319   0.00000  Uiso   1.00
O693   O     0.55720   0.83334   0.17319   0.00000  Uiso   1.00
Zn694  Zn    0.44896   0.83334   0.25000   0.00000  Uiso   1.00
Zn695  Zn    0.55104   0.83333   0.25000   0.00000  Uiso   1.00
C696   C     0.61870   0.88930   0.06963   0.00000  Uiso   1.00
C697   C     0.64434   0.88837   0.10568   0.00000  Uiso   1.00
C698   C     0.34715   0.91797   0.10235   0.00000  Uiso   1.00
C699   C     0.35546   0.95095   0.06606   0.00000  Uiso   1.00
C700   C     0.66066   0.95441   0.03320   0.00000  Uiso   1.00
C701   C     0.62601   0.92363   0.03463   0.00000  Uiso   1.00
H702   H     0.63798   0.86450   0.13519   0.00000  Uiso   1.00
H703   H     0.36902   0.91504   0.12777   0.00000  Uiso   1.00
H704   H     0.38353   0.97388   0.06361   0.00000  Uiso   1.00
H705   H     0.33337   0.98014   0.00543   0.00000  Uiso   1.00
H706   H     0.60607   0.92566   0.00698   0.00000  Uiso   1.00
C707   C     0.55940   0.71210   0.31294   0.00000  Uiso   1.00
O708   O     0.53960   0.72135   0.35892   0.00000  Uiso   1.00
O709   O     0.60798   0.71904   0.29116   0.00000  Uiso   1.00
H710   H     0.62260   0.73327   0.31677   0.00000  Uiso   1.00
C711   C     0.63698   0.78251   0.17587   0.00000  Uiso   1.00
O712   O     0.64644   0.79267   0.12949   0.00000  Uiso   1.00
O713   O     0.61755   0.74275   0.19155   0.00000  Uiso   1.00
H714   H     0.60947   0.72714   0.16202   0.00000  Uiso   1.00
C715   C     0.39804   0.78077   0.17745   0.00000  Uiso   1.00
C716   C     0.41594   0.79012   0.12340   0.00000  Uiso   1.00
C717   C     0.44287   0.76118   0.08795   0.00000  Uiso   1.00
C718   C     0.45121   0.72229   0.10623   0.00000  Uiso   1.00
C719   C     0.43083   0.71171   0.15945   0.00000  Uiso   1.00
C720   C     0.40276   0.74031   0.19442   0.00000  Uiso   1.00
H721   H     0.40742   0.81925   0.10891   0.00000  Uiso   1.00
H722   H     0.45669   0.76855   0.04627   0.00000  Uiso   1.00
H723   H     0.47221   0.69992   0.07894   0.00000  Uiso   1.00
H724   H     0.43602   0.68107   0.17318   0.00000  Uiso   1.00
H725   H     0.38393   0.73110   0.23454   0.00000  Uiso   1.00
C726   C     0.58529   0.96718   0.25678   0.00000  Uiso   1.00
C727   C     0.60382   0.95524   0.29679   0.00000  Uiso   1.00
C728   C     0.65255   0.95320   0.28597   0.00000  Uiso   1.00
C729   C     0.34922   0.96343   0.23555   0.00000  Uiso   1.00
C730   C     0.66418   0.97704   0.19674   0.00000  Uiso   1.00
C731   C     0.61575   0.97716   0.20638   0.00000  Uiso   1.00
H732   H     0.58077   0.94954   0.33663   0.00000  Uiso   1.00
H733   H     0.33363   0.94447   0.31689   0.00000  Uiso   1.00
H734   H     0.38674   0.96137   0.22593   0.00000  Uiso   1.00
H735   H     0.35432   0.98784   0.15921   0.00000  Uiso   1.00
H736   H     0.60193   0.98782   0.17572   0.00000  Uiso   1.00
C737   C     0.83326   0.91365   0.25320   0.00000  Uiso   1.00
C738   C     0.81532   0.84513   0.48948   0.00000  Uiso   1.00
C739   C     0.82637   0.82904   0.43752   0.00000  Uiso   1.00
C740   C     0.85010   0.84490   0.01555   0.00000  Uiso   1.00
C741   C     0.89615   0.83177   0.48834   0.00000  Uiso   1.00
C742   C     0.90572   0.81409   0.43862   0.00000  Uiso   1.00
C743   C     0.87060   0.81064   0.41498   0.00000  Uiso   1.00
C744   C     0.84002   0.85465   0.06902   0.00000  Uiso   1.00
C745   C     0.92184   0.85336   0.06264   0.00000  Uiso   1.00
C746   C     0.79325   0.83286   0.40930   0.00000  Uiso   1.00
C747   C     0.87035   0.98202   0.27040   0.00000  Uiso   1.00
C748   C     0.80776   0.83144   0.35150   0.00000  Uiso   1.00
C749   C     0.86473   0.69101   0.28225   0.00000  Uiso   1.00
C750   C     0.82605   0.71037   0.27450   0.00000  Uiso   1.00
C751   C     0.78515   0.68658   0.27933   0.00000  Uiso   1.00
C752   C     0.78742   0.97682   0.27788   0.00000  Uiso   1.00
C753   C     0.83128   0.95807   0.26549   0.00000  Uiso   1.00
C754   C     0.98494   0.81003   0.21370   0.00000  Uiso   1.00
C755   C     0.69940   0.80978   0.21397   0.00000  Uiso   1.00
C756   C     0.68100   0.85482   0.28731   0.00000  Uiso   1.00
C757   C     0.96661   0.85443   0.28761   0.00000  Uiso   1.00
C758   C     0.83048   0.75401   0.25851   0.00000  Uiso   1.00
C759   C     0.85912   0.83973   0.14973   0.00000  Uiso   1.00
C760   C     0.93227   0.83770   0.01115   0.00000  Uiso   1.00
C761   C     0.87443   0.85110   0.09369   0.00000  Uiso   1.00
C762   C     0.74773   0.84583   0.43561   0.00000  Uiso   1.00
C763   C     0.73659   0.85987   0.48703   0.00000  Uiso   1.00
C764   C     0.77031   0.86154   0.01300   0.00000  Uiso   1.00
H765   H     0.75202   0.70096   0.28410   0.00000  Uiso   1.00
H766   H     0.75541   0.95824   0.28449   0.00000  Uiso   1.00
H767   H     0.69111   0.87199   0.31749   0.00000  Uiso   1.00
H768   H     0.94096   0.87094   0.31839   0.00000  Uiso   1.00
H769   H     0.94016   0.80207   0.41837   0.00000  Uiso   1.00
H770   H     0.96864   0.83502   0.48699   0.00000  Uiso   1.00
H771   H     0.80503   0.86118   0.09346   0.00000  Uiso   1.00
H772   H     0.72156   0.84816   0.41531   0.00000  Uiso   1.00
H773   H     0.76046   0.87667   0.05090   0.00000  Uiso   1.00
H774   H     0.70233   0.87178   0.00555   0.00000  Uiso   1.00
H775   H     0.87949   0.79365   0.37852   0.00000  Uiso   1.00
N776   N     0.71426   0.83334   0.25001   0.00000  Uiso   1.00
N777   N     0.95239   0.83331   0.25000   0.00000  Uiso   1.00
O778   O     0.79512   0.89442   0.25000   0.00000  Uiso   1.00
O779   O     0.87157   0.89441   0.25000   0.00000  Uiso   1.00
O780   O     0.77613   0.83333   0.32681   0.00000  Uiso   1.00
O781   O     0.85258   0.83332   0.32681   0.00000  Uiso   1.00
O782   O     0.79510   0.77226   0.24999   0.00000  Uiso   1.00
O783   O     0.87154   0.77225   0.24999   0.00000  Uiso   1.00
O784   O     0.81409   0.83335   0.17319   0.00000  Uiso   1.00
O785   O     0.89053   0.83334   0.17319   0.00000  Uiso   1.00
Zn786  Zn    0.78229   0.83334   0.25000   0.00000  Uiso   1.00
Zn787  Zn    0.88438   0.83333   0.25000   0.00000  Uiso   1.00
C788   C     0.95204   0.88930   0.06963   0.00000  Uiso   1.00
C789   C     0.97767   0.88837   0.10568   0.00000  Uiso   1.00
C790   C     0.68048   0.91797   0.10235   0.00000  Uiso   1.00
C791   C     0.68880   0.95095   0.06606   0.00000  Uiso   1.00
C792   C     0.99400   0.95441   0.03320   0.00000  Uiso   1.00
C793   C     0.95934   0.92363   0.03463   0.00000  Uiso   1.00
H794   H     0.97131   0.86450   0.13519   0.00000  Uiso   1.00
H795   H     0.70236   0.91504   0.12777   0.00000  Uiso   1.00
H796   H     0.71686   0.97388   0.06361   0.00000  Uiso   1.00
H797   H     0.66670   0.98014   0.00543   0.00000  Uiso   1.00
H798   H     0.93940   0.92566   0.00698   0.00000  Uiso   1.00
C799   C     0.89273   0.71210   0.31294   0.00000  Uiso   1.00
O800   O     0.87294   0.72135   0.35892   0.00000  Uiso   1.00
O801   O     0.94131   0.71904   0.29116   0.00000  Uiso   1.00
H802   H     0.95593   0.73327   0.31677   0.00000  Uiso   1.00
C803   C     0.97031   0.78251   0.17587   0.00000  Uiso   1.00
O804   O     0.97977   0.79267   0.12949   0.00000  Uiso   1.00
O805   O     0.95088   0.74275   0.19155   0.00000  Uiso   1.00
H806   H     0.94281   0.72714   0.16202   0.00000  Uiso   1.00
C807   C     0.73138   0.78077   0.17745   0.00000  Uiso   1.00
C808   C     0.74927   0.79012   0.12340   0.00000  Uiso   1.00
C809   C     0.77621   0.76118   0.08795   0.00000  Uiso   1.00
C810   C     0.78454   0.72229   0.10623   0.00000  Uiso   1.00
C811   C     0.76417   0.71171   0.15945   0.00000  Uiso   1.00
C812   C     0.73609   0.74031   0.19442   0.00000  Uiso   1.00
H813   H     0.74076   0.81925   0.10891   0.00000  Uiso   1.00
H814   H     0.79002   0.76855   0.04627   0.00000  Uiso   1.00
H815   H     0.80554   0.69992   0.07894   0.00000  Uiso   1.00
H816   H     0.76935   0.68107   0.17318   0.00000  Uiso   1.00
H817   H     0.71727   0.73110   0.23454   0.00000  Uiso   1.00
C818   C     0.91862   0.96718   0.25678   0.00000  Uiso   1.00
C819   C     0.93715   0.95524   0.29679   0.00000  Uiso   1.00
C820   C     0.98589   0.95320   0.28597   0.00000  Uiso   1.00
C821   C     0.68255   0.96343   0.23555   0.00000  Uiso   1.00
C822   C     0.99752   0.97704   0.19674   0.00000  Uiso   1.00
C823   C     0.94908   0.97716   0.20638   0.00000  Uiso   1.00
H824   H     0.91411   0.94954   0.33663   0.00000  Uiso   1.00
H825   H     0.66697   0.94447   0.31689   0.00000  Uiso   1.00
H826   H     0.72007   0.96137   0.22593   0.00000  Uiso   1.00
H827   H     0.68765   0.98784   0.15921   0.00000  Uiso   1.00
H828   H     0.93527   0.98782   0.17572   0.00000  Uiso   1.00
C829   C     0.16659   0.24698   0.75320   0.00000  Uiso   1.00
C830   C     0.14866   0.17846   0.98948   0.00000  Uiso   1.00
C831   C     0.15970   0.16237   0.93752   0.00000  Uiso   1.00
C832   C     0.18343   0.17824   0.51555   0.00000  Uiso   1.00
C833   C     0.22948   0.16510   0.98834   0.00000  Uiso   1.00
C834   C     0.23905   0.14742   0.93862   0.00000  Uiso   1.00
C835   C     0.20393   0.14398   0.91498   0.00000  Uiso   1.00
C836   C     0.17336   0.18798   0.56902   0.00000  Uiso   1.00
C837   C     0.25517   0.18669   0.56264   0.00000  Uiso   1.00
C838   C     0.12658   0.16619   0.90930   0.00000  Uiso   1.00
C839   C     0.20368   0.31535   0.77040   0.00000  Uiso   1.00
C840   C     0.14109   0.16477   0.85150   0.00000  Uiso   1.00
C841   C     0.19806   0.02434   0.78225   0.00000  Uiso   1.00
C842   C     0.15938   0.04370   0.77450   0.00000  Uiso   1.00
C843   C     0.11848   0.01991   0.77933   0.00000  Uiso   1.00
C844   C     0.12076   0.31015   0.77788   0.00000  Uiso   1.00
C845   C     0.16462   0.29141   0.76549   0.00000  Uiso   1.00
C846   C     0.31827   0.14336   0.71370   0.00000  Uiso   1.00
C847   C     0.03273   0.14311   0.71397   0.00000  Uiso   1.00
C848   C     0.01433   0.18815   0.78731   0.00000  Uiso   1.00
C849   C     0.29995   0.18776   0.78761   0.00000  Uiso   1.00
C850   C     0.16382   0.08735   0.75851   0.00000  Uiso   1.00
C851   C     0.19245   0.17307   0.64973   0.00000  Uiso   1.00
C852   C     0.26560   0.17103   0.51115   0.00000  Uiso   1.00
C853   C     0.20776   0.18444   0.59369   0.00000  Uiso   1.00
C854   C     0.08107   0.17916   0.93561   0.00000  Uiso   1.00
C855   C     0.06992   0.19320   0.98703   0.00000  Uiso   1.00
C856   C     0.10364   0.19488   0.51300   0.00000  Uiso   1.00
H857   H     0.08536   0.03429   0.78410   0.00000  Uiso   1.00
H858   H     0.08874   0.29158   0.78449   0.00000  Uiso   1.00
H859   H     0.02445   0.20533   0.81749   0.00000  Uiso   1.00
H860   H     0.27429   0.20427   0.81839   0.00000  Uiso   1.00
H861   H     0.27349   0.13540   0.91837   0.00000  Uiso   1.00
H862   H     0.30197   0.16835   0.98699   0.00000  Uiso   1.00
H863   H     0.13836   0.19451   0.59346   0.00000  Uiso   1.00
H864   H     0.05489   0.18150   0.91531   0.00000  Uiso   1.00
H865   H     0.09379   0.21000   0.55090   0.00000  Uiso   1.00
H866   H     0.03566   0.20512   0.50555   0.00000  Uiso   1.00
H867   H     0.21282   0.12699   0.87852   0.00000  Uiso   1.00
N868   N     0.04760   0.16668   0.75001   0.00000  Uiso   1.00
N869   N     0.28573   0.16665   0.75000   0.00000  Uiso   1.00
O870   O     0.12846   0.22775   0.75000   0.00000  Uiso   1.00
O871   O     0.20490   0.22774   0.75000   0.00000  Uiso   1.00
O872   O     0.10947   0.16666   0.82681   0.00000  Uiso   1.00
O873   O     0.18591   0.16665   0.82681   0.00000  Uiso   1.00
O874   O     0.12843   0.10559   0.74999   0.00000  Uiso   1.00
O875   O     0.20488   0.10558   0.74999   0.00000  Uiso   1.00
O876   O     0.14742   0.16668   0.67319   0.00000  Uiso   1.00
O877   O     0.22387   0.16667   0.67319   0.00000  Uiso   1.00
Zn878  Zn    0.11562   0.16667   0.75000   0.00000  Uiso   1.00
Zn879  Zn    0.21771   0.16666   0.75000   0.00000  Uiso   1.00
C880   C     0.28537   0.22263   0.56963   0.00000  Uiso   1.00
C881   C     0.31100   0.22170   0.60568   0.00000  Uiso   1.00
C882   C     0.01381   0.25131   0.60235   0.00000  Uiso   1.00
C883   C     0.02213   0.28428   0.56606   0.00000  Uiso   1.00
C884   C     0.32733   0.28774   0.53320   0.00000  Uiso   1.00
C885   C     0.29268   0.25697   0.53463   0.00000  Uiso   1.00
H886   H     0.30465   0.19784   0.63519   0.00000  Uiso   1.00
H887   H     0.03569   0.24838   0.62777   0.00000  Uiso   1.00
H888   H     0.05019   0.30721   0.56361   0.00000  Uiso   1.00
H889   H     0.00004   0.31347   0.50543   0.00000  Uiso   1.00
H890   H     0.27273   0.25900   0.50698   0.00000  Uiso   1.00
C891   C     0.22607   0.04543   0.81294   0.00000  Uiso   1.00
O892   O     0.20627   0.05468   0.85892   0.00000  Uiso   1.00
O893   O     0.27464   0.05237   0.79116   0.00000  Uiso   1.00
H894   H     0.28926   0.06660   0.81677   0.00000  Uiso   1.00
C895   C     0.30365   0.11584   0.67587   0.00000  Uiso   1.00
O896   O     0.31310   0.12601   0.62949   0.00000  Uiso   1.00
O897   O     0.28422   0.07608   0.69155   0.00000  Uiso   1.00
H898   H     0.27614   0.06048   0.66202   0.00000  Uiso   1.00
C899   C     0.06471   0.11410   0.67745   0.00000  Uiso   1.00
C900   C     0.08261   0.12345   0.62340   0.00000  Uiso   1.00
C901   C     0.10954   0.09451   0.58795   0.00000  Uiso   1.00
C902   C     0.11787   0.05562   0.60623   0.00000  Uiso   1.00
C903   C     0.09750   0.04505   0.65945   0.00000  Uiso   1.00
C904   C     0.06943   0.07365   0.69442   0.00000  Uiso   1.00
H905   H     0.07409   0.15259   0.60891   0.00000  Uiso   1.00
H906   H     0.12336   0.10188   0.54627   0.00000  Uiso   1.00
H907   H     0.13888   0.03325   0.57894   0.00000  Uiso   1.00
H908   H     0.10268   0.01440   0.67318   0.00000  Uiso   1.00
H909   H     0.05060   0.06444   0.73454   0.00000  Uiso   1.00
C910   C     0.25195   0.30051   0.75678   0.00000  Uiso   1.00
C911   C     0.27049   0.28858   0.79679   0.00000  Uiso   1.00
C912   C     0.31922   0.28653   0.78597   0.00000  Uiso   1.00
C913   C     0.01589   0.29676   0.73555   0.00000  Uiso   1.00
C914   C     0.33085   0.31038   0.69674   0.00000  Uiso   1.00
C915   C     0.28241   0.31049   0.70638   0.00000  Uiso   1.00
H916   H     0.24744   0.28287   0.83663   0.00000  Uiso   1.00
H917   H     0.00030   0.27780   0.81689   0.00000  Uiso   1.00
H918   H     0.05341   0.29470   0.72593   0.00000  Uiso   1.00
H919   H     0.02099   0.32118   0.65921   0.00000  Uiso   1.00
H920   H     0.26860   0.32115   0.67572   0.00000  Uiso   1.00
C921   C     0.49993   0.24698   0.75320   0.00000  Uiso   1.00
C922   C     0.48199   0.17846   0.98948   0.00000  Uiso   1.00
C923   C     0.49304   0.16237   0.93752   0.00000  Uiso   1.00
C924   C     0.51676   0.17824   0.51555   0.00000  Uiso   1.00
C925   C     0.56281   0.16510   0.98834   0.00000  Uiso   1.00
C926   C     0.57238   0.14742   0.93862   0.00000  Uiso   1.00
C927   C     0.53726   0.14398   0.91498   0.00000  Uiso   1.00
C928   C     0.50669   0.18798   0.56902   0.00000  Uiso   1.00
C929   C     0.58850   0.18669   0.56264   0.00000  Uiso   1.00
C930   C     0.45992   0.16619   0.90930   0.00000  Uiso   1.00
C931   C     0.53701   0.31535   0.77040   0.00000  Uiso   1.00
C932   C     0.47443   0.16477   0.85150   0.00000  Uiso   1.00
C933   C     0.53140   0.02434   0.78225   0.00000  Uiso   1.00
C934   C     0.49271   0.04370   0.77450   0.00000  Uiso   1.00
C935   C     0.45181   0.01991   0.77933   0.00000  Uiso   1.00
C936   C     0.45409   0.31015   0.77788   0.00000  Uiso   1.00
C937   C     0.49795   0.29141   0.76549   0.00000  Uiso   1.00
C938   C     0.65160   0.14336   0.71370   0.00000  Uiso   1.00
C939   C     0.36607   0.14311   0.71397   0.00000  Uiso   1.00
C940   C     0.34767   0.18815   0.78731   0.00000  Uiso   1.00
C941   C     0.63328   0.18776   0.78761   0.00000  Uiso   1.00
C942   C     0.49715   0.08735   0.75851   0.00000  Uiso   1.00
C943   C     0.52579   0.17307   0.64973   0.00000  Uiso   1.00
C944   C     0.59893   0.17103   0.51115   0.00000  Uiso   1.00
C945   C     0.54109   0.18444   0.59369   0.00000  Uiso   1.00
C946   C     0.41440   0.17916   0.93561   0.00000  Uiso   1.00
C947   C     0.40326   0.19320   0.98703   0.00000  Uiso   1.00
C948   C     0.43698   0.19488   0.51300   0.00000  Uiso   1.00
H949   H     0.41869   0.03429   0.78410   0.00000  Uiso   1.00
H950   H     0.42208   0.29158   0.78449   0.00000  Uiso   1.00
H951   H     0.35778   0.20533   0.81749   0.00000  Uiso   1.00
H952   H     0.60763   0.20427   0.81839   0.00000  Uiso   1.00
H953   H     0.60682   0.13540   0.91837   0.00000  Uiso   1.00
H954   H     0.63531   0.16835   0.98699   0.00000  Uiso   1.00
H955   H     0.47169   0.19451   0.59346   0.00000  Uiso   1.00
H956   H     0.38822   0.18150   0.91531   0.00000  Uiso   1.00
H957   H     0.42712   0.21000   0.55090   0.00000  Uiso   1.00
H958   H     0.36900   0.20512   0.50555   0.00000  Uiso   1.00
H959   H     0.54615   0.12699   0.87852   0.00000  Uiso   1.00
N960   N     0.38093   0.16668   0.75001   0.00000  Uiso   1.00
N961   N     0.61906   0.16665   0.75000   0.00000  Uiso   1.00
O962   O     0.46179   0.22775   0.75000   0.00000  Uiso   1.00
O963   O     0.53823   0.22774   0.75000   0.00000  Uiso   1.00
O964   O     0.44280   0.16666   0.82681   0.00000  Uiso   1.00
O965   O     0.51924   0.16665   0.82681   0.00000  Uiso   1.00
O966   O     0.46177   0.10559   0.74999   0.00000  Uiso   1.00
O967   O     0.53821   0.10558   0.74999   0.00000  Uiso   1.00
O968   O     0.48076   0.16668   0.67319   0.00000  Uiso   1.00
O969   O     0.55720   0.16667   0.67319   0.00000  Uiso   1.00
Zn970  Zn    0.44896   0.16667   0.75000   0.00000  Uiso   1.00
Zn971  Zn    0.55104   0.16666   0.75000   0.00000  Uiso   1.00
C972   C     0.61870   0.22263   0.56963   0.00000  Uiso   1.00
C973   C     0.64434   0.22170   0.60568   0.00000  Uiso   1.00
C974   C     0.34715   0.25131   0.60235   0.00000  Uiso   1.00
C975   C     0.35546   0.28428   0.56606   0.00000  Uiso   1.00
C976   C     0.66066   0.28774   0.53320   0.00000  Uiso   1.00
C977   C     0.62601   0.25697   0.53463   0.00000  Uiso   1.00
H978   H     0.63798   0.19784   0.63519   0.00000  Uiso   1.00
H979   H     0.36902   0.24838   0.62777   0.00000  Uiso   1.00
H980   H     0.38353   0.30721   0.56361   0.00000  Uiso   1.00
H981   H     0.33337   0.31347   0.50543   0.00000  Uiso   1.00
H982   H     0.60607   0.25900   0.50698   0.00000  Uiso   1.00
C983   C     0.55940   0.04543   0.81294   0.00000  Uiso   1.00
O984   O     0.53960   0.05468   0.85892   0.00000  Uiso   1.00
O985   O     0.60798   0.05237   0.79116   0.00000  Uiso   1.00
H986   H     0.62260   0.06660   0.81677   0.00000  Uiso   1.00
C987   C     0.63698   0.11584   0.67587   0.00000  Uiso   1.00
O988   O     0.64644   0.12601   0.62949   0.00000  Uiso   1.00
O989   O     0.61755   0.07608   0.69155   0.00000  Uiso   1.00
H990   H     0.60947   0.06048   0.66202   0.00000  Uiso   1.00
C991   C     0.39804   0.11410   0.67745   0.00000  Uiso   1.00
C992   C     0.41594   0.12345   0.62340   0.00000  Uiso   1.00
C993   C     0.44287   0.09451   0.58795   0.00000  Uiso   1.00
C994   C     0.45121   0.05562   0.60623   0.00000  Uiso   1.00
C995   C     0.43083   0.04505   0.65945   0.00000  Uiso   1.00
C996   C     0.40276   0.07365   0.69442   0.00000  Uiso   1.00
H997   H     0.40742   0.15259   0.60891   0.00000  Uiso   1.00
H998   H     0.45669   0.10188   0.54627   0.00000  Uiso   1.00
H999   H     0.47221   0.03325   0.57894   0.00000  Uiso   1.00
H1000  H     0.43602   0.01440   0.67318   0.00000  Uiso   1.00
H1001  H     0.38393   0.06444   0.73454   0.00000  Uiso   1.00
C1002  C     0.58529   0.30051   0.75678   0.00000  Uiso   1.00
C1003  C     0.60382   0.28858   0.79679   0.00000  Uiso   1.00
C1004  C     0.65255   0.28653   0.78597   0.00000  Uiso   1.00
C1005  C     0.34922   0.29676   0.73555   0.00000  Uiso   1.00
C1006  C     0.66418   0.31038   0.69674   0.00000  Uiso   1.00
C1007  C     0.61575   0.31049   0.70638   0.00000  Uiso   1.00
H1008  H     0.58077   0.28287   0.83663   0.00000  Uiso   1.00
H1009  H     0.33363   0.27780   0.81689   0.00000  Uiso   1.00
H1010  H     0.38674   0.29470   0.72593   0.00000  Uiso   1.00
H1011  H     0.35432   0.32118   0.65921   0.00000  Uiso   1.00
H1012  H     0.60193   0.32115   0.67572   0.00000  Uiso   1.00
C1013  C     0.83326   0.24698   0.75320   0.00000  Uiso   1.00
C1014  C     0.81532   0.17846   0.98948   0.00000  Uiso   1.00
C1015  C     0.82637   0.16237   0.93752   0.00000  Uiso   1.00
C1016  C     0.85010   0.17824   0.51555   0.00000  Uiso   1.00
C1017  C     0.89615   0.16510   0.98834   0.00000  Uiso   1.00
C1018  C     0.90572   0.14742   0.93862   0.00000  Uiso   1.00
C1019  C     0.87060   0.14398   0.91498   0.00000  Uiso   1.00
C1020  C     0.84002   0.18798   0.56902   0.00000  Uiso   1.00
C1021  C     0.92184   0.18669   0.56264   0.00000  Uiso   1.00
C1022  C     0.79325   0.16619   0.90930   0.00000  Uiso   1.00
C1023  C     0.87035   0.31535   0.77040   0.00000  Uiso   1.00
C1024  C     0.80776   0.16477   0.85150   0.00000  Uiso   1.00
C1025  C     0.86473   0.02434   0.78225   0.00000  Uiso   1.00
C1026  C     0.82605   0.04370   0.77450   0.00000  Uiso   1.00
C1027  C     0.78515   0.01991   0.77933   0.00000  Uiso   1.00
C1028  C     0.78742   0.31015   0.77788   0.00000  Uiso   1.00
C1029  C     0.83128   0.29141   0.76549   0.00000  Uiso   1.00
C1030  C     0.98494   0.14336   0.71370   0.00000  Uiso   1.00
C1031  C     0.69940   0.14311   0.71397   0.00000  Uiso   1.00
C1032  C     0.68100   0.18815   0.78731   0.00000  Uiso   1.00
C1033  C     0.96661   0.18776   0.78761   0.00000  Uiso   1.00
C1034  C     0.83048   0.08735   0.75851   0.00000  Uiso   1.00
C1035  C     0.85912   0.17307   0.64973   0.00000  Uiso   1.00
C1036  C     0.93227   0.17103   0.51115   0.00000  Uiso   1.00
C1037  C     0.87443   0.18444   0.59369   0.00000  Uiso   1.00
C1038  C     0.74773   0.17916   0.93561   0.00000  Uiso   1.00
C1039  C     0.73659   0.19320   0.98703   0.00000  Uiso   1.00
C1040  C     0.77031   0.19488   0.51300   0.00000  Uiso   1.00
H1041  H     0.75202   0.03429   0.78410   0.00000  Uiso   1.00
H1042  H     0.75541   0.29158   0.78449   0.00000  Uiso   1.00
H1043  H     0.69111   0.20533   0.81749   0.00000  Uiso   1.00
H1044  H     0.94096   0.20427   0.81839   0.00000  Uiso   1.00
H1045  H     0.94016   0.13540   0.91837   0.00000  Uiso   1.00
H1046  H     0.96864   0.16835   0.98699   0.00000  Uiso   1.00
H1047  H     0.80503   0.19451   0.59346   0.00000  Uiso   1.00
H1048  H     0.72156   0.18150   0.91531   0.00000  Uiso   1.00
H1049  H     0.76046   0.21000   0.55090   0.00000  Uiso   1.00
H1050  H     0.70233   0.20512   0.50555   0.00000  Uiso   1.00
H1051  H     0.87949   0.12699   0.87852   0.00000  Uiso   1.00
N1052  N     0.71426   0.16668   0.75001   0.00000  Uiso   1.00
N1053  N     0.95239   0.16665   0.75000   0.00000  Uiso   1.00
O1054  O     0.79512   0.22775   0.75000   0.00000  Uiso   1.00
O1055  O     0.87157   0.22774   0.75000   0.00000  Uiso   1.00
O1056  O     0.77613   0.16666   0.82681   0.00000  Uiso   1.00
O1057  O     0.85258   0.16665   0.82681   0.00000  Uiso   1.00
O1058  O     0.79510   0.10559   0.74999   0.00000  Uiso   1.00
O1059  O     0.87154   0.10558   0.74999   0.00000  Uiso   1.00
O1060  O     0.81409   0.16668   0.67319   0.00000  Uiso   1.00
O1061  O     0.89053   0.16667   0.67319   0.00000  Uiso   1.00
Zn1062 Zn    0.78229   0.16667   0.75000   0.00000  Uiso   1.00
Zn1063 Zn    0.88438   0.16666   0.75000   0.00000  Uiso   1.00
C1064  C     0.95204   0.22263   0.56963   0.00000  Uiso   1.00
C1065  C     0.97767   0.22170   0.60568   0.00000  Uiso   1.00
C1066  C     0.68048   0.25131   0.60235   0.00000  Uiso   1.00
C1067  C     0.68880   0.28428   0.56606   0.00000  Uiso   1.00
C1068  C     0.99400   0.28774   0.53320   0.00000  Uiso   1.00
C1069  C     0.95934   0.25697   0.53463   0.00000  Uiso   1.00
H1070  H     0.97131   0.19784   0.63519   0.00000  Uiso   1.00
H1071  H     0.70236   0.24838   0.62777   0.00000  Uiso   1.00
H1072  H     0.71686   0.30721   0.56361   0.00000  Uiso   1.00
H1073  H     0.66670   0.31347   0.50543   0.00000  Uiso   1.00
H1074  H     0.93940   0.25900   0.50698   0.00000  Uiso   1.00
C1075  C     0.89273   0.04543   0.81294   0.00000  Uiso   1.00
O1076  O     0.87294   0.05468   0.85892   0.00000  Uiso   1.00
O1077  O     0.94131   0.05237   0.79116   0.00000  Uiso   1.00
H1078  H     0.95593   0.06660   0.81677   0.00000  Uiso   1.00
C1079  C     0.97031   0.11584   0.67587   0.00000  Uiso   1.00
O1080  O     0.97977   0.12601   0.62949   0.00000  Uiso   1.00
O1081  O     0.95088   0.07608   0.69155   0.00000  Uiso   1.00
H1082  H     0.94281   0.06048   0.66202   0.00000  Uiso   1.00
C1083  C     0.73138   0.11410   0.67745   0.00000  Uiso   1.00
C1084  C     0.74927   0.12345   0.62340   0.00000  Uiso   1.00
C1085  C     0.77621   0.09451   0.58795   0.00000  Uiso   1.00
C1086  C     0.78454   0.05562   0.60623   0.00000  Uiso   1.00
C1087  C     0.76417   0.04505   0.65945   0.00000  Uiso   1.00
C1088  C     0.73609   0.07365   0.69442   0.00000  Uiso   1.00
H1089  H     0.74076   0.15259   0.60891   0.00000  Uiso   1.00
H1090  H     0.79002   0.10188   0.54627   0.00000  Uiso   1.00
H1091  H     0.80554   0.03325   0.57894   0.00000  Uiso   1.00
H1092  H     0.76935   0.01440   0.67318   0.00000  Uiso   1.00
H1093  H     0.71727   0.06444   0.73454   0.00000  Uiso   1.00
C1094  C     0.91862   0.30051   0.75678   0.00000  Uiso   1.00
C1095  C     0.93715   0.28858   0.79679   0.00000  Uiso   1.00
C1096  C     0.98589   0.28653   0.78597   0.00000  Uiso   1.00
C1097  C     0.68255   0.29676   0.73555   0.00000  Uiso   1.00
C1098  C     0.99752   0.31038   0.69674   0.00000  Uiso   1.00
C1099  C     0.94908   0.31049   0.70638   0.00000  Uiso   1.00
H1100  H     0.91411   0.28287   0.83663   0.00000  Uiso   1.00
H1101  H     0.66697   0.27780   0.81689   0.00000  Uiso   1.00
H1102  H     0.72007   0.29470   0.72593   0.00000  Uiso   1.00
H1103  H     0.68765   0.32118   0.65921   0.00000  Uiso   1.00
H1104  H     0.93527   0.32115   0.67572   0.00000  Uiso   1.00
C1105  C     0.16659   0.58032   0.75320   0.00000  Uiso   1.00
C1106  C     0.14866   0.51180   0.98948   0.00000  Uiso   1.00
C1107  C     0.15970   0.49571   0.93752   0.00000  Uiso   1.00
C1108  C     0.18343   0.51157   0.51555   0.00000  Uiso   1.00
C1109  C     0.22948   0.49844   0.98834   0.00000  Uiso   1.00
C1110  C     0.23905   0.48075   0.93862   0.00000  Uiso   1.00
C1111  C     0.20393   0.47731   0.91498   0.00000  Uiso   1.00
C1112  C     0.17336   0.52132   0.56902   0.00000  Uiso   1.00
C1113  C     0.25517   0.52002   0.56264   0.00000  Uiso   1.00
C1114  C     0.12658   0.49953   0.90930   0.00000  Uiso   1.00
C1115  C     0.20368   0.64868   0.77040   0.00000  Uiso   1.00
C1116  C     0.14109   0.49811   0.85150   0.00000  Uiso   1.00
C1117  C     0.19806   0.35767   0.78225   0.00000  Uiso   1.00
C1118  C     0.15938   0.37704   0.77450   0.00000  Uiso   1.00
C1119  C     0.11848   0.35325   0.77933   0.00000  Uiso   1.00
C1120  C     0.12076   0.64348   0.77788   0.00000  Uiso   1.00
C1121  C     0.16462   0.62474   0.76549   0.00000  Uiso   1.00
C1122  C     0.31827   0.47670   0.71370   0.00000  Uiso   1.00
C1123  C     0.03273   0.47645   0.71397   0.00000  Uiso   1.00
C1124  C     0.01433   0.52149   0.78731   0.00000  Uiso   1.00
C1125  C     0.29995   0.52110   0.78761   0.00000  Uiso   1.00
C1126  C     0.16382   0.42068   0.75851   0.00000  Uiso   1.00
C1127  C     0.19245   0.50640   0.64973   0.00000  Uiso   1.00
C1128  C     0.26560   0.50437   0.51115   0.00000  Uiso   1.00
C1129  C     0.20776   0.51777   0.59369   0.00000  Uiso   1.00
C1130  C     0.08107   0.51249   0.93561   0.00000  Uiso   1.00
C1131  C     0.06992   0.52654   0.98703   0.00000  Uiso   1.00
C1132  C     0.10364   0.52821   0.51300   0.00000  Uiso   1.00
H1133  H     0.08536   0.36762   0.78410   0.00000  Uiso   1.00
H1134  H     0.08874   0.62491   0.78449   0.00000  Uiso   1.00
H1135  H     0.02445   0.53866   0.81749   0.00000  Uiso   1.00
H1136  H     0.27429   0.53760   0.81839   0.00000  Uiso   1.00
H1137  H     0.27349   0.46873   0.91837   0.00000  Uiso   1.00
H1138  H     0.30197   0.50169   0.98699   0.00000  Uiso   1.00
H1139  H     0.13836   0.52785   0.59346   0.00000  Uiso   1.00
H1140  H     0.05489   0.51483   0.91531   0.00000  Uiso   1.00
H1141  H     0.09379   0.54333   0.55090   0.00000  Uiso   1.00
H1142  H     0.03566   0.53845   0.50555   0.00000  Uiso   1.00
H1143  H     0.21282   0.46032   0.87852   0.00000  Uiso   1.00
N1144  N     0.04760   0.50001   0.75001   0.00000  Uiso   1.00
N1145  N     0.28573   0.49998   0.75000   0.00000  Uiso   1.00
O1146  O     0.12846   0.56108   0.75000   0.00000  Uiso   1.00
O1147  O     0.20490   0.56107   0.75000   0.00000  Uiso   1.00
O1148  O     0.10947   0.50000   0.82681   0.00000  Uiso   1.00
O1149  O     0.18591   0.49999   0.82681   0.00000  Uiso   1.00
O1150  O     0.12843   0.43893   0.74999   0.00000  Uiso   1.00
O1151  O     0.20488   0.43892   0.74999   0.00000  Uiso   1.00
O1152  O     0.14742   0.50001   0.67319   0.00000  Uiso   1.00
O1153  O     0.22387   0.50000   0.67319   0.00000  Uiso   1.00
Zn1154 Zn    0.11562   0.50001   0.75000   0.00000  Uiso   1.00
Zn1155 Zn    0.21771   0.49999   0.75000   0.00000  Uiso   1.00
C1156  C     0.28537   0.55597   0.56963   0.00000  Uiso   1.00
C1157  C     0.31100   0.55504   0.60568   0.00000  Uiso   1.00
C1158  C     0.01381   0.58464   0.60235   0.00000  Uiso   1.00
C1159  C     0.02213   0.61761   0.56606   0.00000  Uiso   1.00
C1160  C     0.32733   0.62107   0.53320   0.00000  Uiso   1.00
C1161  C     0.29268   0.59030   0.53463   0.00000  Uiso   1.00
H1162  H     0.30465   0.53117   0.63519   0.00000  Uiso   1.00
H1163  H     0.03569   0.58171   0.62777   0.00000  Uiso   1.00
H1164  H     0.05019   0.64055   0.56361   0.00000  Uiso   1.00
H1165  H     0.00004   0.64681   0.50543   0.00000  Uiso   1.00
H1166  H     0.27273   0.59233   0.50698   0.00000  Uiso   1.00
C1167  C     0.22607   0.37876   0.81294   0.00000  Uiso   1.00
O1168  O     0.20627   0.38801   0.85892   0.00000  Uiso   1.00
O1169  O     0.27464   0.38570   0.79116   0.00000  Uiso   1.00
H1170  H     0.28926   0.39994   0.81677   0.00000  Uiso   1.00
C1171  C     0.30365   0.44917   0.67587   0.00000  Uiso   1.00
O1172  O     0.31310   0.45934   0.62949   0.00000  Uiso   1.00
O1173  O     0.28422   0.40942   0.69155   0.00000  Uiso   1.00
H1174  H     0.27614   0.39381   0.66202   0.00000  Uiso   1.00
C1175  C     0.06471   0.44744   0.67745   0.00000  Uiso   1.00
C1176  C     0.08261   0.45679   0.62340   0.00000  Uiso   1.00
C1177  C     0.10954   0.42785   0.58795   0.00000  Uiso   1.00
C1178  C     0.11787   0.38896   0.60623   0.00000  Uiso   1.00
C1179  C     0.09750   0.37838   0.65945   0.00000  Uiso   1.00
C1180  C     0.06943   0.40698   0.69442   0.00000  Uiso   1.00
H1181  H     0.07409   0.48592   0.60891   0.00000  Uiso   1.00
H1182  H     0.12336   0.43522   0.54627   0.00000  Uiso   1.00
H1183  H     0.13888   0.36658   0.57894   0.00000  Uiso   1.00
H1184  H     0.10268   0.34774   0.67318   0.00000  Uiso   1.00
H1185  H     0.05060   0.39777   0.73454   0.00000  Uiso   1.00
C1186  C     0.25195   0.63385   0.75678   0.00000  Uiso   1.00
C1187  C     0.27049   0.62191   0.79679   0.00000  Uiso   1.00
C1188  C     0.31922   0.61987   0.78597   0.00000  Uiso   1.00
C1189  C     0.01589   0.63009   0.73555   0.00000  Uiso   1.00
C1190  C     0.33085   0.64371   0.69674   0.00000  Uiso   1.00
C1191  C     0.28241   0.64383   0.70638   0.00000  Uiso   1.00
H1192  H     0.24744   0.61620   0.83663   0.00000  Uiso   1.00
H1193  H     0.00030   0.61114   0.81689   0.00000  Uiso   1.00
H1194  H     0.05341   0.62803   0.72593   0.00000  Uiso   1.00
H1195  H     0.02099   0.65451   0.65921   0.00000  Uiso   1.00
H1196  H     0.26860   0.65448   0.67572   0.00000  Uiso   1.00
C1197  C     0.49993   0.58032   0.75320   0.00000  Uiso   1.00
C1198  C     0.48199   0.51180   0.98948   0.00000  Uiso   1.00
C1199  C     0.49304   0.49571   0.93752   0.00000  Uiso   1.00
C1200  C     0.51676   0.51157   0.51555   0.00000  Uiso   1.00
C1201  C     0.56281   0.49844   0.98834   0.00000  Uiso   1.00
C1202  C     0.57238   0.48075   0.93862   0.00000  Uiso   1.00
C1203  C     0.53726   0.47731   0.91498   0.00000  Uiso   1.00
C1204  C     0.50669   0.52132   0.56902   0.00000  Uiso   1.00
C1205  C     0.58850   0.52002   0.56264   0.00000  Uiso   1.00
C1206  C     0.45992   0.49953   0.90930   0.00000  Uiso   1.00
C1207  C     0.53701   0.64868   0.77040   0.00000  Uiso   1.00
C1208  C     0.47443   0.49811   0.85150   0.00000  Uiso   1.00
C1209  C     0.53140   0.35767   0.78225   0.00000  Uiso   1.00
C1210  C     0.49271   0.37704   0.77450   0.00000  Uiso   1.00
C1211  C     0.45181   0.35325   0.77933   0.00000  Uiso   1.00
C1212  C     0.45409   0.64348   0.77788   0.00000  Uiso   1.00
C1213  C     0.49795   0.62474   0.76549   0.00000  Uiso   1.00
C1214  C     0.65160   0.47670   0.71370   0.00000  Uiso   1.00
C1215  C     0.36607   0.47645   0.71397   0.00000  Uiso   1.00
C1216  C     0.34767   0.52149   0.78731   0.00000  Uiso   1.00
C1217  C     0.63328   0.52110   0.78761   0.00000  Uiso   1.00
C1218  C     0.49715   0.42068   0.75851   0.00000  Uiso   1.00
C1219  C     0.52579   0.50640   0.64973   0.00000  Uiso   1.00
C1220  C     0.59893   0.50437   0.51115   0.00000  Uiso   1.00
C1221  C     0.54109   0.51777   0.59369   0.00000  Uiso   1.00
C1222  C     0.41440   0.51249   0.93561   0.00000  Uiso   1.00
C1223  C     0.40326   0.52654   0.98703   0.00000  Uiso   1.00
C1224  C     0.43698   0.52821   0.51300   0.00000  Uiso   1.00
H1225  H     0.41869   0.36762   0.78410   0.00000  Uiso   1.00
H1226  H     0.42208   0.62491   0.78449   0.00000  Uiso   1.00
H1227  H     0.35778   0.53866   0.81749   0.00000  Uiso   1.00
H1228  H     0.60763   0.53760   0.81839   0.00000  Uiso   1.00
H1229  H     0.60682   0.46873   0.91837   0.00000  Uiso   1.00
H1230  H     0.63531   0.50169   0.98699   0.00000  Uiso   1.00
H1231  H     0.47169   0.52785   0.59346   0.00000  Uiso   1.00
H1232  H     0.38822   0.51483   0.91531   0.00000  Uiso   1.00
H1233  H     0.42712   0.54333   0.55090   0.00000  Uiso   1.00
H1234  H     0.36900   0.53845   0.50555   0.00000  Uiso   1.00
H1235  H     0.54615   0.46032   0.87852   0.00000  Uiso   1.00
N1236  N     0.38093   0.50001   0.75001   0.00000  Uiso   1.00
N1237  N     0.61906   0.49998   0.75000   0.00000  Uiso   1.00
O1238  O     0.46179   0.56108   0.75000   0.00000  Uiso   1.00
O1239  O     0.53823   0.56107   0.75000   0.00000  Uiso   1.00
O1240  O     0.44280   0.50000   0.82681   0.00000  Uiso   1.00
O1241  O     0.51924   0.49999   0.82681   0.00000  Uiso   1.00
O1242  O     0.46177   0.43893   0.74999   0.00000  Uiso   1.00
O1243  O     0.53821   0.43892   0.74999   0.00000  Uiso   1.00
O1244  O     0.48076   0.50001   0.67319   0.00000  Uiso   1.00
O1245  O     0.55720   0.50000   0.67319   0.00000  Uiso   1.00
Zn1246 Zn    0.44896   0.50001   0.75000   0.00000  Uiso   1.00
Zn1247 Zn    0.55104   0.49999   0.75000   0.00000  Uiso   1.00
C1248  C     0.61870   0.55597   0.56963   0.00000  Uiso   1.00
C1249  C     0.64434   0.55504   0.60568   0.00000  Uiso   1.00
C1250  C     0.34715   0.58464   0.60235   0.00000  Uiso   1.00
C1251  C     0.35546   0.61761   0.56606   0.00000  Uiso   1.00
C1252  C     0.66066   0.62107   0.53320   0.00000  Uiso   1.00
C1253  C     0.62601   0.59030   0.53463   0.00000  Uiso   1.00
H1254  H     0.63798   0.53117   0.63519   0.00000  Uiso   1.00
H1255  H     0.36902   0.58171   0.62777   0.00000  Uiso   1.00
H1256  H     0.38353   0.64055   0.56361   0.00000  Uiso   1.00
H1257  H     0.33337   0.64681   0.50543   0.00000  Uiso   1.00
H1258  H     0.60607   0.59233   0.50698   0.00000  Uiso   1.00
C1259  C     0.55940   0.37876   0.81294   0.00000  Uiso   1.00
O1260  O     0.53960   0.38801   0.85892   0.00000  Uiso   1.00
O1261  O     0.60798   0.38570   0.79116   0.00000  Uiso   1.00
H1262  H     0.62260   0.39994   0.81677   0.00000  Uiso   1.00
C1263  C     0.63698   0.44917   0.67587   0.00000  Uiso   1.00
O1264  O     0.64644   0.45934   0.62949   0.00000  Uiso   1.00
O1265  O     0.61755   0.40942   0.69155   0.00000  Uiso   1.00
H1266  H     0.60947   0.39381   0.66202   0.00000  Uiso   1.00
C1267  C     0.39804   0.44744   0.67745   0.00000  Uiso   1.00
C1268  C     0.41594   0.45679   0.62340   0.00000  Uiso   1.00
C1269  C     0.44287   0.42785   0.58795   0.00000  Uiso   1.00
C1270  C     0.45121   0.38896   0.60623   0.00000  Uiso   1.00
C1271  C     0.43083   0.37838   0.65945   0.00000  Uiso   1.00
C1272  C     0.40276   0.40698   0.69442   0.00000  Uiso   1.00
H1273  H     0.40742   0.48592   0.60891   0.00000  Uiso   1.00
H1274  H     0.45669   0.43522   0.54627   0.00000  Uiso   1.00
H1275  H     0.47221   0.36658   0.57894   0.00000  Uiso   1.00
H1276  H     0.43602   0.34774   0.67318   0.00000  Uiso   1.00
H1277  H     0.38393   0.39777   0.73454   0.00000  Uiso   1.00
C1278  C     0.58529   0.63385   0.75678   0.00000  Uiso   1.00
C1279  C     0.60382   0.62191   0.79679   0.00000  Uiso   1.00
C1280  C     0.65255   0.61987   0.78597   0.00000  Uiso   1.00
C1281  C     0.34922   0.63009   0.73555   0.00000  Uiso   1.00
C1282  C     0.66418   0.64371   0.69674   0.00000  Uiso   1.00
C1283  C     0.61575   0.64383   0.70638   0.00000  Uiso   1.00
H1284  H     0.58077   0.61620   0.83663   0.00000  Uiso   1.00
H1285  H     0.33363   0.61114   0.81689   0.00000  Uiso   1.00
H1286  H     0.38674   0.62803   0.72593   0.00000  Uiso   1.00
H1287  H     0.35432   0.65451   0.65921   0.00000  Uiso   1.00
H1288  H     0.60193   0.65448   0.67572   0.00000  Uiso   1.00
C1289  C     0.83326   0.58032   0.75320   0.00000  Uiso   1.00
C1290  C     0.81532   0.51180   0.98948   0.00000  Uiso   1.00
C1291  C     0.82637   0.49571   0.93752   0.00000  Uiso   1.00
C1292  C     0.85010   0.51157   0.51555   0.00000  Uiso   1.00
C1293  C     0.89615   0.49844   0.98834   0.00000  Uiso   1.00
C1294  C     0.90572   0.48075   0.93862   0.00000  Uiso   1.00
C1295  C     0.87060   0.47731   0.91498   0.00000  Uiso   1.00
C1296  C     0.84002   0.52132   0.56902   0.00000  Uiso   1.00
C1297  C     0.92184   0.52002   0.56264   0.00000  Uiso   1.00
C1298  C     0.79325   0.49953   0.90930   0.00000  Uiso   1.00
C1299  C     0.87035   0.64868   0.77040   0.00000  Uiso   1.00
C1300  C     0.80776   0.49811   0.85150   0.00000  Uiso   1.00
C1301  C     0.86473   0.35767   0.78225   0.00000  Uiso   1.00
C1302  C     0.82605   0.37704   0.77450   0.00000  Uiso   1.00
C1303  C     0.78515   0.35325   0.77933   0.00000  Uiso   1.00
C1304  C     0.78742   0.64348   0.77788   0.00000  Uiso   1.00
C1305  C     0.83128   0.62474   0.76549   0.00000  Uiso   1.00
C1306  C     0.98494   0.47670   0.71370   0.00000  Uiso   1.00
C1307  C     0.69940   0.47645   0.71397   0.00000  Uiso   1.00
C1308  C     0.68100   0.52149   0.78731   0.00000  Uiso   1.00
C1309  C     0.96661   0.52110   0.78761   0.00000  Uiso   1.00
C1310  C     0.83048   0.42068   0.75851   0.00000  Uiso   1.00
C1311  C     0.85912   0.50640   0.64973   0.00000  Uiso   1.00
C1312  C     0.93227   0.50437   0.51115   0.00000  Uiso   1.00
C1313  C     0.87443   0.51777   0.59369   0.00000  Uiso   1.00
C1314  C     0.74773   0.51249   0.93561   0.00000  Uiso   1.00
C1315  C     0.73659   0.52654   0.98703   0.00000  Uiso   1.00
C1316  C     0.77031   0.52821   0.51300   0.00000  Uiso   1.00
H1317  H     0.75202   0.36762   0.78410   0.00000  Uiso   1.00
H1318  H     0.75541   0.62491   0.78449   0.00000  Uiso   1.00
H1319  H     0.69111   0.53866   0.81749   0.00000  Uiso   1.00
H1320  H     0.94096   0.53760   0.81839   0.00000  Uiso   1.00
H1321  H     0.94016   0.46873   0.91837   0.00000  Uiso   1.00
H1322  H     0.96864   0.50169   0.98699   0.00000  Uiso   1.00
H1323  H     0.80503   0.52785   0.59346   0.00000  Uiso   1.00
H1324  H     0.72156   0.51483   0.91531   0.00000  Uiso   1.00
H1325  H     0.76046   0.54333   0.55090   0.00000  Uiso   1.00
H1326  H     0.70233   0.53845   0.50555   0.00000  Uiso   1.00
H1327  H     0.87949   0.46032   0.87852   0.00000  Uiso   1.00
N1328  N     0.71426   0.50001   0.75001   0.00000  Uiso   1.00
N1329  N     0.95239   0.49998   0.75000   0.00000  Uiso   1.00
O1330  O     0.79512   0.56108   0.75000   0.00000  Uiso   1.00
O1331  O     0.87157   0.56107   0.75000   0.00000  Uiso   1.00
O1332  O     0.77613   0.50000   0.82681   0.00000  Uiso   1.00
O1333  O     0.85258   0.49999   0.82681   0.00000  Uiso   1.00
O1334  O     0.79510   0.43893   0.74999   0.00000  Uiso   1.00
O1335  O     0.87154   0.43892   0.74999   0.00000  Uiso   1.00
O1336  O     0.81409   0.50001   0.67319   0.00000  Uiso   1.00
O1337  O     0.89053   0.50000   0.67319   0.00000  Uiso   1.00
Zn1338 Zn    0.78229   0.50001   0.75000   0.00000  Uiso   1.00
Zn1339 Zn    0.88438   0.49999   0.75000   0.00000  Uiso   1.00
C1340  C     0.95204   0.55597   0.56963   0.00000  Uiso   1.00
C1341  C     0.97767   0.55504   0.60568   0.00000  Uiso   1.00
C1342  C     0.68048   0.58464   0.60235   0.00000  Uiso   1.00
C1343  C     0.68880   0.61761   0.56606   0.00000  Uiso   1.00
C1344  C     0.99400   0.62107   0.53320   0.00000  Uiso   1.00
C1345  C     0.95934   0.59030   0.53463   0.00000  Uiso   1.00
H1346  H     0.97131   0.53117   0.63519   0.00000  Uiso   1.00
H1347  H     0.70236   0.58171   0.62777   0.00000  Uiso   1.00
H1348  H     0.71686   0.64055   0.56361   0.00000  Uiso   1.00
H1349  H     0.66670   0.64681   0.50543   0.00000  Uiso   1.00
H1350  H     0.93940   0.59233   0.50698   0.00000  Uiso   1.00
C1351  C     0.89273   0.37876   0.81294   0.00000  Uiso   1.00
O1352  O     0.87294   0.38801   0.85892   0.00000  Uiso   1.00
O1353  O     0.94131   0.38570   0.79116   0.00000  Uiso   1.00
H1354  H     0.95593   0.39994   0.81677   0.00000  Uiso   1.00
C1355  C     0.97031   0.44917   0.67587   0.00000  Uiso   1.00
O1356  O     0.97977   0.45934   0.62949   0.00000  Uiso   1.00
O1357  O     0.95088   0.40942   0.69155   0.00000  Uiso   1.00
H1358  H     0.94281   0.39381   0.66202   0.00000  Uiso   1.00
C1359  C     0.73138   0.44744   0.67745   0.00000  Uiso   1.00
C1360  C     0.74927   0.45679   0.62340   0.00000  Uiso   1.00
C1361  C     0.77621   0.42785   0.58795   0.00000  Uiso   1.00
C1362  C     0.78454   0.38896   0.60623   0.00000  Uiso   1.00
C1363  C     0.76417   0.37838   0.65945   0.00000  Uiso   1.00
C1364  C     0.73609   0.40698   0.69442   0.00000  Uiso   1.00
H1365  H     0.74076   0.48592   0.60891   0.00000  Uiso   1.00
H1366  H     0.79002   0.43522   0.54627   0.00000  Uiso   1.00
H1367  H     0.80554   0.36658   0.57894   0.00000  Uiso   1.00
H1368  H     0.76935   0.34774   0.67318   0.00000  Uiso   1.00
H1369  H     0.71727   0.39777   0.73454   0.00000  Uiso   1.00
C1370  C     0.91862   0.63385   0.75678   0.00000  Uiso   1.00
C1371  C     0.93715   0.62191   0.79679   0.00000  Uiso   1.00
C1372  C     0.98589   0.61987   0.78597   0.00000  Uiso   1.00
C1373  C     0.68255   0.63009   0.73555   0.00000  Uiso   1.00
C1374  C     0.99752   0.64371   0.69674   0.00000  Uiso   1.00
C1375  C     0.94908   0.64383   0.70638   0.00000  Uiso   1.00
H1376  H     0.91411   0.61620   0.83663   0.00000  Uiso   1.00
H1377  H     0.66697   0.61114   0.81689   0.00000  Uiso   1.00
H1378  H     0.72007   0.62803   0.72593   0.00000  Uiso   1.00
H1379  H     0.68765   0.65451   0.65921   0.00000  Uiso   1.00
H1380  H     0.93527   0.65448   0.67572   0.00000  Uiso   1.00
C1381  C     0.16659   0.91365   0.75320   0.00000  Uiso   1.00
C1382  C     0.14866   0.84513   0.98948   0.00000  Uiso   1.00
C1383  C     0.15970   0.82904   0.93752   0.00000  Uiso   1.00
C1384  C     0.18343   0.84490   0.51555   0.00000  Uiso   1.00
C1385  C     0.22948   0.83177   0.98834   0.00000  Uiso   1.00
C1386  C     0.23905   0.81409   0.93862   0.00000  Uiso   1.00
C1387  C     0.20393   0.81064   0.91498   0.00000  Uiso   1.00
C1388  C     0.17336   0.85465   0.56902   0.00000  Uiso   1.00
C1389  C     0.25517   0.85336   0.56264   0.00000  Uiso   1.00
C1390  C     0.12658   0.83286   0.90930   0.00000  Uiso   1.00
C1391  C     0.20368   0.98202   0.77040   0.00000  Uiso   1.00
C1392  C     0.14109   0.83144   0.85150   0.00000  Uiso   1.00
C1393  C     0.19806   0.69101   0.78225   0.00000  Uiso   1.00
C1394  C     0.15938   0.71037   0.77450   0.00000  Uiso   1.00
C1395  C     0.11848   0.68658   0.77933   0.00000  Uiso   1.00
C1396  C     0.12076   0.97682   0.77788   0.00000  Uiso   1.00
C1397  C     0.16462   0.95807   0.76549   0.00000  Uiso   1.00
C1398  C     0.31827   0.81003   0.71370   0.00000  Uiso   1.00
C1399  C     0.03273   0.80978   0.71397   0.00000  Uiso   1.00
C1400  C     0.01433   0.85482   0.78731   0.00000  Uiso   1.00
C1401  C     0.29995   0.85443   0.78761   0.00000  Uiso   1.00
C1402  C     0.16382   0.75401   0.75851   0.00000  Uiso   1.00
C1403  C     0.19245   0.83973   0.64973   0.00000  Uiso   1.00
C1404  C     0.26560   0.83770   0.51115   0.00000  Uiso   1.00
C1405  C     0.20776   0.85110   0.59369   0.00000  Uiso   1.00
C1406  C     0.08107   0.84583   0.93561   0.00000  Uiso   1.00
C1407  C     0.06992   0.85987   0.98703   0.00000  Uiso   1.00
C1408  C     0.10364   0.86154   0.51300   0.00000  Uiso   1.00
H1409  H     0.08536   0.70096   0.78410   0.00000  Uiso   1.00
H1410  H     0.08874   0.95824   0.78449   0.00000  Uiso   1.00
H1411  H     0.02445   0.87199   0.81749   0.00000  Uiso   1.00
H1412  H     0.27429   0.87094   0.81839   0.00000  Uiso   1.00
H1413  H     0.27349   0.80207   0.91837   0.00000  Uiso   1.00
H1414  H     0.30197   0.83502   0.98699   0.00000  Uiso   1.00
H1415  H     0.13836   0.86118   0.59346   0.00000  Uiso   1.00
H1416  H     0.05489   0.84816   0.91531   0.00000  Uiso   1.00
H1417  H     0.09379   0.87667   0.55090   0.00000  Uiso   1.00
H1418  H     0.03566   0.87178   0.50555   0.00000  Uiso   1.00
H1419  H     0.21282   0.79365   0.87852   0.00000  Uiso   1.00
N1420  N     0.04760   0.83334   0.75001   0.00000  Uiso   1.00
N1421  N     0.28573   0.83331   0.75000   0.00000  Uiso   1.00
O1422  O     0.12846   0.89442   0.75000   0.00000  Uiso   1.00
O1423  O     0.20490   0.89441   0.75000   0.00000  Uiso   1.00
O1424  O     0.10947   0.83333   0.82681   0.00000  Uiso   1.00
O1425  O     0.18591   0.83332   0.82681   0.00000  Uiso   1.00
O1426  O     0.12843   0.77226   0.74999   0.00000  Uiso   1.00
O1427  O     0.20488   0.77225   0.74999   0.00000  Uiso   1.00
O1428  O     0.14742   0.83335   0.67319   0.00000  Uiso   1.00
O1429  O     0.22387   0.83334   0.67319   0.00000  Uiso   1.00
Zn1430 Zn    0.11562   0.83334   0.75000   0.00000  Uiso   1.00
Zn1431 Zn    0.21771   0.83333   0.75000   0.00000  Uiso   1.00
C1432  C     0.28537   0.88930   0.56963   0.00000  Uiso   1.00
C1433  C     0.31100   0.88837   0.60568   0.00000  Uiso   1.00
C1434  C     0.01381   0.91797   0.60235   0.00000  Uiso   1.00
C1435  C     0.02213   0.95095   0.56606   0.00000  Uiso   1.00
C1436  C     0.32733   0.95441   0.53320   0.00000  Uiso   1.00
C1437  C     0.29268   0.92363   0.53463   0.00000  Uiso   1.00
H1438  H     0.30465   0.86450   0.63519   0.00000  Uiso   1.00
H1439  H     0.03569   0.91504   0.62777   0.00000  Uiso   1.00
H1440  H     0.05019   0.97388   0.56361   0.00000  Uiso   1.00
H1441  H     0.00004   0.98014   0.50543   0.00000  Uiso   1.00
H1442  H     0.27273   0.92566   0.50698   0.00000  Uiso   1.00
C1443  C     0.22607   0.71210   0.81294   0.00000  Uiso   1.00
O1444  O     0.20627   0.72135   0.85892   0.00000  Uiso   1.00
O1445  O     0.27464   0.71904   0.79116   0.00000  Uiso   1.00
H1446  H     0.28926   0.73327   0.81677   0.00000  Uiso   1.00
C1447  C     0.30365   0.78251   0.67587   0.00000  Uiso   1.00
O1448  O     0.31310   0.79267   0.62949   0.00000  Uiso   1.00
O1449  O     0.28422   0.74275   0.69155   0.00000  Uiso   1.00
H1450  H     0.27614   0.72714   0.66202   0.00000  Uiso   1.00
C1451  C     0.06471   0.78077   0.67745   0.00000  Uiso   1.00
C1452  C     0.08261   0.79012   0.62340   0.00000  Uiso   1.00
C1453  C     0.10954   0.76118   0.58795   0.00000  Uiso   1.00
C1454  C     0.11787   0.72229   0.60623   0.00000  Uiso   1.00
C1455  C     0.09750   0.71171   0.65945   0.00000  Uiso   1.00
C1456  C     0.06943   0.74031   0.69442   0.00000  Uiso   1.00
H1457  H     0.07409   0.81925   0.60891   0.00000  Uiso   1.00
H1458  H     0.12336   0.76855   0.54627   0.00000  Uiso   1.00
H1459  H     0.13888   0.69992   0.57894   0.00000  Uiso   1.00
H1460  H     0.10268   0.68107   0.67318   0.00000  Uiso   1.00
H1461  H     0.05060   0.73110   0.73454   0.00000  Uiso   1.00
C1462  C     0.25195   0.96718   0.75678   0.00000  Uiso   1.00
C1463  C     0.27049   0.95524   0.79679   0.00000  Uiso   1.00
C1464  C     0.31922   0.95320   0.78597   0.00000  Uiso   1.00
C1465  C     0.01589   0.96343   0.73555   0.00000  Uiso   1.00
C1466  C     0.33085   0.97704   0.69674   0.00000  Uiso   1.00
C1467  C     0.28241   0.97716   0.70638   0.00000  Uiso   1.00
H1468  H     0.24744   0.94954   0.83663   0.00000  Uiso   1.00
H1469  H     0.00030   0.94447   0.81689   0.00000  Uiso   1.00
H1470  H     0.05341   0.96137   0.72593   0.00000  Uiso   1.00
H1471  H     0.02099   0.98784   0.65921   0.00000  Uiso   1.00
H1472  H     0.26860   0.98782   0.67572   0.00000  Uiso   1.00
C1473  C     0.49993   0.91365   0.75320   0.00000  Uiso   1.00
C1474  C     0.48199   0.84513   0.98948   0.00000  Uiso   1.00
C1475  C     0.49304   0.82904   0.93752   0.00000  Uiso   1.00
C1476  C     0.51676   0.84490   0.51555   0.00000  Uiso   1.00
C1477  C     0.56281   0.83177   0.98834   0.00000  Uiso   1.00
C1478  C     0.57238   0.81409   0.93862   0.00000  Uiso   1.00
C1479  C     0.53726   0.81064   0.91498   0.00000  Uiso   1.00
C1480  C     0.50669   0.85465   0.56902   0.00000  Uiso   1.00
C1481  C     0.58850   0.85336   0.56264   0.00000  Uiso   1.00
C1482  C     0.45992   0.83286   0.90930   0.00000  Uiso   1.00
C1483  C     0.53701   0.98202   0.77040   0.00000  Uiso   1.00
C1484  C     0.47443   0.83144   0.85150   0.00000  Uiso   1.00
C1485  C     0.53140   0.69101   0.78225   0.00000  Uiso   1.00
C1486  C     0.49271   0.71037   0.77450   0.00000  Uiso   1.00
C1487  C     0.45181   0.68658   0.77933   0.00000  Uiso   1.00
C1488  C     0.45409   0.97682   0.77788   0.00000  Uiso   1.00
C1489  C     0.49795   0.95807   0.76549   0.00000  Uiso   1.00
C1490  C     0.65160   0.81003   0.71370   0.00000  Uiso   1.00
C1491  C     0.36607   0.80978   0.71397   0.00000  Uiso   1.00
C1492  C     0.34767   0.85482   0.78731   0.00000  Uiso   1.00
C1493  C     0.63328   0.85443   0.78761   0.00000  Uiso   1.00
C1494  C     0.49715   0.75401   0.75851   0.00000  Uiso   1.00
C1495  C     0.52579   0.83973   0.64973   0.00000  Uiso   1.00
C1496  C     0.59893   0.83770   0.51115   0.00000  Uiso   1.00
C1497  C     0.54109   0.85110   0.59369   0.00000  Uiso   1.00
C1498  C     0.41440   0.84583   0.93561   0.00000  Uiso   1.00
C1499  C     0.40326   0.85987   0.98703   0.00000  Uiso   1.00
C1500  C     0.43698   0.86154   0.51300   0.00000  Uiso   1.00
H1501  H     0.41869   0.70096   0.78410   0.00000  Uiso   1.00
H1502  H     0.42208   0.95824   0.78449   0.00000  Uiso   1.00
H1503  H     0.35778   0.87199   0.81749   0.00000  Uiso   1.00
H1504  H     0.60763   0.87094   0.81839   0.00000  Uiso   1.00
H1505  H     0.60682   0.80207   0.91837   0.00000  Uiso   1.00
H1506  H     0.63531   0.83502   0.98699   0.00000  Uiso   1.00
H1507  H     0.47169   0.86118   0.59346   0.00000  Uiso   1.00
H1508  H     0.38822   0.84816   0.91531   0.00000  Uiso   1.00
H1509  H     0.42712   0.87667   0.55090   0.00000  Uiso   1.00
H1510  H     0.36900   0.87178   0.50555   0.00000  Uiso   1.00
H1511  H     0.54615   0.79365   0.87852   0.00000  Uiso   1.00
N1512  N     0.38093   0.83334   0.75001   0.00000  Uiso   1.00
N1513  N     0.61906   0.83331   0.75000   0.00000  Uiso   1.00
O1514  O     0.46179   0.89442   0.75000   0.00000  Uiso   1.00
O1515  O     0.53823   0.89441   0.75000   0.00000  Uiso   1.00
O1516  O     0.44280   0.83333   0.82681   0.00000  Uiso   1.00
O1517  O     0.51924   0.83332   0.82681   0.00000  Uiso   1.00
O1518  O     0.46177   0.77226   0.74999   0.00000  Uiso   1.00
O1519  O     0.53821   0.77225   0.74999   0.00000  Uiso   1.00
O1520  O     0.48076   0.83335   0.67319   0.00000  Uiso   1.00
O1521  O     0.55720   0.83334   0.67319   0.00000  Uiso   1.00
Zn1522 Zn    0.44896   0.83334   0.75000   0.00000  Uiso   1.00
Zn1523 Zn    0.55104   0.83333   0.75000   0.00000  Uiso   1.00
C1524  C     0.61870   0.88930   0.56963   0.00000  Uiso   1.00
C1525  C     0.64434   0.88837   0.60568   0.00000  Uiso   1.00
C1526  C     0.34715   0.91797   0.60235   0.00000  Uiso   1.00
C1527  C     0.35546   0.95095   0.56606   0.00000  Uiso   1.00
C1528  C     0.66066   0.95441   0.53320   0.00000  Uiso   1.00
C1529  C     0.62601   0.92363   0.53463   0.00000  Uiso   1.00
H1530  H     0.63798   0.86450   0.63519   0.00000  Uiso   1.00
H1531  H     0.36902   0.91504   0.62777   0.00000  Uiso   1.00
H1532  H     0.38353   0.97388   0.56361   0.00000  Uiso   1.00
H1533  H     0.33337   0.98014   0.50543   0.00000  Uiso   1.00
H1534  H     0.60607   0.92566   0.50698   0.00000  Uiso   1.00
C1535  C     0.55940   0.71210   0.81294   0.00000  Uiso   1.00
O1536  O     0.53960   0.72135   0.85892   0.00000  Uiso   1.00
O1537  O     0.60798   0.71904   0.79116   0.00000  Uiso   1.00
H1538  H     0.62260   0.73327   0.81677   0.00000  Uiso   1.00
C1539  C     0.63698   0.78251   0.67587   0.00000  Uiso   1.00
O1540  O     0.64644   0.79267   0.62949   0.00000  Uiso   1.00
O1541  O     0.61755   0.74275   0.69155   0.00000  Uiso   1.00
H1542  H     0.60947   0.72714   0.66202   0.00000  Uiso   1.00
C1543  C     0.39804   0.78077   0.67745   0.00000  Uiso   1.00
C1544  C     0.41594   0.79012   0.62340   0.00000  Uiso   1.00
C1545  C     0.44287   0.76118   0.58795   0.00000  Uiso   1.00
C1546  C     0.45121   0.72229   0.60623   0.00000  Uiso   1.00
C1547  C     0.43083   0.71171   0.65945   0.00000  Uiso   1.00
C1548  C     0.40276   0.74031   0.69442   0.00000  Uiso   1.00
H1549  H     0.40742   0.81925   0.60891   0.00000  Uiso   1.00
H1550  H     0.45669   0.76855   0.54627   0.00000  Uiso   1.00
H1551  H     0.47221   0.69992   0.57894   0.00000  Uiso   1.00
H1552  H     0.43602   0.68107   0.67318   0.00000  Uiso   1.00
H1553  H     0.38393   0.73110   0.73454   0.00000  Uiso   1.00
C1554  C     0.58529   0.96718   0.75678   0.00000  Uiso   1.00
C1555  C     0.60382   0.95524   0.79679   0.00000  Uiso   1.00
C1556  C     0.65255   0.95320   0.78597   0.00000  Uiso   1.00
C1557  C     0.34922   0.96343   0.73555   0.00000  Uiso   1.00
C1558  C     0.66418   0.97704   0.69674   0.00000  Uiso   1.00
C1559  C     0.61575   0.97716   0.70638   0.00000  Uiso   1.00
H1560  H     0.58077   0.94954   0.83663   0.00000  Uiso   1.00
H1561  H     0.33363   0.94447   0.81689   0.00000  Uiso   1.00
H1562  H     0.38674   0.96137   0.72593   0.00000  Uiso   1.00
H1563  H     0.35432   0.98784   0.65921   0.00000  Uiso   1.00
H1564  H     0.60193   0.98782   0.67572   0.00000  Uiso   1.00
C1565  C     0.83326   0.91365   0.75320   0.00000  Uiso   1.00
C1566  C     0.81532   0.84513   0.98948   0.00000  Uiso   1.00
C1567  C     0.82637   0.82904   0.93752   0.00000  Uiso   1.00
C1568  C     0.85010   0.84490   0.51555   0.00000  Uiso   1.00
C1569  C     0.89615   0.83177   0.98834   0.00000  Uiso   1.00
C1570  C     0.90572   0.81409   0.93862   0.00000  Uiso   1.00
C1571  C     0.87060   0.81064   0.91498   0.00000  Uiso   1.00
C1572  C     0.84002   0.85465   0.56902   0.00000  Uiso   1.00
C1573  C     0.92184   0.85336   0.56264   0.00000  Uiso   1.00
C1574  C     0.79325   0.83286   0.90930   0.00000  Uiso   1.00
C1575  C     0.87035   0.98202   0.77040   0.00000  Uiso   1.00
C1576  C     0.80776   0.83144   0.85150   0.00000  Uiso   1.00
C1577  C     0.86473   0.69101   0.78225   0.00000  Uiso   1.00
C1578  C     0.82605   0.71037   0.77450   0.00000  Uiso   1.00
C1579  C     0.78515   0.68658   0.77933   0.00000  Uiso   1.00
C1580  C     0.78742   0.97682   0.77788   0.00000  Uiso   1.00
C1581  C     0.83128   0.95807   0.76549   0.00000  Uiso   1.00
C1582  C     0.98494   0.81003   0.71370   0.00000  Uiso   1.00
C1583  C     0.69940   0.80978   0.71397   0.00000  Uiso   1.00
C1584  C     0.68100   0.85482   0.78731   0.00000  Uiso   1.00
C1585  C     0.96661   0.85443   0.78761   0.00000  Uiso   1.00
C1586  C     0.83048   0.75401   0.75851   0.00000  Uiso   1.00
C1587  C     0.85912   0.83973   0.64973   0.00000  Uiso   1.00
C1588  C     0.93227   0.83770   0.51115   0.00000  Uiso   1.00
C1589  C     0.87443   0.85110   0.59369   0.00000  Uiso   1.00
C1590  C     0.74773   0.84583   0.93561   0.00000  Uiso   1.00
C1591  C     0.73659   0.85987   0.98703   0.00000  Uiso   1.00
C1592  C     0.77031   0.86154   0.51300   0.00000  Uiso   1.00
H1593  H     0.75202   0.70096   0.78410   0.00000  Uiso   1.00
H1594  H     0.75541   0.95824   0.78449   0.00000  Uiso   1.00
H1595  H     0.69111   0.87199   0.81749   0.00000  Uiso   1.00
H1596  H     0.94096   0.87094   0.81839   0.00000  Uiso   1.00
H1597  H     0.94016   0.80207   0.91837   0.00000  Uiso   1.00
H1598  H     0.96864   0.83502   0.98699   0.00000  Uiso   1.00
H1599  H     0.80503   0.86118   0.59346   0.00000  Uiso   1.00
H1600  H     0.72156   0.84816   0.91531   0.00000  Uiso   1.00
H1601  H     0.76046   0.87667   0.55090   0.00000  Uiso   1.00
H1602  H     0.70233   0.87178   0.50555   0.00000  Uiso   1.00
H1603  H     0.87949   0.79365   0.87852   0.00000  Uiso   1.00
N1604  N     0.71426   0.83334   0.75001   0.00000  Uiso   1.00
N1605  N     0.95239   0.83331   0.75000   0.00000  Uiso   1.00
O1606  O     0.79512   0.89442   0.75000   0.00000  Uiso   1.00
O1607  O     0.87157   0.89441   0.75000   0.00000  Uiso   1.00
O1608  O     0.77613   0.83333   0.82681   0.00000  Uiso   1.00
O1609  O     0.85258   0.83332   0.82681   0.00000  Uiso   1.00
O1610  O     0.79510   0.77226   0.74999   0.00000  Uiso   1.00
O1611  O     0.87154   0.77225   0.74999   0.00000  Uiso   1.00
O1612  O     0.81409   0.83335   0.67319   0.00000  Uiso   1.00
O1613  O     0.89053   0.83334   0.67319   0.00000  Uiso   1.00
Zn1614 Zn    0.78229   0.83334   0.75000   0.00000  Uiso   1.00
Zn1615 Zn    0.88438   0.83333   0.75000   0.00000  Uiso   1.00
C1616  C     0.95204   0.88930   0.56963   0.00000  Uiso   1.00
C1617  C     0.97767   0.88837   0.60568   0.00000  Uiso   1.00
C1618  C     0.68048   0.91797   0.60235   0.00000  Uiso   1.00
C1619  C     0.68880   0.95095   0.56606   0.00000  Uiso   1.00
C1620  C     0.99400   0.95441   0.53320   0.00000  Uiso   1.00
C1621  C     0.95934   0.92363   0.53463   0.00000  Uiso   1.00
H1622  H     0.97131   0.86450   0.63519   0.00000  Uiso   1.00
H1623  H     0.70236   0.91504   0.62777   0.00000  Uiso   1.00
H1624  H     0.71686   0.97388   0.56361   0.00000  Uiso   1.00
H1625  H     0.66670   0.98014   0.50543   0.00000  Uiso   1.00
H1626  H     0.93940   0.92566   0.50698   0.00000  Uiso   1.00
C1627  C     0.89273   0.71210   0.81294   0.00000  Uiso   1.00
O1628  O     0.87294   0.72135   0.85892   0.00000  Uiso   1.00
O1629  O     0.94131   0.71904   0.79116   0.00000  Uiso   1.00
H1630  H     0.95593   0.73327   0.81677   0.00000  Uiso   1.00
C1631  C     0.97031   0.78251   0.67587   0.00000  Uiso   1.00
O1632  O     0.97977   0.79267   0.62949   0.00000  Uiso   1.00
O1633  O     0.95088   0.74275   0.69155   0.00000  Uiso   1.00
H1634  H     0.94281   0.72714   0.66202   0.00000  Uiso   1.00
C1635  C     0.73138   0.78077   0.67745   0.00000  Uiso   1.00
C1636  C     0.74927   0.79012   0.62340   0.00000  Uiso   1.00
C1637  C     0.77621   0.76118   0.58795   0.00000  Uiso   1.00
C1638  C     0.78454   0.72229   0.60623   0.00000  Uiso   1.00
C1639  C     0.76417   0.71171   0.65945   0.00000  Uiso   1.00
C1640  C     0.73609   0.74031   0.69442   0.00000  Uiso   1.00
H1641  H     0.74076   0.81925   0.60891   0.00000  Uiso   1.00
H1642  H     0.79002   0.76855   0.54627   0.00000  Uiso   1.00
H1643  H     0.80554   0.69992   0.57894   0.00000  Uiso   1.00
H1644  H     0.76935   0.68107   0.67318   0.00000  Uiso   1.00
H1645  H     0.71727   0.73110   0.73454   0.00000  Uiso   1.00
C1646  C     0.91862   0.96718   0.75678   0.00000  Uiso   1.00
C1647  C     0.93715   0.95524   0.79679   0.00000  Uiso   1.00
C1648  C     0.98589   0.95320   0.78597   0.00000  Uiso   1.00
C1649  C     0.68255   0.96343   0.73555   0.00000  Uiso   1.00
C1650  C     0.99752   0.97704   0.69674   0.00000  Uiso   1.00
C1651  C     0.94908   0.97716   0.70638   0.00000  Uiso   1.00
H1652  H     0.91411   0.94954   0.83663   0.00000  Uiso   1.00
H1653  H     0.66697   0.94447   0.81689   0.00000  Uiso   1.00
H1654  H     0.72007   0.96137   0.72593   0.00000  Uiso   1.00
H1655  H     0.68765   0.98784   0.65921   0.00000  Uiso   1.00
H1656  H     0.93527   0.98782   0.67572   0.00000  Uiso   1.00
loop_
_geom_bond_atom_site_label_1
_geom_bond_atom_site_label_2
_geom_bond_distance
_geom_bond_site_symmetry_2
_ccdc_geom_bond_type
C1     O43     1.296   .     A
C1     C17     1.454   .     S
C1     O42     1.303   .     A
C2     C3      1.414   .     A
C2     C832    1.416   .     S
C2     C856    1.413   .     S
C3     C7      1.416   .     A
C3     C10     1.423   .     A
C4     C8      1.394   .     A
C4     C830    1.416   1_554 S
C4     C833    1.418   1_554 S
C5     C6      1.383   .     A
C5     C832    1.418   .     S
C5     C852    1.399   .     S
C6     C7      1.381   .     A
C6     H33     1.085   .     S
C7     H39     1.071   .     S
C8     C25     1.388   .     A
C8     H35     1.073   .     S
C9     C25     1.402   .     A
C9     C52     1.484   .     S
C9     C24     1.399   .     A
C10    C26     1.398   .     A
C10    C12     1.463   .     S
C11    C82     1.468   .     S
C11    C17     1.414   .     A
C11    C289    1.390   .     S
C12    O45     1.296   .     A
C12    O44     1.310   .     A
C13    C14     1.399   .     A
C13    C63     1.483   .     S
C13    C563    1.390   1_545 S
C14    C22     1.451   .     S
C14    C15     1.390   .     A
C15    H29     1.076   .     S
C15    C568    1.381   1_545 S
C16    H30     1.077   .     S
C16    C17     1.402   .     A
C16    C291    1.381   .     S
C18    N41     1.373   .     A
C18    C67     1.487   .     S
C18    C111    1.431   .     S
C19    C71     1.478   .     S
C19    N40     1.383   .     A
C19    C202    1.431   1_455 S
C20    N40     1.366   .     A
C20    H31     1.081   .     S
C20    C205    1.423   1_455 S
C21    H32     1.080   .     S
C21    N41     1.367   .     A
C21    C112    1.423   .     S
C22    O47     1.296   .     A
C22    O46     1.304   .     A
C23    O49     1.299   .     A
C23    O48     1.306   .     A
C23    C25     1.462   .     S
C24    C833    1.399   1_554 S
C24    H862    1.084   1_554 S
C26    C27     1.379   .     A
C26    H36     1.084   .     S
C27    C856    1.386   .     S
C27    H866    1.071   .     S
C28    H37     1.074   .     S
C28    C830    1.413   1_554 S
C28    C855    1.386   1_554 S
H34    C852    1.084   .     S
H38    C855    1.071   1_554 S
N40    Zn50    2.033   .     S
N41    Zn51    2.032   .     S
O42    Zn50    1.977   .     S
O43    Zn51    2.002   .     S
O44    Zn50    1.993   .     S
O45    Zn51    1.968   .     S
O46    Zn50    2.002   .     S
O47    Zn51    1.977   .     S
O48    Zn50    1.968   .     S
O49    Zn51    1.993   .     S
C52    C57     1.412   .     A
C52    C53     1.401   .     A
C53    H58     1.068   .     S
C53    C146    1.395   .     S
C54    H59     1.082   .     S
C54    C55     1.398   .     A
C54    C237    1.395   1_455 S
C55    H60     1.083   .     S
C55    C240    1.394   1_455 S
C56    C57     1.397   .     A
C56    C147    1.394   .     S
C56    H153    1.082   .     S
C57    H62     1.084   .     S
H61    C240    1.082   1_455 S
C63    O65     1.397   .     S
C63    O64     1.221   .     D
O65    H66     1.014   .     S
C67    O68     1.221   .     D
C67    O69     1.392   .     S
O69    H70     1.013   .     S
C71    C72     1.401   .     A
C71    C76     1.399   .     A
C72    H77     1.078   .     S
C72    C73     1.399   .     A
C73    C74     1.396   .     A
C73    H78     1.081   .     S
C74    C75     1.396   .     A
C74    H79     1.082   .     S
C75    H80     1.080   .     S
C75    C76     1.399   .     A
C76    H81     1.079   .     S
C82    C83     1.403   .     A
C82    C87     1.400   .     A
C83    C84     1.398   .     A
C83    H88     1.083   .     S
C84    C177    1.397   .     S
C84    H181    1.081   .     S
C85    H90     1.074   .     S
C85    C268    1.397   1_455 S
C85    C270    1.389   1_455 S
C86    C87     1.390   .     A
C86    C177    1.389   .     S
C86    H183    1.079   .     S
C87    H92     1.083   .     S
H89    C268    1.081   1_455 S
H91    C270    1.079   1_455 S
C93    O135    1.296   .     A
C93    C109    1.454   .     S
C93    O134    1.303   .     A
C94    C95     1.414   .     A
C94    C924    1.416   .     S
C94    C948    1.413   .     S
C95    C99     1.416   .     A
C95    C102    1.423   .     A
C96    C100    1.394   .     A
C96    C922    1.416   1_554 S
C96    C925    1.418   1_554 S
C97    C98     1.383   .     A
C97    C924    1.418   .     S
C97    C944    1.399   .     S
C98    C99     1.381   .     A
C98    H125    1.085   .     S
C99    H131    1.071   .     S
C100   C117    1.388   .     A
C100   H127    1.073   .     S
C101   C117    1.402   .     A
C101   C144    1.484   .     S
C101   C116    1.399   .     A
C102   C118    1.398   .     A
C102   C104    1.463   .     S
C103   C174    1.468   .     S
C103   C109    1.414   .     A
C103   C381    1.390   .     S
C104   O137    1.296   .     A
C104   O136    1.310   .     A
C105   C106    1.399   .     A
C105   C155    1.483   .     S
C105   C655    1.390   1_545 S
C106   C114    1.451   .     S
C106   C107    1.390   .     A
C107   H121    1.076   .     S
C107   C660    1.381   1_545 S
C108   H122    1.077   .     S
C108   C109    1.402   .     A
C108   C383    1.381   .     S
C110   N133    1.373   .     A
C110   C159    1.487   .     S
C110   C203    1.431   .     S
C111   C163    1.478   .     S
C111   N132    1.383   .     A
C112   N132    1.366   .     A
C112   H123    1.081   .     S
C113   H124    1.080   .     S
C113   N133    1.367   .     A
C113   C204    1.423   .     S
C114   O139    1.296   .     A
C114   O138    1.304   .     A
C115   O141    1.299   .     A
C115   O140    1.306   .     A
C115   C117    1.462   .     S
C116   C925    1.399   1_554 S
C116   H954    1.084   1_554 S
C118   C119    1.379   .     A
C118   H128    1.084   .     S
C119   C948    1.386   .     S
C119   H958    1.071   .     S
C120   H129    1.074   .     S
C120   C922    1.413   1_554 S
C120   C947    1.386   1_554 S
H126   C944    1.084   .     S
H130   C947    1.071   1_554 S
N132   Zn142   2.033   .     S
N133   Zn143   2.032   .     S
O134   Zn142   1.977   .     S
O135   Zn143   2.002   .     S
O136   Zn142   1.993   .     S
O137   Zn143   1.968   .     S
O138   Zn142   2.002   .     S
O139   Zn143   1.977   .     S
O140   Zn142   1.968   .     S
O141   Zn143   1.993   .     S
C144   C149    1.412   .     A
C144   C145    1.401   .     A
C145   H150    1.068   .     S
C145   C238    1.395   .     S
C146   H151    1.082   .     S
C146   C147    1.398   .     A
C147   H152    1.083   .     S
C148   C149    1.397   .     A
C148   C239    1.394   .     S
C148   H245    1.082   .     S
C149   H154    1.084   .     S
C155   O157    1.397   .     S
C155   O156    1.221   .     D
O157   H158    1.014   .     S
C159   O160    1.221   .     D
C159   O161    1.392   .     S
O161   H162    1.013   .     S
C163   C164    1.401   .     A
C163   C168    1.399   .     A
C164   H169    1.078   .     S
C164   C165    1.399   .     A
C165   C166    1.396   .     A
C165   H170    1.081   .     S
C166   C167    1.396   .     A
C166   H171    1.082   .     S
C167   H172    1.080   .     S
C167   C168    1.399   .     A
C168   H173    1.079   .     S
C174   C175    1.403   .     A
C174   C179    1.400   .     A
C175   C176    1.398   .     A
C175   H180    1.083   .     S
C176   C269    1.397   .     S
C176   H273    1.081   .     S
C177   H182    1.074   .     S
C178   C179    1.390   .     A
C178   C269    1.389   .     S
C178   H275    1.079   .     S
C179   H184    1.083   .     S
C185   O227    1.296   .     A
C185   C201    1.454   .     S
C185   O226    1.303   .     A
C186   C187    1.414   .     A
C186   C1016   1.416   .     S
C186   C1040   1.413   .     S
C187   C191    1.416   .     A
C187   C194    1.423   .     A
C188   C192    1.394   .     A
C188   C1014   1.416   1_554 S
C188   C1017   1.418   1_554 S
C189   C190    1.383   .     A
C189   C1016   1.418   .     S
C189   C1036   1.399   .     S
C190   C191    1.381   .     A
C190   H217    1.085   .     S
C191   H223    1.071   .     S
C192   C209    1.388   .     A
C192   H219    1.073   .     S
C193   C209    1.402   .     A
C193   C236    1.484   .     S
C193   C208    1.399   .     A
C194   C210    1.398   .     A
C194   C196    1.463   .     S
C195   C266    1.468   .     S
C195   C201    1.414   .     A
C195   C473    1.390   .     S
C196   O229    1.296   .     A
C196   O228    1.310   .     A
C197   C198    1.399   .     A
C197   C247    1.483   .     S
C197   C747    1.390   1_545 S
C198   C206    1.451   .     S
C198   C199    1.390   .     A
C199   H213    1.076   .     S
C199   C752    1.381   1_545 S
C200   H214    1.077   .     S
C200   C201    1.402   .     A
C200   C475    1.381   .     S
C202   N225    1.373   .     A
C202   C251    1.487   .     S
C202   C19     1.431   1_655 S
C203   C255    1.478   .     S
C203   N224    1.383   .     A
C204   N224    1.366   .     A
C204   H215    1.081   .     S
C205   H216    1.080   .     S
C205   N225    1.367   .     A
C205   C20     1.423   1_655 S
C206   O231    1.296   .     A
C206   O230    1.304   .     A
C207   O233    1.299   .     A
C207   O232    1.306   .     A
C207   C209    1.462   .     S
C208   C1017   1.399   1_554 S
C208   H1046   1.084   1_554 S
C210   C211    1.379   .     A
C210   H220    1.084   .     S
C211   C1040   1.386   .     S
C211   H1050   1.071   .     S
C212   H221    1.074   .     S
C212   C1014   1.413   1_554 S
C212   C1039   1.386   1_554 S
H218   C1036   1.084   .     S
H222   C1039   1.071   1_554 S
N224   Zn234   2.033   .     S
N225   Zn235   2.032   .     S
O226   Zn234   1.977   .     S
O227   Zn235   2.002   .     S
O228   Zn234   1.993   .     S
O229   Zn235   1.968   .     S
O230   Zn234   2.002   .     S
O231   Zn235   1.977   .     S
O232   Zn234   1.968   .     S
O233   Zn235   1.993   .     S
C236   C241    1.412   .     A
C236   C237    1.401   .     A
C237   H242    1.068   .     S
C237   C54     1.395   1_655 S
C238   H243    1.082   .     S
C238   C239    1.398   .     A
C239   H244    1.083   .     S
C240   C241    1.397   .     A
C240   C55     1.394   1_655 S
C240   H61     1.082   1_655 S
C241   H246    1.084   .     S
C247   O249    1.397   .     S
C247   O248    1.221   .     D
O249   H250    1.014   .     S
C251   O252    1.221   .     D
C251   O253    1.392   .     S
O253   H254    1.013   .     S
C255   C256    1.401   .     A
C255   C260    1.399   .     A
C256   H261    1.078   .     S
C256   C257    1.399   .     A
C257   C258    1.396   .     A
C257   H262    1.081   .     S
C258   C259    1.396   .     A
C258   H263    1.082   .     S
C259   H264    1.080   .     S
C259   C260    1.399   .     A
C260   H265    1.079   .     S
C266   C267    1.403   .     A
C266   C271    1.400   .     A
C267   C268    1.398   .     A
C267   H272    1.083   .     S
C268   C85     1.397   1_655 S
C268   H89     1.081   1_655 S
C269   H274    1.074   .     S
C270   C271    1.390   .     A
C270   C85     1.389   1_655 S
C270   H91     1.079   1_655 S
C271   H276    1.083   .     S
C277   O319    1.296   .     A
C277   C293    1.454   .     S
C277   O318    1.303   .     A
C278   C279    1.414   .     A
C278   C1108   1.416   .     S
C278   C1132   1.413   .     S
C279   C283    1.416   .     A
C279   C286    1.423   .     A
C280   C284    1.394   .     A
C280   C1106   1.416   1_554 S
C280   C1109   1.418   1_554 S
C281   C282    1.383   .     A
C281   C1108   1.418   .     S
C281   C1128   1.399   .     S
C282   C283    1.381   .     A
C282   H309    1.085   .     S
C283   H315    1.071   .     S
C284   C301    1.388   .     A
C284   H311    1.073   .     S
C285   C301    1.402   .     A
C285   C328    1.484   .     S
C285   C300    1.399   .     A
C286   C302    1.398   .     A
C286   C288    1.463   .     S
C287   C358    1.468   .     S
C287   C293    1.414   .     A
C287   C565    1.390   .     S
C288   O321    1.296   .     A
C288   O320    1.310   .     A
C289   C290    1.399   .     A
C289   C339    1.483   .     S
C290   C298    1.451   .     S
C290   C291    1.390   .     A
C291   H305    1.076   .     S
C292   H306    1.077   .     S
C292   C293    1.402   .     A
C292   C567    1.381   .     S
C294   N317    1.373   .     A
C294   C343    1.487   .     S
C294   C387    1.431   .     S
C295   C347    1.478   .     S
C295   N316    1.383   .     A
C295   C478    1.431   1_455 S
C296   N316    1.366   .     A
C296   H307    1.081   .     S
C296   C481    1.423   1_455 S
C297   H308    1.080   .     S
C297   N317    1.367   .     A
C297   C388    1.423   .     S
C298   O323    1.296   .     A
C298   O322    1.304   .     A
C299   O325    1.299   .     A
C299   O324    1.306   .     A
C299   C301    1.462   .     S
C300   C1109   1.399   1_554 S
C300   H1138   1.084   1_554 S
C302   C303    1.379   .     A
C302   H312    1.084   .     S
C303   C1132   1.386   .     S
C303   H1142   1.071   .     S
C304   H313    1.074   .     S
C304   C1106   1.413   1_554 S
C304   C1131   1.386   1_554 S
H310   C1128   1.084   .     S
H314   C1131   1.071   1_554 S
N316   Zn326   2.033   .     S
N317   Zn327   2.032   .     S
O318   Zn326   1.977   .     S
O319   Zn327   2.002   .     S
O320   Zn326   1.993   .     S
O321   Zn327   1.968   .     S
O322   Zn326   2.002   .     S
O323   Zn327   1.977   .     S
O324   Zn326   1.968   .     S
O325   Zn327   1.993   .     S
C328   C333    1.412   .     A
C328   C329    1.401   .     A
C329   H334    1.068   .     S
C329   C422    1.395   .     S
C330   H335    1.082   .     S
C330   C331    1.398   .     A
C330   C513    1.395   1_455 S
C331   H336    1.083   .     S
C331   C516    1.394   1_455 S
C332   C333    1.397   .     A
C332   C423    1.394   .     S
C332   H429    1.082   .     S
C333   H338    1.084   .     S
H337   C516    1.082   1_455 S
C339   O341    1.397   .     S
C339   O340    1.221   .     D
O341   H342    1.014   .     S
C343   O344    1.221   .     D
C343   O345    1.392   .     S
O345   H346    1.013   .     S
C347   C348    1.401   .     A
C347   C352    1.399   .     A
C348   H353    1.078   .     S
C348   C349    1.399   .     A
C349   C350    1.396   .     A
C349   H354    1.081   .     S
C350   C351    1.396   .     A
C350   H355    1.082   .     S
C351   H356    1.080   .     S
C351   C352    1.399   .     A
C352   H357    1.079   .     S
C358   C359    1.403   .     A
C358   C363    1.400   .     A
C359   C360    1.398   .     A
C359   H364    1.083   .     S
C360   C453    1.397   .     S
C360   H457    1.081   .     S
C361   H366    1.074   .     S
C361   C544    1.397   1_455 S
C361   C546    1.389   1_455 S
C362   C363    1.390   .     A
C362   C453    1.389   .     S
C362   H459    1.079   .     S
C363   H368    1.083   .     S
H365   C544    1.081   1_455 S
H367   C546    1.079   1_455 S
C369   O411    1.296   .     A
C369   C385    1.454   .     S
C369   O410    1.303   .     A
C370   C371    1.414   .     A
C370   C1200   1.416   .     S
C370   C1224   1.413   .     S
C371   C375    1.416   .     A
C371   C378    1.423   .     A
C372   C376    1.394   .     A
C372   C1198   1.416   1_554 S
C372   C1201   1.418   1_554 S
C373   C374    1.383   .     A
C373   C1200   1.418   .     S
C373   C1220   1.399   .     S
C374   C375    1.381   .     A
C374   H401    1.085   .     S
C375   H407    1.071   .     S
C376   C393    1.388   .     A
C376   H403    1.073   .     S
C377   C393    1.402   .     A
C377   C420    1.484   .     S
C377   C392    1.399   .     A
C378   C394    1.398   .     A
C378   C380    1.463   .     S
C379   C450    1.468   .     S
C379   C385    1.414   .     A
C379   C657    1.390   .     S
C380   O413    1.296   .     A
C380   O412    1.310   .     A
C381   C382    1.399   .     A
C381   C431    1.483   .     S
C382   C390    1.451   .     S
C382   C383    1.390   .     A
C383   H397    1.076   .     S
C384   H398    1.077   .     S
C384   C385    1.402   .     A
C384   C659    1.381   .     S
C386   N409    1.373   .     A
C386   C435    1.487   .     S
C386   C479    1.431   .     S
C387   C439    1.478   .     S
C387   N408    1.383   .     A
C388   N408    1.366   .     A
C388   H399    1.081   .     S
C389   H400    1.080   .     S
C389   N409    1.367   .     A
C389   C480    1.423   .     S
C390   O415    1.296   .     A
C390   O414    1.304   .     A
C391   O417    1.299   .     A
C391   O416    1.306   .     A
C391   C393    1.462   .     S
C392   C1201   1.399   1_554 S
C392   H1230   1.084   1_554 S
C394   C395    1.379   .     A
C394   H404    1.084   .     S
C395   C1224   1.386   .     S
C395   H1234   1.071   .     S
C396   H405    1.074   .     S
C396   C1198   1.413   1_554 S
C396   C1223   1.386   1_554 S
H402   C1220   1.084   .     S
H406   C1223   1.071   1_554 S
N408   Zn418   2.033   .     S
N409   Zn419   2.032   .     S
O410   Zn418   1.977   .     S
O411   Zn419   2.002   .     S
O412   Zn418   1.993   .     S
O413   Zn419   1.968   .     S
O414   Zn418   2.002   .     S
O415   Zn419   1.977   .     S
O416   Zn418   1.968   .     S
O417   Zn419   1.993   .     S
C420   C425    1.412   .     A
C420   C421    1.401   .     A
C421   H426    1.068   .     S
C421   C514    1.395   .     S
C422   H427    1.082   .     S
C422   C423    1.398   .     A
C423   H428    1.083   .     S
C424   C425    1.397   .     A
C424   C515    1.394   .     S
C424   H521    1.082   .     S
C425   H430    1.084   .     S
C431   O433    1.397   .     S
C431   O432    1.221   .     D
O433   H434    1.014   .     S
C435   O436    1.221   .     D
C435   O437    1.392   .     S
O437   H438    1.013   .     S
C439   C440    1.401   .     A
C439   C444    1.399   .     A
C440   H445    1.078   .     S
C440   C441    1.399   .     A
C441   C442    1.396   .     A
C441   H446    1.081   .     S
C442   C443    1.396   .     A
C442   H447    1.082   .     S
C443   H448    1.080   .     S
C443   C444    1.399   .     A
C444   H449    1.079   .     S
C450   C451    1.403   .     A
C450   C455    1.400   .     A
C451   C452    1.398   .     A
C451   H456    1.083   .     S
C452   C545    1.397   .     S
C452   H549    1.081   .     S
C453   H458    1.074   .     S
C454   C455    1.390   .     A
C454   C545    1.389   .     S
C454   H551    1.079   .     S
C455   H460    1.083   .     S
C461   O503    1.296   .     A
C461   C477    1.454   .     S
C461   O502    1.303   .     A
C462   C463    1.414   .     A
C462   C1292   1.416   .     S
C462   C1316   1.413   .     S
C463   C467    1.416   .     A
C463   C470    1.423   .     A
C464   C468    1.394   .     A
C464   C1290   1.416   1_554 S
C464   C1293   1.418   1_554 S
C465   C466    1.383   .     A
C465   C1292   1.418   .     S
C465   C1312   1.399   .     S
C466   C467    1.381   .     A
C466   H493    1.085   .     S
C467   H499    1.071   .     S
C468   C485    1.388   .     A
C468   H495    1.073   .     S
C469   C485    1.402   .     A
C469   C512    1.484   .     S
C469   C484    1.399   .     A
C470   C486    1.398   .     A
C470   C472    1.463   .     S
C471   C542    1.468   .     S
C471   C477    1.414   .     A
C471   C749    1.390   .     S
C472   O505    1.296   .     A
C472   O504    1.310   .     A
C473   C474    1.399   .     A
C473   C523    1.483   .     S
C474   C482    1.451   .     S
C474   C475    1.390   .     A
C475   H489    1.076   .     S
C476   H490    1.077   .     S
C476   C477    1.402   .     A
C476   C751    1.381   .     S
C478   N501    1.373   .     A
C478   C527    1.487   .     S
C478   C295    1.431   1_655 S
C479   C531    1.478   .     S
C479   N500    1.383   .     A
C480   N500    1.366   .     A
C480   H491    1.081   .     S
C481   H492    1.080   .     S
C481   N501    1.367   .     A
C481   C296    1.423   1_655 S
C482   O507    1.296   .     A
C482   O506    1.304   .     A
C483   O509    1.299   .     A
C483   O508    1.306   .     A
C483   C485    1.462   .     S
C484   C1293   1.399   1_554 S
C484   H1322   1.084   1_554 S
C486   C487    1.379   .     A
C486   H496    1.084   .     S
C487   C1316   1.386   .     S
C487   H1326   1.071   .     S
C488   H497    1.074   .     S
C488   C1290   1.413   1_554 S
C488   C1315   1.386   1_554 S
H494   C1312   1.084   .     S
H498   C1315   1.071   1_554 S
N500   Zn510   2.033   .     S
N501   Zn511   2.032   .     S
O502   Zn510   1.977   .     S
O503   Zn511   2.002   .     S
O504   Zn510   1.993   .     S
O505   Zn511   1.968   .     S
O506   Zn510   2.002   .     S
O507   Zn511   1.977   .     S
O508   Zn510   1.968   .     S
O509   Zn511   1.993   .     S
C512   C517    1.412   .     A
C512   C513    1.401   .     A
C513   H518    1.068   .     S
C513   C330    1.395   1_655 S
C514   H519    1.082   .     S
C514   C515    1.398   .     A
C515   H520    1.083   .     S
C516   C517    1.397   .     A
C516   C331    1.394   1_655 S
C516   H337    1.082   1_655 S
C517   H522    1.084   .     S
C523   O525    1.397   .     S
C523   O524    1.221   .     D
O525   H526    1.014   .     S
C527   O528    1.221   .     D
C527   O529    1.392   .     S
O529   H530    1.013   .     S
C531   C532    1.401   .     A
C531   C536    1.399   .     A
C532   H537    1.078   .     S
C532   C533    1.399   .     A
C533   C534    1.396   .     A
C533   H538    1.081   .     S
C534   C535    1.396   .     A
C534   H539    1.082   .     S
C535   H540    1.080   .     S
C535   C536    1.399   .     A
C536   H541    1.079   .     S
C542   C543    1.403   .     A
C542   C547    1.400   .     A
C543   C544    1.398   .     A
C543   H548    1.083   .     S
C544   C361    1.397   1_655 S
C544   H365    1.081   1_655 S
C545   H550    1.074   .     S
C546   C547    1.390   .     A
C546   C361    1.389   1_655 S
C546   H367    1.079   1_655 S
C547   H552    1.083   .     S
C553   O595    1.296   .     A
C553   C569    1.454   .     S
C553   O594    1.303   .     A
C554   C555    1.414   .     A
C554   C1384   1.416   .     S
C554   C1408   1.413   .     S
C555   C559    1.416   .     A
C555   C562    1.423   .     A
C556   C560    1.394   .     A
C556   C1382   1.416   1_554 S
C556   C1385   1.418   1_554 S
C557   C558    1.383   .     A
C557   C1384   1.418   .     S
C557   C1404   1.399   .     S
C558   C559    1.381   .     A
C558   H585    1.085   .     S
C559   H591    1.071   .     S
C560   C577    1.388   .     A
C560   H587    1.073   .     S
C561   C577    1.402   .     A
C561   C604    1.484   .     S
C561   C576    1.399   .     A
C562   C578    1.398   .     A
C562   C564    1.463   .     S
C563   C634    1.468   .     S
C563   C569    1.414   .     A
C563   C13     1.390   1_565 S
C564   O597    1.296   .     A
C564   O596    1.310   .     A
C565   C566    1.399   .     A
C565   C615    1.483   .     S
C566   C574    1.451   .     S
C566   C567    1.390   .     A
C567   H581    1.076   .     S
C568   H582    1.077   .     S
C568   C569    1.402   .     A
C568   C15     1.381   1_565 S
C570   N593    1.373   .     A
C570   C619    1.487   .     S
C570   C663    1.431   .     S
C571   C623    1.478   .     S
C571   N592    1.383   .     A
C571   C754    1.431   1_455 S
C572   N592    1.366   .     A
C572   H583    1.081   .     S
C572   C757    1.423   1_455 S
C573   H584    1.080   .     S
C573   N593    1.367   .     A
C573   C664    1.423   .     S
C574   O599    1.296   .     A
C574   O598    1.304   .     A
C575   O601    1.299   .     A
C575   O600    1.306   .     A
C575   C577    1.462   .     S
C576   C1385   1.399   1_554 S
C576   H1414   1.084   1_554 S
C578   C579    1.379   .     A
C578   H588    1.084   .     S
C579   C1408   1.386   .     S
C579   H1418   1.071   .     S
C580   H589    1.074   .     S
C580   C1382   1.413   1_554 S
C580   C1407   1.386   1_554 S
H586   C1404   1.084   .     S
H590   C1407   1.071   1_554 S
N592   Zn602   2.033   .     S
N593   Zn603   2.032   .     S
O594   Zn602   1.977   .     S
O595   Zn603   2.002   .     S
O596   Zn602   1.993   .     S
O597   Zn603   1.968   .     S
O598   Zn602   2.002   .     S
O599   Zn603   1.977   .     S
O600   Zn602   1.968   .     S
O601   Zn603   1.993   .     S
C604   C609    1.412   .     A
C604   C605    1.401   .     A
C605   H610    1.068   .     S
C605   C698    1.395   .     S
C606   H611    1.082   .     S
C606   C607    1.398   .     A
C606   C789    1.395   1_455 S
C607   H612    1.083   .     S
C607   C792    1.394   1_455 S
C608   C609    1.397   .     A
C608   C699    1.394   .     S
C608   H705    1.082   .     S
C609   H614    1.084   .     S
H613   C792    1.082   1_455 S
C615   O617    1.397   .     S
C615   O616    1.221   .     D
O617   H618    1.014   .     S
C619   O620    1.221   .     D
C619   O621    1.392   .     S
O621   H622    1.013   .     S
C623   C624    1.401   .     A
C623   C628    1.399   .     A
C624   H629    1.078   .     S
C624   C625    1.399   .     A
C625   C626    1.396   .     A
C625   H630    1.081   .     S
C626   C627    1.396   .     A
C626   H631    1.082   .     S
C627   H632    1.080   .     S
C627   C628    1.399   .     A
C628   H633    1.079   .     S
C634   C635    1.403   .     A
C634   C639    1.400   .     A
C635   C636    1.398   .     A
C635   H640    1.083   .     S
C636   C729    1.397   .     S
C636   H733    1.081   .     S
C637   H642    1.074   .     S
C637   C820    1.397   1_455 S
C637   C822    1.389   1_455 S
C638   C639    1.390   .     A
C638   C729    1.389   .     S
C638   H735    1.079   .     S
C639   H644    1.083   .     S
H641   C820    1.081   1_455 S
H643   C822    1.079   1_455 S
C645   O687    1.296   .     A
C645   C661    1.454   .     S
C645   O686    1.303   .     A
C646   C647    1.414   .     A
C646   C1476   1.416   .     S
C646   C1500   1.413   .     S
C647   C651    1.416   .     A
C647   C654    1.423   .     A
C648   C652    1.394   .     A
C648   C1474   1.416   1_554 S
C648   C1477   1.418   1_554 S
C649   C650    1.383   .     A
C649   C1476   1.418   .     S
C649   C1496   1.399   .     S
C650   C651    1.381   .     A
C650   H677    1.085   .     S
C651   H683    1.071   .     S
C652   C669    1.388   .     A
C652   H679    1.073   .     S
C653   C669    1.402   .     A
C653   C696    1.484   .     S
C653   C668    1.399   .     A
C654   C670    1.398   .     A
C654   C656    1.463   .     S
C655   C726    1.468   .     S
C655   C661    1.414   .     A
C655   C105    1.390   1_565 S
C656   O689    1.296   .     A
C656   O688    1.310   .     A
C657   C658    1.399   .     A
C657   C707    1.483   .     S
C658   C666    1.451   .     S
C658   C659    1.390   .     A
C659   H673    1.076   .     S
C660   H674    1.077   .     S
C660   C661    1.402   .     A
C660   C107    1.381   1_565 S
C662   N685    1.373   .     A
C662   C711    1.487   .     S
C662   C755    1.431   .     S
C663   C715    1.478   .     S
C663   N684    1.383   .     A
C664   N684    1.366   .     A
C664   H675    1.081   .     S
C665   H676    1.080   .     S
C665   N685    1.367   .     A
C665   C756    1.423   .     S
C666   O691    1.296   .     A
C666   O690    1.304   .     A
C667   O693    1.299   .     A
C667   O692    1.306   .     A
C667   C669    1.462   .     S
C668   C1477   1.399   1_554 S
C668   H1506   1.084   1_554 S
C670   C671    1.379   .     A
C670   H680    1.084   .     S
C671   C1500   1.386   .     S
C671   H1510   1.071   .     S
C672   H681    1.074   .     S
C672   C1474   1.413   1_554 S
C672   C1499   1.386   1_554 S
H678   C1496   1.084   .     S
H682   C1499   1.071   1_554 S
N684   Zn694   2.033   .     S
N685   Zn695   2.032   .     S
O686   Zn694   1.977   .     S
O687   Zn695   2.002   .     S
O688   Zn694   1.993   .     S
O689   Zn695   1.968   .     S
O690   Zn694   2.002   .     S
O691   Zn695   1.977   .     S
O692   Zn694   1.968   .     S
O693   Zn695   1.993   .     S
C696   C701    1.412   .     A
C696   C697    1.401   .     A
C697   H702    1.068   .     S
C697   C790    1.395   .     S
C698   H703    1.082   .     S
C698   C699    1.398   .     A
C699   H704    1.083   .     S
C700   C701    1.397   .     A
C700   C791    1.394   .     S
C700   H797    1.082   .     S
C701   H706    1.084   .     S
C707   O709    1.397   .     S
C707   O708    1.221   .     D
O709   H710    1.014   .     S
C711   O712    1.221   .     D
C711   O713    1.392   .     S
O713   H714    1.013   .     S
C715   C716    1.401   .     A
C715   C720    1.399   .     A
C716   H721    1.078   .     S
C716   C717    1.399   .     A
C717   C718    1.396   .     A
C717   H722    1.081   .     S
C718   C719    1.396   .     A
C718   H723    1.082   .     S
C719   H724    1.080   .     S
C719   C720    1.399   .     A
C720   H725    1.079   .     S
C726   C727    1.403   .     A
C726   C731    1.400   .     A
C727   C728    1.398   .     A
C727   H732    1.083   .     S
C728   C821    1.397   .     S
C728   H825    1.081   .     S
C729   H734    1.074   .     S
C730   C731    1.390   .     A
C730   C821    1.389   .     S
C730   H827    1.079   .     S
C731   H736    1.083   .     S
C737   O779    1.296   .     A
C737   C753    1.454   .     S
C737   O778    1.303   .     A
C738   C739    1.414   .     A
C738   C1568   1.416   .     S
C738   C1592   1.413   .     S
C739   C743    1.416   .     A
C739   C746    1.423   .     A
C740   C744    1.394   .     A
C740   C1566   1.416   1_554 S
C740   C1569   1.418   1_554 S
C741   C742    1.383   .     A
C741   C1568   1.418   .     S
C741   C1588   1.399   .     S
C742   C743    1.381   .     A
C742   H769    1.085   .     S
C743   H775    1.071   .     S
C744   C761    1.388   .     A
C744   H771    1.073   .     S
C745   C761    1.402   .     A
C745   C788    1.484   .     S
C745   C760    1.399   .     A
C746   C762    1.398   .     A
C746   C748    1.463   .     S
C747   C818    1.468   .     S
C747   C753    1.414   .     A
C747   C197    1.390   1_565 S
C748   O781    1.296   .     A
C748   O780    1.310   .     A
C749   C750    1.399   .     A
C749   C799    1.483   .     S
C750   C758    1.451   .     S
C750   C751    1.390   .     A
C751   H765    1.076   .     S
C752   H766    1.077   .     S
C752   C753    1.402   .     A
C752   C199    1.381   1_565 S
C754   N777    1.373   .     A
C754   C803    1.487   .     S
C754   C571    1.431   1_655 S
C755   C807    1.478   .     S
C755   N776    1.383   .     A
C756   N776    1.366   .     A
C756   H767    1.081   .     S
C757   H768    1.080   .     S
C757   N777    1.367   .     A
C757   C572    1.423   1_655 S
C758   O783    1.296   .     A
C758   O782    1.304   .     A
C759   O785    1.299   .     A
C759   O784    1.306   .     A
C759   C761    1.462   .     S
C760   C1569   1.399   1_554 S
C760   H1598   1.084   1_554 S
C762   C763    1.379   .     A
C762   H772    1.084   .     S
C763   C1592   1.386   .     S
C763   H1602   1.071   .     S
C764   H773    1.074   .     S
C764   C1566   1.413   1_554 S
C764   C1591   1.386   1_554 S
H770   C1588   1.084   .     S
H774   C1591   1.071   1_554 S
N776   Zn786   2.033   .     S
N777   Zn787   2.032   .     S
O778   Zn786   1.977   .     S
O779   Zn787   2.002   .     S
O780   Zn786   1.993   .     S
O781   Zn787   1.968   .     S
O782   Zn786   2.002   .     S
O783   Zn787   1.977   .     S
O784   Zn786   1.968   .     S
O785   Zn787   1.993   .     S
C788   C793    1.412   .     A
C788   C789    1.401   .     A
C789   H794    1.068   .     S
C789   C606    1.395   1_655 S
C790   H795    1.082   .     S
C790   C791    1.398   .     A
C791   H796    1.083   .     S
C792   C793    1.397   .     A
C792   C607    1.394   1_655 S
C792   H613    1.082   1_655 S
C793   H798    1.084   .     S
C799   O801    1.397   .     S
C799   O800    1.221   .     D
O801   H802    1.014   .     S
C803   O804    1.221   .     D
C803   O805    1.392   .     S
O805   H806    1.013   .     S
C807   C808    1.401   .     A
C807   C812    1.399   .     A
C808   H813    1.078   .     S
C808   C809    1.399   .     A
C809   C810    1.396   .     A
C809   H814    1.081   .     S
C810   C811    1.396   .     A
C810   H815    1.082   .     S
C811   H816    1.080   .     S
C811   C812    1.399   .     A
C812   H817    1.079   .     S
C818   C819    1.403   .     A
C818   C823    1.400   .     A
C819   C820    1.398   .     A
C819   H824    1.083   .     S
C820   C637    1.397   1_655 S
C820   H641    1.081   1_655 S
C821   H826    1.074   .     S
C822   C823    1.390   .     A
C822   C637    1.389   1_655 S
C822   H643    1.079   1_655 S
C823   H828    1.083   .     S
C829   O871    1.296   .     A
C829   C845    1.454   .     S
C829   O870    1.303   .     A
C830   C831    1.414   .     A
C830   C4      1.416   1_556 S
C830   C28     1.413   1_556 S
C831   C835    1.416   .     A
C831   C838    1.423   .     A
C832   C836    1.394   .     A
C833   C834    1.383   .     A
C833   C4      1.418   1_556 S
C833   C24     1.399   1_556 S
C834   C835    1.381   .     A
C834   H861    1.085   .     S
C835   H867    1.071   .     S
C836   C853    1.388   .     A
C836   H863    1.073   .     S
C837   C853    1.402   .     A
C837   C880    1.484   .     S
C837   C852    1.399   .     A
C838   C854    1.398   .     A
C838   C840    1.463   .     S
C839   C910    1.468   .     S
C839   C845    1.414   .     A
C839   C1117   1.390   .     S
C840   O873    1.296   .     A
C840   O872    1.310   .     A
C841   C842    1.399   .     A
C841   C891    1.483   .     S
C841   C1391   1.390   1_545 S
C842   C850    1.451   .     S
C842   C843    1.390   .     A
C843   H857    1.076   .     S
C843   C1396   1.381   1_545 S
C844   H858    1.077   .     S
C844   C845    1.402   .     A
C844   C1119   1.381   .     S
C846   N869    1.373   .     A
C846   C895    1.487   .     S
C846   C939    1.431   .     S
C847   C899    1.478   .     S
C847   N868    1.383   .     A
C847   C1030   1.431   1_455 S
C848   N868    1.366   .     A
C848   H859    1.081   .     S
C848   C1033   1.423   1_455 S
C849   H860    1.080   .     S
C849   N869    1.367   .     A
C849   C940    1.423   .     S
C850   O875    1.296   .     A
C850   O874    1.304   .     A
C851   O877    1.299   .     A
C851   O876    1.306   .     A
C851   C853    1.462   .     S
C854   C855    1.379   .     A
C854   H864    1.084   .     S
C855   C28     1.386   1_556 S
C855   H38     1.071   1_556 S
C856   H865    1.074   .     S
H862   C24     1.084   1_556 S
N868   Zn878   2.033   .     S
N869   Zn879   2.032   .     S
O870   Zn878   1.977   .     S
O871   Zn879   2.002   .     S
O872   Zn878   1.993   .     S
O873   Zn879   1.968   .     S
O874   Zn878   2.002   .     S
O875   Zn879   1.977   .     S
O876   Zn878   1.968   .     S
O877   Zn879   1.993   .     S
C880   C885    1.412   .     A
C880   C881    1.401   .     A
C881   H886    1.068   .     S
C881   C974    1.395   .     S
C882   H887    1.082   .     S
C882   C883    1.398   .     A
C882   C1065   1.395   1_455 S
C883   H888    1.083   .     S
C883   C1068   1.394   1_455 S
C884   C885    1.397   .     A
C884   C975    1.394   .     S
C884   H981    1.082   .     S
C885   H890    1.084   .     S
H889   C1068   1.082   1_455 S
C891   O893    1.397   .     S
C891   O892    1.221   .     D
O893   H894    1.014   .     S
C895   O896    1.221   .     D
C895   O897    1.392   .     S
O897   H898    1.013   .     S
C899   C900    1.401   .     A
C899   C904    1.399   .     A
C900   H905    1.078   .     S
C900   C901    1.399   .     A
C901   C902    1.396   .     A
C901   H906    1.081   .     S
C902   C903    1.396   .     A
C902   H907    1.082   .     S
C903   H908    1.080   .     S
C903   C904    1.399   .     A
C904   H909    1.079   .     S
C910   C911    1.403   .     A
C910   C915    1.400   .     A
C911   C912    1.398   .     A
C911   H916    1.083   .     S
C912   C1005   1.397   .     S
C912   H1009   1.081   .     S
C913   H918    1.074   .     S
C913   C1096   1.397   1_455 S
C913   C1098   1.389   1_455 S
C914   C915    1.390   .     A
C914   C1005   1.389   .     S
C914   H1011   1.079   .     S
C915   H920    1.083   .     S
H917   C1096   1.081   1_455 S
H919   C1098   1.079   1_455 S
C921   O963    1.296   .     A
C921   C937    1.454   .     S
C921   O962    1.303   .     A
C922   C923    1.414   .     A
C922   C96     1.416   1_556 S
C922   C120    1.413   1_556 S
C923   C927    1.416   .     A
C923   C930    1.423   .     A
C924   C928    1.394   .     A
C925   C926    1.383   .     A
C925   C96     1.418   1_556 S
C925   C116    1.399   1_556 S
C926   C927    1.381   .     A
C926   H953    1.085   .     S
C927   H959    1.071   .     S
C928   C945    1.388   .     A
C928   H955    1.073   .     S
C929   C945    1.402   .     A
C929   C972    1.484   .     S
C929   C944    1.399   .     A
C930   C946    1.398   .     A
C930   C932    1.463   .     S
C931   C1002   1.468   .     S
C931   C937    1.414   .     A
C931   C1209   1.390   .     S
C932   O965    1.296   .     A
C932   O964    1.310   .     A
C933   C934    1.399   .     A
C933   C983    1.483   .     S
C933   C1483   1.390   1_545 S
C934   C942    1.451   .     S
C934   C935    1.390   .     A
C935   H949    1.076   .     S
C935   C1488   1.381   1_545 S
C936   H950    1.077   .     S
C936   C937    1.402   .     A
C936   C1211   1.381   .     S
C938   N961    1.373   .     A
C938   C987    1.487   .     S
C938   C1031   1.431   .     S
C939   C991    1.478   .     S
C939   N960    1.383   .     A
C940   N960    1.366   .     A
C940   H951    1.081   .     S
C941   H952    1.080   .     S
C941   N961    1.367   .     A
C941   C1032   1.423   .     S
C942   O967    1.296   .     A
C942   O966    1.304   .     A
C943   O969    1.299   .     A
C943   O968    1.306   .     A
C943   C945    1.462   .     S
C946   C947    1.379   .     A
C946   H956    1.084   .     S
C947   C120    1.386   1_556 S
C947   H130    1.071   1_556 S
C948   H957    1.074   .     S
H954   C116    1.084   1_556 S
N960   Zn970   2.033   .     S
N961   Zn971   2.032   .     S
O962   Zn970   1.977   .     S
O963   Zn971   2.002   .     S
O964   Zn970   1.993   .     S
O965   Zn971   1.968   .     S
O966   Zn970   2.002   .     S
O967   Zn971   1.977   .     S
O968   Zn970   1.968   .     S
O969   Zn971   1.993   .     S
C972   C977    1.412   .     A
C972   C973    1.401   .     A
C973   H978    1.068   .     S
C973   C1066   1.395   .     S
C974   H979    1.082   .     S
C974   C975    1.398   .     A
C975   H980    1.083   .     S
C976   C977    1.397   .     A
C976   C1067   1.394   .     S
C976   H1073   1.082   .     S
C977   H982    1.084   .     S
C983   O985    1.397   .     S
C983   O984    1.221   .     D
O985   H986    1.014   .     S
C987   O988    1.221   .     D
C987   O989    1.392   .     S
O989   H990    1.013   .     S
C991   C992    1.401   .     A
C991   C996    1.399   .     A
C992   H997    1.078   .     S
C992   C993    1.399   .     A
C993   C994    1.396   .     A
C993   H998    1.081   .     S
C994   C995    1.396   .     A
C994   H999    1.082   .     S
C995   H1000   1.080   .     S
C995   C996    1.399   .     A
C996   H1001   1.079   .     S
C1002  C1003   1.403   .     A
C1002  C1007   1.400   .     A
C1003  C1004   1.398   .     A
C1003  H1008   1.083   .     S
C1004  C1097   1.397   .     S
C1004  H1101   1.081   .     S
C1005  H1010   1.074   .     S
C1006  C1007   1.390   .     A
C1006  C1097   1.389   .     S
C1006  H1103   1.079   .     S
C1007  H1012   1.083   .     S
C1013  O1055   1.296   .     A
C1013  C1029   1.454   .     S
C1013  O1054   1.303   .     A
C1014  C1015   1.414   .     A
C1014  C188    1.416   1_556 S
C1014  C212    1.413   1_556 S
C1015  C1019   1.416   .     A
C1015  C1022   1.423   .     A
C1016  C1020   1.394   .     A
C1017  C1018   1.383   .     A
C1017  C188    1.418   1_556 S
C1017  C208    1.399   1_556 S
C1018  C1019   1.381   .     A
C1018  H1045   1.085   .     S
C1019  H1051   1.071   .     S
C1020  C1037   1.388   .     A
C1020  H1047   1.073   .     S
C1021  C1037   1.402   .     A
C1021  C1064   1.484   .     S
C1021  C1036   1.399   .     A
C1022  C1038   1.398   .     A
C1022  C1024   1.463   .     S
C1023  C1094   1.468   .     S
C1023  C1029   1.414   .     A
C1023  C1301   1.390   .     S
C1024  O1057   1.296   .     A
C1024  O1056   1.310   .     A
C1025  C1026   1.399   .     A
C1025  C1075   1.483   .     S
C1025  C1575   1.390   1_545 S
C1026  C1034   1.451   .     S
C1026  C1027   1.390   .     A
C1027  H1041   1.076   .     S
C1027  C1580   1.381   1_545 S
C1028  H1042   1.077   .     S
C1028  C1029   1.402   .     A
C1028  C1303   1.381   .     S
C1030  N1053   1.373   .     A
C1030  C1079   1.487   .     S
C1030  C847    1.431   1_655 S
C1031  C1083   1.478   .     S
C1031  N1052   1.383   .     A
C1032  N1052   1.366   .     A
C1032  H1043   1.081   .     S
C1033  H1044   1.080   .     S
C1033  N1053   1.367   .     A
C1033  C848    1.423   1_655 S
C1034  O1059   1.296   .     A
C1034  O1058   1.304   .     A
C1035  O1061   1.299   .     A
C1035  O1060   1.306   .     A
C1035  C1037   1.462   .     S
C1038  C1039   1.379   .     A
C1038  H1048   1.084   .     S
C1039  C212    1.386   1_556 S
C1039  H222    1.071   1_556 S
C1040  H1049   1.074   .     S
H1046  C208    1.084   1_556 S
N1052  Zn1062  2.033   .     S
N1053  Zn1063  2.032   .     S
O1054  Zn1062  1.977   .     S
O1055  Zn1063  2.002   .     S
O1056  Zn1062  1.993   .     S
O1057  Zn1063  1.968   .     S
O1058  Zn1062  2.002   .     S
O1059  Zn1063  1.977   .     S
O1060  Zn1062  1.968   .     S
O1061  Zn1063  1.993   .     S
C1064  C1069   1.412   .     A
C1064  C1065   1.401   .     A
C1065  H1070   1.068   .     S
C1065  C882    1.395   1_655 S
C1066  H1071   1.082   .     S
C1066  C1067   1.398   .     A
C1067  H1072   1.083   .     S
C1068  C1069   1.397   .     A
C1068  C883    1.394   1_655 S
C1068  H889    1.082   1_655 S
C1069  H1074   1.084   .     S
C1075  O1077   1.397   .     S
C1075  O1076   1.221   .     D
O1077  H1078   1.014   .     S
C1079  O1080   1.221   .     D
C1079  O1081   1.392   .     S
O1081  H1082   1.013   .     S
C1083  C1084   1.401   .     A
C1083  C1088   1.399   .     A
C1084  H1089   1.078   .     S
C1084  C1085   1.399   .     A
C1085  C1086   1.396   .     A
C1085  H1090   1.081   .     S
C1086  C1087   1.396   .     A
C1086  H1091   1.082   .     S
C1087  H1092   1.080   .     S
C1087  C1088   1.399   .     A
C1088  H1093   1.079   .     S
C1094  C1095   1.403   .     A
C1094  C1099   1.400   .     A
C1095  C1096   1.398   .     A
C1095  H1100   1.083   .     S
C1096  C913    1.397   1_655 S
C1096  H917    1.081   1_655 S
C1097  H1102   1.074   .     S
C1098  C1099   1.390   .     A
C1098  C913    1.389   1_655 S
C1098  H919    1.079   1_655 S
C1099  H1104   1.083   .     S
C1105  O1147   1.296   .     A
C1105  C1121   1.454   .     S
C1105  O1146   1.303   .     A
C1106  C1107   1.414   .     A
C1106  C280    1.416   1_556 S
C1106  C304    1.413   1_556 S
C1107  C1111   1.416   .     A
C1107  C1114   1.423   .     A
C1108  C1112   1.394   .     A
C1109  C1110   1.383   .     A
C1109  C280    1.418   1_556 S
C1109  C300    1.399   1_556 S
C1110  C1111   1.381   .     A
C1110  H1137   1.085   .     S
C1111  H1143   1.071   .     S
C1112  C1129   1.388   .     A
C1112  H1139   1.073   .     S
C1113  C1129   1.402   .     A
C1113  C1156   1.484   .     S
C1113  C1128   1.399   .     A
C1114  C1130   1.398   .     A
C1114  C1116   1.463   .     S
C1115  C1186   1.468   .     S
C1115  C1121   1.414   .     A
C1115  C1393   1.390   .     S
C1116  O1149   1.296   .     A
C1116  O1148   1.310   .     A
C1117  C1118   1.399   .     A
C1117  C1167   1.483   .     S
C1118  C1126   1.451   .     S
C1118  C1119   1.390   .     A
C1119  H1133   1.076   .     S
C1120  H1134   1.077   .     S
C1120  C1121   1.402   .     A
C1120  C1395   1.381   .     S
C1122  N1145   1.373   .     A
C1122  C1171   1.487   .     S
C1122  C1215   1.431   .     S
C1123  C1175   1.478   .     S
C1123  N1144   1.383   .     A
C1123  C1306   1.431   1_455 S
C1124  N1144   1.366   .     A
C1124  H1135   1.081   .     S
C1124  C1309   1.423   1_455 S
C1125  H1136   1.080   .     S
C1125  N1145   1.367   .     A
C1125  C1216   1.423   .     S
C1126  O1151   1.296   .     A
C1126  O1150   1.304   .     A
C1127  O1153   1.299   .     A
C1127  O1152   1.306   .     A
C1127  C1129   1.462   .     S
C1130  C1131   1.379   .     A
C1130  H1140   1.084   .     S
C1131  C304    1.386   1_556 S
C1131  H314    1.071   1_556 S
C1132  H1141   1.074   .     S
H1138  C300    1.084   1_556 S
N1144  Zn1154  2.033   .     S
N1145  Zn1155  2.032   .     S
O1146  Zn1154  1.977   .     S
O1147  Zn1155  2.002   .     S
O1148  Zn1154  1.993   .     S
O1149  Zn1155  1.968   .     S
O1150  Zn1154  2.002   .     S
O1151  Zn1155  1.977   .     S
O1152  Zn1154  1.968   .     S
O1153  Zn1155  1.993   .     S
C1156  C1161   1.412   .     A
C1156  C1157   1.401   .     A
C1157  H1162   1.068   .     S
C1157  C1250   1.395   .     S
C1158  H1163   1.082   .     S
C1158  C1159   1.398   .     A
C1158  C1341   1.395   1_455 S
C1159  H1164   1.083   .     S
C1159  C1344   1.394   1_455 S
C1160  C1161   1.397   .     A
C1160  C1251   1.394   .     S
C1160  H1257   1.082   .     S
C1161  H1166   1.084   .     S
H1165  C1344   1.082   1_455 S
C1167  O1169   1.397   .     S
C1167  O1168   1.221   .     D
O1169  H1170   1.014   .     S
C1171  O1172   1.221   .     D
C1171  O1173   1.392   .     S
O1173  H1174   1.013   .     S
C1175  C1176   1.401   .     A
C1175  C1180   1.399   .     A
C1176  H1181   1.078   .     S
C1176  C1177   1.399   .     A
C1177  C1178   1.396   .     A
C1177  H1182   1.081   .     S
C1178  C1179   1.396   .     A
C1178  H1183   1.082   .     S
C1179  H1184   1.080   .     S
C1179  C1180   1.399   .     A
C1180  H1185   1.079   .     S
C1186  C1187   1.403   .     A
C1186  C1191   1.400   .     A
C1187  C1188   1.398   .     A
C1187  H1192   1.083   .     S
C1188  C1281   1.397   .     S
C1188  H1285   1.081   .     S
C1189  H1194   1.074   .     S
C1189  C1372   1.397   1_455 S
C1189  C1374   1.389   1_455 S
C1190  C1191   1.390   .     A
C1190  C1281   1.389   .     S
C1190  H1287   1.079   .     S
C1191  H1196   1.083   .     S
H1193  C1372   1.081   1_455 S
H1195  C1374   1.079   1_455 S
C1197  O1239   1.296   .     A
C1197  C1213   1.454   .     S
C1197  O1238   1.303   .     A
C1198  C1199   1.414   .     A
C1198  C372    1.416   1_556 S
C1198  C396    1.413   1_556 S
C1199  C1203   1.416   .     A
C1199  C1206   1.423   .     A
C1200  C1204   1.394   .     A
C1201  C1202   1.383   .     A
C1201  C372    1.418   1_556 S
C1201  C392    1.399   1_556 S
C1202  C1203   1.381   .     A
C1202  H1229   1.085   .     S
C1203  H1235   1.071   .     S
C1204  C1221   1.388   .     A
C1204  H1231   1.073   .     S
C1205  C1221   1.402   .     A
C1205  C1248   1.484   .     S
C1205  C1220   1.399   .     A
C1206  C1222   1.398   .     A
C1206  C1208   1.463   .     S
C1207  C1278   1.468   .     S
C1207  C1213   1.414   .     A
C1207  C1485   1.390   .     S
C1208  O1241   1.296   .     A
C1208  O1240   1.310   .     A
C1209  C1210   1.399   .     A
C1209  C1259   1.483   .     S
C1210  C1218   1.451   .     S
C1210  C1211   1.390   .     A
C1211  H1225   1.076   .     S
C1212  H1226   1.077   .     S
C1212  C1213   1.402   .     A
C1212  C1487   1.381   .     S
C1214  N1237   1.373   .     A
C1214  C1263   1.487   .     S
C1214  C1307   1.431   .     S
C1215  C1267   1.478   .     S
C1215  N1236   1.383   .     A
C1216  N1236   1.366   .     A
C1216  H1227   1.081   .     S
C1217  H1228   1.080   .     S
C1217  N1237   1.367   .     A
C1217  C1308   1.423   .     S
C1218  O1243   1.296   .     A
C1218  O1242   1.304   .     A
C1219  O1245   1.299   .     A
C1219  O1244   1.306   .     A
C1219  C1221   1.462   .     S
C1222  C1223   1.379   .     A
C1222  H1232   1.084   .     S
C1223  C396    1.386   1_556 S
C1223  H406    1.071   1_556 S
C1224  H1233   1.074   .     S
H1230  C392    1.084   1_556 S
N1236  Zn1246  2.033   .     S
N1237  Zn1247  2.032   .     S
O1238  Zn1246  1.977   .     S
O1239  Zn1247  2.002   .     S
O1240  Zn1246  1.993   .     S
O1241  Zn1247  1.968   .     S
O1242  Zn1246  2.002   .     S
O1243  Zn1247  1.977   .     S
O1244  Zn1246  1.968   .     S
O1245  Zn1247  1.993   .     S
C1248  C1253   1.412   .     A
C1248  C1249   1.401   .     A
C1249  H1254   1.068   .     S
C1249  C1342   1.395   .     S
C1250  H1255   1.082   .     S
C1250  C1251   1.398   .     A
C1251  H1256   1.083   .     S
C1252  C1253   1.397   .     A
C1252  C1343   1.394   .     S
C1252  H1349   1.082   .     S
C1253  H1258   1.084   .     S
C1259  O1261   1.397   .     S
C1259  O1260   1.221   .     D
O1261  H1262   1.014   .     S
C1263  O1264   1.221   .     D
C1263  O1265   1.392   .     S
O1265  H1266   1.013   .     S
C1267  C1268   1.401   .     A
C1267  C1272   1.399   .     A
C1268  H1273   1.078   .     S
C1268  C1269   1.399   .     A
C1269  C1270   1.396   .     A
C1269  H1274   1.081   .     S
C1270  C1271   1.396   .     A
C1270  H1275   1.082   .     S
C1271  H1276   1.080   .     S
C1271  C1272   1.399   .     A
C1272  H1277   1.079   .     S
C1278  C1279   1.403   .     A
C1278  C1283   1.400   .     A
C1279  C1280   1.398   .     A
C1279  H1284   1.083   .     S
C1280  C1373   1.397   .     S
C1280  H1377   1.081   .     S
C1281  H1286   1.074   .     S
C1282  C1283   1.390   .     A
C1282  C1373   1.389   .     S
C1282  H1379   1.079   .     S
C1283  H1288   1.083   .     S
C1289  O1331   1.296   .     A
C1289  C1305   1.454   .     S
C1289  O1330   1.303   .     A
C1290  C1291   1.414   .     A
C1290  C464    1.416   1_556 S
C1290  C488    1.413   1_556 S
C1291  C1295   1.416   .     A
C1291  C1298   1.423   .     A
C1292  C1296   1.394   .     A
C1293  C1294   1.383   .     A
C1293  C464    1.418   1_556 S
C1293  C484    1.399   1_556 S
C1294  C1295   1.381   .     A
C1294  H1321   1.085   .     S
C1295  H1327   1.071   .     S
C1296  C1313   1.388   .     A
C1296  H1323   1.073   .     S
C1297  C1313   1.402   .     A
C1297  C1340   1.484   .     S
C1297  C1312   1.399   .     A
C1298  C1314   1.398   .     A
C1298  C1300   1.463   .     S
C1299  C1370   1.468   .     S
C1299  C1305   1.414   .     A
C1299  C1577   1.390   .     S
C1300  O1333   1.296   .     A
C1300  O1332   1.310   .     A
C1301  C1302   1.399   .     A
C1301  C1351   1.483   .     S
C1302  C1310   1.451   .     S
C1302  C1303   1.390   .     A
C1303  H1317   1.076   .     S
C1304  H1318   1.077   .     S
C1304  C1305   1.402   .     A
C1304  C1579   1.381   .     S
C1306  N1329   1.373   .     A
C1306  C1355   1.487   .     S
C1306  C1123   1.431   1_655 S
C1307  C1359   1.478   .     S
C1307  N1328   1.383   .     A
C1308  N1328   1.366   .     A
C1308  H1319   1.081   .     S
C1309  H1320   1.080   .     S
C1309  N1329   1.367   .     A
C1309  C1124   1.423   1_655 S
C1310  O1335   1.296   .     A
C1310  O1334   1.304   .     A
C1311  O1337   1.299   .     A
C1311  O1336   1.306   .     A
C1311  C1313   1.462   .     S
C1314  C1315   1.379   .     A
C1314  H1324   1.084   .     S
C1315  C488    1.386   1_556 S
C1315  H498    1.071   1_556 S
C1316  H1325   1.074   .     S
H1322  C484    1.084   1_556 S
N1328  Zn1338  2.033   .     S
N1329  Zn1339  2.032   .     S
O1330  Zn1338  1.977   .     S
O1331  Zn1339  2.002   .     S
O1332  Zn1338  1.993   .     S
O1333  Zn1339  1.968   .     S
O1334  Zn1338  2.002   .     S
O1335  Zn1339  1.977   .     S
O1336  Zn1338  1.968   .     S
O1337  Zn1339  1.993   .     S
C1340  C1345   1.412   .     A
C1340  C1341   1.401   .     A
C1341  H1346   1.068   .     S
C1341  C1158   1.395   1_655 S
C1342  H1347   1.082   .     S
C1342  C1343   1.398   .     A
C1343  H1348   1.083   .     S
C1344  C1345   1.397   .     A
C1344  C1159   1.394   1_655 S
C1344  H1165   1.082   1_655 S
C1345  H1350   1.084   .     S
C1351  O1353   1.397   .     S
C1351  O1352   1.221   .     D
O1353  H1354   1.014   .     S
C1355  O1356   1.221   .     D
C1355  O1357   1.392   .     S
O1357  H1358   1.013   .     S
C1359  C1360   1.401   .     A
C1359  C1364   1.399   .     A
C1360  H1365   1.078   .     S
C1360  C1361   1.399   .     A
C1361  C1362   1.396   .     A
C1361  H1366   1.081   .     S
C1362  C1363   1.396   .     A
C1362  H1367   1.082   .     S
C1363  H1368   1.080   .     S
C1363  C1364   1.399   .     A
C1364  H1369   1.079   .     S
C1370  C1371   1.403   .     A
C1370  C1375   1.400   .     A
C1371  C1372   1.398   .     A
C1371  H1376   1.083   .     S
C1372  C1189   1.397   1_655 S
C1372  H1193   1.081   1_655 S
C1373  H1378   1.074   .     S
C1374  C1375   1.390   .     A
C1374  C1189   1.389   1_655 S
C1374  H1195   1.079   1_655 S
C1375  H1380   1.083   .     S
C1381  O1423   1.296   .     A
C1381  C1397   1.454   .     S
C1381  O1422   1.303   .     A
C1382  C1383   1.414   .     A
C1382  C556    1.416   1_556 S
C1382  C580    1.413   1_556 S
C1383  C1387   1.416   .     A
C1383  C1390   1.423   .     A
C1384  C1388   1.394   .     A
C1385  C1386   1.383   .     A
C1385  C556    1.418   1_556 S
C1385  C576    1.399   1_556 S
C1386  C1387   1.381   .     A
C1386  H1413   1.085   .     S
C1387  H1419   1.071   .     S
C1388  C1405   1.388   .     A
C1388  H1415   1.073   .     S
C1389  C1405   1.402   .     A
C1389  C1432   1.484   .     S
C1389  C1404   1.399   .     A
C1390  C1406   1.398   .     A
C1390  C1392   1.463   .     S
C1391  C1462   1.468   .     S
C1391  C1397   1.414   .     A
C1391  C841    1.390   1_565 S
C1392  O1425   1.296   .     A
C1392  O1424   1.310   .     A
C1393  C1394   1.399   .     A
C1393  C1443   1.483   .     S
C1394  C1402   1.451   .     S
C1394  C1395   1.390   .     A
C1395  H1409   1.076   .     S
C1396  H1410   1.077   .     S
C1396  C1397   1.402   .     A
C1396  C843    1.381   1_565 S
C1398  N1421   1.373   .     A
C1398  C1447   1.487   .     S
C1398  C1491   1.431   .     S
C1399  C1451   1.478   .     S
C1399  N1420   1.383   .     A
C1399  C1582   1.431   1_455 S
C1400  N1420   1.366   .     A
C1400  H1411   1.081   .     S
C1400  C1585   1.423   1_455 S
C1401  H1412   1.080   .     S
C1401  N1421   1.367   .     A
C1401  C1492   1.423   .     S
C1402  O1427   1.296   .     A
C1402  O1426   1.304   .     A
C1403  O1429   1.299   .     A
C1403  O1428   1.306   .     A
C1403  C1405   1.462   .     S
C1406  C1407   1.379   .     A
C1406  H1416   1.084   .     S
C1407  C580    1.386   1_556 S
C1407  H590    1.071   1_556 S
C1408  H1417   1.074   .     S
H1414  C576    1.084   1_556 S
N1420  Zn1430  2.033   .     S
N1421  Zn1431  2.032   .     S
O1422  Zn1430  1.977   .     S
O1423  Zn1431  2.002   .     S
O1424  Zn1430  1.993   .     S
O1425  Zn1431  1.968   .     S
O1426  Zn1430  2.002   .     S
O1427  Zn1431  1.977   .     S
O1428  Zn1430  1.968   .     S
O1429  Zn1431  1.993   .     S
C1432  C1437   1.412   .     A
C1432  C1433   1.401   .     A
C1433  H1438   1.068   .     S
C1433  C1526   1.395   .     S
C1434  H1439   1.082   .     S
C1434  C1435   1.398   .     A
C1434  C1617   1.395   1_455 S
C1435  H1440   1.083   .     S
C1435  C1620   1.394   1_455 S
C1436  C1437   1.397   .     A
C1436  C1527   1.394   .     S
C1436  H1533   1.082   .     S
C1437  H1442   1.084   .     S
H1441  C1620   1.082   1_455 S
C1443  O1445   1.397   .     S
C1443  O1444   1.221   .     D
O1445  H1446   1.014   .     S
C1447  O1448   1.221   .     D
C1447  O1449   1.392   .     S
O1449  H1450   1.013   .     S
C1451  C1452   1.401   .     A
C1451  C1456   1.399   .     A
C1452  H1457   1.078   .     S
C1452  C1453   1.399   .     A
C1453  C1454   1.396   .     A
C1453  H1458   1.081   .     S
C1454  C1455   1.396   .     A
C1454  H1459   1.082   .     S
C1455  H1460   1.080   .     S
C1455  C1456   1.399   .     A
C1456  H1461   1.079   .     S
C1462  C1463   1.403   .     A
C1462  C1467   1.400   .     A
C1463  C1464   1.398   .     A
C1463  H1468   1.083   .     S
C1464  C1557   1.397   .     S
C1464  H1561   1.081   .     S
C1465  H1470   1.074   .     S
C1465  C1648   1.397   1_455 S
C1465  C1650   1.389   1_455 S
C1466  C1467   1.390   .     A
C1466  C1557   1.389   .     S
C1466  H1563   1.079   .     S
C1467  H1472   1.083   .     S
H1469  C1648   1.081   1_455 S
H1471  C1650   1.079   1_455 S
C1473  O1515   1.296   .     A
C1473  C1489   1.454   .     S
C1473  O1514   1.303   .     A
C1474  C1475   1.414   .     A
C1474  C648    1.416   1_556 S
C1474  C672    1.413   1_556 S
C1475  C1479   1.416   .     A
C1475  C1482   1.423   .     A
C1476  C1480   1.394   .     A
C1477  C1478   1.383   .     A
C1477  C648    1.418   1_556 S
C1477  C668    1.399   1_556 S
C1478  C1479   1.381   .     A
C1478  H1505   1.085   .     S
C1479  H1511   1.071   .     S
C1480  C1497   1.388   .     A
C1480  H1507   1.073   .     S
C1481  C1497   1.402   .     A
C1481  C1524   1.484   .     S
C1481  C1496   1.399   .     A
C1482  C1498   1.398   .     A
C1482  C1484   1.463   .     S
C1483  C1554   1.468   .     S
C1483  C1489   1.414   .     A
C1483  C933    1.390   1_565 S
C1484  O1517   1.296   .     A
C1484  O1516   1.310   .     A
C1485  C1486   1.399   .     A
C1485  C1535   1.483   .     S
C1486  C1494   1.451   .     S
C1486  C1487   1.390   .     A
C1487  H1501   1.076   .     S
C1488  H1502   1.077   .     S
C1488  C1489   1.402   .     A
C1488  C935    1.381   1_565 S
C1490  N1513   1.373   .     A
C1490  C1539   1.487   .     S
C1490  C1583   1.431   .     S
C1491  C1543   1.478   .     S
C1491  N1512   1.383   .     A
C1492  N1512   1.366   .     A
C1492  H1503   1.081   .     S
C1493  H1504   1.080   .     S
C1493  N1513   1.367   .     A
C1493  C1584   1.423   .     S
C1494  O1519   1.296   .     A
C1494  O1518   1.304   .     A
C1495  O1521   1.299   .     A
C1495  O1520   1.306   .     A
C1495  C1497   1.462   .     S
C1498  C1499   1.379   .     A
C1498  H1508   1.084   .     S
C1499  C672    1.386   1_556 S
C1499  H682    1.071   1_556 S
C1500  H1509   1.074   .     S
H1506  C668    1.084   1_556 S
N1512  Zn1522  2.033   .     S
N1513  Zn1523  2.032   .     S
O1514  Zn1522  1.977   .     S
O1515  Zn1523  2.002   .     S
O1516  Zn1522  1.993   .     S
O1517  Zn1523  1.968   .     S
O1518  Zn1522  2.002   .     S
O1519  Zn1523  1.977   .     S
O1520  Zn1522  1.968   .     S
O1521  Zn1523  1.993   .     S
C1524  C1529   1.412   .     A
C1524  C1525   1.401   .     A
C1525  H1530   1.068   .     S
C1525  C1618   1.395   .     S
C1526  H1531   1.082   .     S
C1526  C1527   1.398   .     A
C1527  H1532   1.083   .     S
C1528  C1529   1.397   .     A
C1528  C1619   1.394   .     S
C1528  H1625   1.082   .     S
C1529  H1534   1.084   .     S
C1535  O1537   1.397   .     S
C1535  O1536   1.221   .     D
O1537  H1538   1.014   .     S
C1539  O1540   1.221   .     D
C1539  O1541   1.392   .     S
O1541  H1542   1.013   .     S
C1543  C1544   1.401   .     A
C1543  C1548   1.399   .     A
C1544  H1549   1.078   .     S
C1544  C1545   1.399   .     A
C1545  C1546   1.396   .     A
C1545  H1550   1.081   .     S
C1546  C1547   1.396   .     A
C1546  H1551   1.082   .     S
C1547  H1552   1.080   .     S
C1547  C1548   1.399   .     A
C1548  H1553   1.079   .     S
C1554  C1555   1.403   .     A
C1554  C1559   1.400   .     A
C1555  C1556   1.398   .     A
C1555  H1560   1.083   .     S
C1556  C1649   1.397   .     S
C1556  H1653   1.081   .     S
C1557  H1562   1.074   .     S
C1558  C1559   1.390   .     A
C1558  C1649   1.389   .     S
C1558  H1655   1.079   .     S
C1559  H1564   1.083   .     S
C1565  O1607   1.296   .     A
C1565  C1581   1.454   .     S
C1565  O1606   1.303   .     A
C1566  C1567   1.414   .     A
C1566  C740    1.416   1_556 S
C1566  C764    1.413   1_556 S
C1567  C1571   1.416   .     A
C1567  C1574   1.423   .     A
C1568  C1572   1.394   .     A
C1569  C1570   1.383   .     A
C1569  C740    1.418   1_556 S
C1569  C760    1.399   1_556 S
C1570  C1571   1.381   .     A
C1570  H1597   1.085   .     S
C1571  H1603   1.071   .     S
C1572  C1589   1.388   .     A
C1572  H1599   1.073   .     S
C1573  C1589   1.402   .     A
C1573  C1616   1.484   .     S
C1573  C1588   1.399   .     A
C1574  C1590   1.398   .     A
C1574  C1576   1.463   .     S
C1575  C1646   1.468   .     S
C1575  C1581   1.414   .     A
C1575  C1025   1.390   1_565 S
C1576  O1609   1.296   .     A
C1576  O1608   1.310   .     A
C1577  C1578   1.399   .     A
C1577  C1627   1.483   .     S
C1578  C1586   1.451   .     S
C1578  C1579   1.390   .     A
C1579  H1593   1.076   .     S
C1580  H1594   1.077   .     S
C1580  C1581   1.402   .     A
C1580  C1027   1.381   1_565 S
C1582  N1605   1.373   .     A
C1582  C1631   1.487   .     S
C1582  C1399   1.431   1_655 S
C1583  C1635   1.478   .     S
C1583  N1604   1.383   .     A
C1584  N1604   1.366   .     A
C1584  H1595   1.081   .     S
C1585  H1596   1.080   .     S
C1585  N1605   1.367   .     A
C1585  C1400   1.423   1_655 S
C1586  O1611   1.296   .     A
C1586  O1610   1.304   .     A
C1587  O1613   1.299   .     A
C1587  O1612   1.306   .     A
C1587  C1589   1.462   .     S
C1590  C1591   1.379   .     A
C1590  H1600   1.084   .     S
C1591  C764    1.386   1_556 S
C1591  H774    1.071   1_556 S
C1592  H1601   1.074   .     S
H1598  C760    1.084   1_556 S
N1604  Zn1614  2.033   .     S
N1605  Zn1615  2.032   .     S
O1606  Zn1614  1.977   .     S
O1607  Zn1615  2.002   .     S
O1608  Zn1614  1.993   .     S
O1609  Zn1615  1.968   .     S
O1610  Zn1614  2.002   .     S
O1611  Zn1615  1.977   .     S
O1612  Zn1614  1.968   .     S
O1613  Zn1615  1.993   .     S
C1616  C1621   1.412   .     A
C1616  C1617   1.401   .     A
C1617  H1622   1.068   .     S
C1617  C1434   1.395   1_655 S
C1618  H1623   1.082   .     S
C1618  C1619   1.398   .     A
C1619  H1624   1.083   .     S
C1620  C1621   1.397   .     A
C1620  C1435   1.394   1_655 S
C1620  H1441   1.082   1_655 S
C1621  H1626   1.084   .     S
C1627  O1629   1.397   .     S
C1627  O1628   1.221   .     D
O1629  H1630   1.014   .     S
C1631  O1632   1.221   .     D
C1631  O1633   1.392   .     S
O1633  H1634   1.013   .     S
C1635  C1636   1.401   .     A
C1635  C1640   1.399   .     A
C1636  H1641   1.078   .     S
C1636  C1637   1.399   .     A
C1637  C1638   1.396   .     A
C1637  H1642   1.081   .     S
C1638  C1639   1.396   .     A
C1638  H1643   1.082   .     S
C1639  H1644   1.080   .     S
C1639  C1640   1.399   .     A
C1640  H1645   1.079   .     S
C1646  C1647   1.403   .     A
C1646  C1651   1.400   .     A
C1647  C1648   1.398   .     A
C1647  H1652   1.083   .     S
C1648  C1465   1.397   1_655 S
C1648  H1469   1.081   1_655 S
C1649  H1654   1.074   .     S
C1650  C1651   1.390   .     A
C1650  C1465   1.389   1_655 S
C1650  H1471   1.079   1_655 S
C1651  H1656   1.083   .     S
