data_str_m3_o1_o10_pcu_sym.133
_audit_creation_date              2020-01-03
_audit_creation_method            'Materials Studio'
_symmetry_space_group_name_H-M    'P1'
_symmetry_Int_Tables_number       1
_symmetry_cell_setting            triclinic
loop_
_symmetry_equiv_pos_as_xyz
  x,y,z
_cell_length_a                    26.6241
_cell_length_b                    32.8605
_cell_length_c                    29.7645
_cell_angle_alpha                 92.7525
_cell_angle_beta                  99.1987
_cell_angle_gamma                 92.2035
loop_
_atom_site_label
_atom_site_type_symbol
_atom_site_fract_x
_atom_site_fract_y
_atom_site_fract_z
_atom_site_U_iso_or_equiv
_atom_site_adp_type
_atom_site_occupancy
C1     C     0.16642   0.08660   0.16543   0.00000  Uiso   1.00
C2     C     0.16692   0.24673   0.16790   0.00000  Uiso   1.00
C3     C     0.06718   0.16592   0.15473   0.00000  Uiso   1.00
C4     C     0.26616   0.16742   0.17861   0.00000  Uiso   1.00
C5     C     0.01246   0.15989   0.14953   0.00000  Uiso   1.00
C6     C     0.32087   0.17344   0.18380   0.00000  Uiso   1.00
C7     C     0.13772   0.01734   0.12928   0.00000  Uiso   1.00
C8     C     0.19560   0.31599   0.20406   0.00000  Uiso   1.00
C9     C     0.13441   0.30852   0.13336   0.00000  Uiso   1.00
C10    C     0.19892   0.02481   0.19997   0.00000  Uiso   1.00
C11    C     0.16476   0.29097   0.16961   0.00000  Uiso   1.00
C12    C     0.16857   0.04237   0.16373   0.00000  Uiso   1.00
C13    C     0.20146   0.19031   0.03029   0.00000  Uiso   1.00
C14    C     0.13187   0.14302   0.30305   0.00000  Uiso   1.00
C15    C     0.20241   0.18900   0.31599   0.00000  Uiso   1.00
C16    C     0.13093   0.14433   0.01734   0.00000  Uiso   1.00
N17    N     0.16665   0.16666   0.28573   0.00000  Uiso   1.00
N18    N     0.16668   0.16668   0.04760   0.00000  Uiso   1.00
O19    O     0.16666   0.10558   0.20487   0.00000  Uiso   1.00
O20    O     0.16667   0.22775   0.12846   0.00000  Uiso   1.00
O21    O     0.16666   0.10559   0.12843   0.00000  Uiso   1.00
O22    O     0.16667   0.22774   0.20490   0.00000  Uiso   1.00
O23    O     0.09058   0.16666   0.19595   0.00000  Uiso   1.00
O24    O     0.24275   0.16667   0.13739   0.00000  Uiso   1.00
O25    O     0.09058   0.16667   0.11950   0.00000  Uiso   1.00
O26    O     0.24275   0.16666   0.21383   0.00000  Uiso   1.00
Zn27   Zn    0.16667   0.16666   0.21771   0.00000  Uiso   1.00
Zn28   Zn    0.16667   0.16667   0.11563   0.00000  Uiso   1.00
C29    C     0.32121   0.13096   0.11195   0.00000  Uiso   1.00
C30    C     0.31152   0.14332   0.06709   0.00000  Uiso   1.00
C31    C     0.28270   0.11778   0.03282   0.00000  Uiso   1.00
C32    C     0.26284   0.08019   0.04336   0.00000  Uiso   1.00
C33    C     0.27411   0.06704   0.08775   0.00000  Uiso   1.00
C34    C     0.30295   0.09239   0.12199   0.00000  Uiso   1.00
H35    H     0.32606   0.17276   0.05876   0.00000  Uiso   1.00
H36    H     0.27572   0.12709   0.33143   0.00000  Uiso   1.00
H37    H     0.24086   0.06050   0.01655   0.00000  Uiso   1.00
H38    H     0.26126   0.03704   0.09579   0.00000  Uiso   1.00
H39    H     0.31034   0.08233   0.15647   0.00000  Uiso   1.00
C40    C     0.01213   0.20237   0.22138   0.00000  Uiso   1.00
C41    C     0.03037   0.24095   0.21134   0.00000  Uiso   1.00
C42    C     0.05919   0.26631   0.24559   0.00000  Uiso   1.00
C43    C     0.07045   0.25316   0.28998   0.00000  Uiso   1.00
C44    C     0.05062   0.21556   0.30052   0.00000  Uiso   1.00
C45    C     0.02182   0.19001   0.26624   0.00000  Uiso   1.00
H46    H     0.02297   0.25101   0.17687   0.00000  Uiso   1.00
H47    H     0.07200   0.29632   0.23756   0.00000  Uiso   1.00
H48    H     0.09242   0.27286   0.31679   0.00000  Uiso   1.00
H49    H     0.05761   0.20625   0.00191   0.00000  Uiso   1.00
H50    H     0.00730   0.16056   0.27457   0.00000  Uiso   1.00
C51    C     0.11353   0.03242   0.08560   0.00000  Uiso   1.00
C52    C     0.06041   0.03327   0.07544   0.00000  Uiso   1.00
C53    C     0.03674   0.03363   0.03006   0.00000  Uiso   1.00
C54    C     0.06548   0.03341   0.32806   0.00000  Uiso   1.00
C55    C     0.11840   0.03427   0.00484   0.00000  Uiso   1.00
C56    C     0.14214   0.03329   0.05001   0.00000  Uiso   1.00
H57    H     0.03753   0.03053   0.10218   0.00000  Uiso   1.00
H58    H     0.32946   0.03353   0.02192   0.00000  Uiso   1.00
H59    H     0.04667   0.03320   0.29301   0.00000  Uiso   1.00
H60    H     0.14093   0.03516   0.31105   0.00000  Uiso   1.00
H61    H     0.18243   0.02994   0.05707   0.00000  Uiso   1.00
C62    C     0.21978   0.30092   0.24774   0.00000  Uiso   1.00
C63    C     0.19116   0.30004   0.28332   0.00000  Uiso   1.00
C64    C     0.21489   0.29905   0.32850   0.00000  Uiso   1.00
C65    C     0.26781   0.29992   0.00528   0.00000  Uiso   1.00
C66    C     0.29655   0.29970   0.30329   0.00000  Uiso   1.00
C67    C     0.27290   0.30007   0.25791   0.00000  Uiso   1.00
H68    H     0.15087   0.30339   0.27625   0.00000  Uiso   1.00
H69    H     0.19235   0.29817   0.02227   0.00000  Uiso   1.00
H70    H     0.28661   0.30013   0.04034   0.00000  Uiso   1.00
H71    H     0.00384   0.29980   0.31144   0.00000  Uiso   1.00
H72    H     0.29579   0.30280   0.23118   0.00000  Uiso   1.00
Cl73   Cl    0.08981   0.27769   0.09336   0.00000  Uiso   1.00
Cl74   Cl    0.24352   0.05565   0.23997   0.00000  Uiso   1.00
Cl75   Cl    0.24414   0.22365   0.06725   0.00000  Uiso   1.00
Cl76   Cl    0.08920   0.10968   0.26608   0.00000  Uiso   1.00
Cl77   Cl    0.25373   0.21137   0.29635   0.00000  Uiso   1.00
Cl78   Cl    0.07961   0.12196   0.03699   0.00000  Uiso   1.00
C79    C     0.49975   0.08660   0.16543   0.00000  Uiso   1.00
C80    C     0.50025   0.24673   0.16790   0.00000  Uiso   1.00
C81    C     0.40051   0.16592   0.15473   0.00000  Uiso   1.00
C82    C     0.59949   0.16742   0.17861   0.00000  Uiso   1.00
C83    C     0.34580   0.15989   0.14953   0.00000  Uiso   1.00
C84    C     0.65421   0.17344   0.18380   0.00000  Uiso   1.00
C85    C     0.47105   0.01734   0.12928   0.00000  Uiso   1.00
C86    C     0.52894   0.31599   0.20406   0.00000  Uiso   1.00
C87    C     0.46774   0.30852   0.13336   0.00000  Uiso   1.00
C88    C     0.53225   0.02481   0.19997   0.00000  Uiso   1.00
C89    C     0.49809   0.29097   0.16961   0.00000  Uiso   1.00
C90    C     0.50190   0.04237   0.16373   0.00000  Uiso   1.00
C91    C     0.53480   0.19031   0.03029   0.00000  Uiso   1.00
C92    C     0.46520   0.14302   0.30305   0.00000  Uiso   1.00
C93    C     0.53574   0.18900   0.31599   0.00000  Uiso   1.00
C94    C     0.46426   0.14433   0.01734   0.00000  Uiso   1.00
N95    N     0.49999   0.16666   0.28573   0.00000  Uiso   1.00
N96    N     0.50001   0.16668   0.04760   0.00000  Uiso   1.00
O97    O     0.50000   0.10558   0.20487   0.00000  Uiso   1.00
O98    O     0.50000   0.22775   0.12846   0.00000  Uiso   1.00
O99    O     0.50000   0.10559   0.12843   0.00000  Uiso   1.00
O100   O     0.50000   0.22774   0.20490   0.00000  Uiso   1.00
O101   O     0.42392   0.16666   0.19595   0.00000  Uiso   1.00
O102   O     0.57608   0.16667   0.13739   0.00000  Uiso   1.00
O103   O     0.42392   0.16667   0.11950   0.00000  Uiso   1.00
O104   O     0.57608   0.16666   0.21383   0.00000  Uiso   1.00
Zn105  Zn    0.50000   0.16666   0.21771   0.00000  Uiso   1.00
Zn106  Zn    0.50000   0.16667   0.11563   0.00000  Uiso   1.00
C107   C     0.65454   0.13096   0.11195   0.00000  Uiso   1.00
C108   C     0.64485   0.14332   0.06709   0.00000  Uiso   1.00
C109   C     0.61604   0.11778   0.03282   0.00000  Uiso   1.00
C110   C     0.59617   0.08019   0.04336   0.00000  Uiso   1.00
C111   C     0.60744   0.06704   0.08775   0.00000  Uiso   1.00
C112   C     0.63628   0.09239   0.12199   0.00000  Uiso   1.00
H113   H     0.65939   0.17276   0.05876   0.00000  Uiso   1.00
H114   H     0.60905   0.12709   0.33143   0.00000  Uiso   1.00
H115   H     0.57419   0.06050   0.01655   0.00000  Uiso   1.00
H116   H     0.59460   0.03704   0.09579   0.00000  Uiso   1.00
H117   H     0.64367   0.08233   0.15647   0.00000  Uiso   1.00
C118   C     0.34546   0.20237   0.22138   0.00000  Uiso   1.00
C119   C     0.36370   0.24095   0.21134   0.00000  Uiso   1.00
C120   C     0.39252   0.26631   0.24559   0.00000  Uiso   1.00
C121   C     0.40379   0.25316   0.28998   0.00000  Uiso   1.00
C122   C     0.38396   0.21556   0.30052   0.00000  Uiso   1.00
C123   C     0.35516   0.19001   0.26624   0.00000  Uiso   1.00
H124   H     0.35630   0.25101   0.17687   0.00000  Uiso   1.00
H125   H     0.40534   0.29632   0.23756   0.00000  Uiso   1.00
H126   H     0.42575   0.27286   0.31679   0.00000  Uiso   1.00
H127   H     0.39094   0.20625   0.00191   0.00000  Uiso   1.00
H128   H     0.34063   0.16056   0.27457   0.00000  Uiso   1.00
C129   C     0.44686   0.03242   0.08560   0.00000  Uiso   1.00
C130   C     0.39374   0.03327   0.07544   0.00000  Uiso   1.00
C131   C     0.37008   0.03363   0.03006   0.00000  Uiso   1.00
C132   C     0.39881   0.03341   0.32806   0.00000  Uiso   1.00
C133   C     0.45173   0.03427   0.00484   0.00000  Uiso   1.00
C134   C     0.47547   0.03329   0.05001   0.00000  Uiso   1.00
H135   H     0.37086   0.03053   0.10218   0.00000  Uiso   1.00
H136   H     0.66279   0.03353   0.02192   0.00000  Uiso   1.00
H137   H     0.38000   0.03320   0.29301   0.00000  Uiso   1.00
H138   H     0.47426   0.03516   0.31105   0.00000  Uiso   1.00
H139   H     0.51577   0.02994   0.05707   0.00000  Uiso   1.00
C140   C     0.55312   0.30092   0.24774   0.00000  Uiso   1.00
C141   C     0.52449   0.30004   0.28332   0.00000  Uiso   1.00
C142   C     0.54822   0.29905   0.32850   0.00000  Uiso   1.00
C143   C     0.60114   0.29992   0.00528   0.00000  Uiso   1.00
C144   C     0.62989   0.29970   0.30329   0.00000  Uiso   1.00
C145   C     0.60624   0.30007   0.25791   0.00000  Uiso   1.00
H146   H     0.48420   0.30339   0.27625   0.00000  Uiso   1.00
H147   H     0.52568   0.29817   0.02227   0.00000  Uiso   1.00
H148   H     0.61994   0.30013   0.04034   0.00000  Uiso   1.00
H149   H     0.33717   0.29980   0.31144   0.00000  Uiso   1.00
H150   H     0.62913   0.30280   0.23118   0.00000  Uiso   1.00
Cl151  Cl    0.42315   0.27769   0.09336   0.00000  Uiso   1.00
Cl152  Cl    0.57685   0.05565   0.23997   0.00000  Uiso   1.00
Cl153  Cl    0.57747   0.22365   0.06725   0.00000  Uiso   1.00
Cl154  Cl    0.42253   0.10968   0.26608   0.00000  Uiso   1.00
Cl155  Cl    0.58706   0.21137   0.29635   0.00000  Uiso   1.00
Cl156  Cl    0.41294   0.12196   0.03699   0.00000  Uiso   1.00
C157   C     0.83308   0.08660   0.16543   0.00000  Uiso   1.00
C158   C     0.83358   0.24673   0.16790   0.00000  Uiso   1.00
C159   C     0.73384   0.16592   0.15473   0.00000  Uiso   1.00
C160   C     0.93282   0.16742   0.17861   0.00000  Uiso   1.00
C161   C     0.67913   0.15989   0.14953   0.00000  Uiso   1.00
C162   C     0.98754   0.17344   0.18380   0.00000  Uiso   1.00
C163   C     0.80439   0.01734   0.12928   0.00000  Uiso   1.00
C164   C     0.86227   0.31599   0.20406   0.00000  Uiso   1.00
C165   C     0.80107   0.30852   0.13336   0.00000  Uiso   1.00
C166   C     0.86559   0.02481   0.19997   0.00000  Uiso   1.00
C167   C     0.83143   0.29097   0.16961   0.00000  Uiso   1.00
C168   C     0.83523   0.04237   0.16373   0.00000  Uiso   1.00
C169   C     0.86813   0.19031   0.03029   0.00000  Uiso   1.00
C170   C     0.79854   0.14302   0.30305   0.00000  Uiso   1.00
C171   C     0.86907   0.18900   0.31599   0.00000  Uiso   1.00
C172   C     0.79760   0.14433   0.01734   0.00000  Uiso   1.00
N173   N     0.83332   0.16666   0.28573   0.00000  Uiso   1.00
N174   N     0.83335   0.16668   0.04760   0.00000  Uiso   1.00
O175   O     0.83333   0.10558   0.20487   0.00000  Uiso   1.00
O176   O     0.83334   0.22775   0.12846   0.00000  Uiso   1.00
O177   O     0.83333   0.10559   0.12843   0.00000  Uiso   1.00
O178   O     0.83334   0.22774   0.20490   0.00000  Uiso   1.00
O179   O     0.75725   0.16666   0.19595   0.00000  Uiso   1.00
O180   O     0.90942   0.16667   0.13739   0.00000  Uiso   1.00
O181   O     0.75725   0.16667   0.11950   0.00000  Uiso   1.00
O182   O     0.90942   0.16666   0.21383   0.00000  Uiso   1.00
Zn183  Zn    0.83333   0.16666   0.21771   0.00000  Uiso   1.00
Zn184  Zn    0.83333   0.16667   0.11563   0.00000  Uiso   1.00
C185   C     0.98787   0.13096   0.11195   0.00000  Uiso   1.00
C186   C     0.97819   0.14332   0.06709   0.00000  Uiso   1.00
C187   C     0.94937   0.11778   0.03282   0.00000  Uiso   1.00
C188   C     0.92951   0.08019   0.04336   0.00000  Uiso   1.00
C189   C     0.94077   0.06704   0.08775   0.00000  Uiso   1.00
C190   C     0.96961   0.09239   0.12199   0.00000  Uiso   1.00
H191   H     0.99272   0.17276   0.05876   0.00000  Uiso   1.00
H192   H     0.94239   0.12709   0.33143   0.00000  Uiso   1.00
H193   H     0.90752   0.06050   0.01655   0.00000  Uiso   1.00
H194   H     0.92793   0.03704   0.09579   0.00000  Uiso   1.00
H195   H     0.97701   0.08233   0.15647   0.00000  Uiso   1.00
C196   C     0.67879   0.20237   0.22138   0.00000  Uiso   1.00
C197   C     0.69703   0.24095   0.21134   0.00000  Uiso   1.00
C198   C     0.72585   0.26631   0.24559   0.00000  Uiso   1.00
C199   C     0.73712   0.25316   0.28998   0.00000  Uiso   1.00
C200   C     0.71729   0.21556   0.30052   0.00000  Uiso   1.00
C201   C     0.68849   0.19001   0.26624   0.00000  Uiso   1.00
H202   H     0.68963   0.25101   0.17687   0.00000  Uiso   1.00
H203   H     0.73867   0.29632   0.23756   0.00000  Uiso   1.00
H204   H     0.75909   0.27286   0.31679   0.00000  Uiso   1.00
H205   H     0.72428   0.20625   0.00191   0.00000  Uiso   1.00
H206   H     0.67396   0.16056   0.27457   0.00000  Uiso   1.00
C207   C     0.78020   0.03242   0.08560   0.00000  Uiso   1.00
C208   C     0.72707   0.03327   0.07544   0.00000  Uiso   1.00
C209   C     0.70341   0.03363   0.03006   0.00000  Uiso   1.00
C210   C     0.73215   0.03341   0.32806   0.00000  Uiso   1.00
C211   C     0.78507   0.03427   0.00484   0.00000  Uiso   1.00
C212   C     0.80881   0.03329   0.05001   0.00000  Uiso   1.00
H213   H     0.70419   0.03053   0.10218   0.00000  Uiso   1.00
H214   H     0.99612   0.03353   0.02192   0.00000  Uiso   1.00
H215   H     0.71334   0.03320   0.29301   0.00000  Uiso   1.00
H216   H     0.80760   0.03516   0.31105   0.00000  Uiso   1.00
H217   H     0.84910   0.02994   0.05707   0.00000  Uiso   1.00
C218   C     0.88645   0.30092   0.24774   0.00000  Uiso   1.00
C219   C     0.85783   0.30004   0.28332   0.00000  Uiso   1.00
C220   C     0.88155   0.29905   0.32850   0.00000  Uiso   1.00
C221   C     0.93447   0.29992   0.00528   0.00000  Uiso   1.00
C222   C     0.96322   0.29970   0.30329   0.00000  Uiso   1.00
C223   C     0.93957   0.30007   0.25791   0.00000  Uiso   1.00
H224   H     0.81753   0.30339   0.27625   0.00000  Uiso   1.00
H225   H     0.85901   0.29817   0.02227   0.00000  Uiso   1.00
H226   H     0.95327   0.30013   0.04034   0.00000  Uiso   1.00
H227   H     0.67051   0.29980   0.31144   0.00000  Uiso   1.00
H228   H     0.96246   0.30280   0.23118   0.00000  Uiso   1.00
Cl229  Cl    0.75648   0.27769   0.09336   0.00000  Uiso   1.00
Cl230  Cl    0.91018   0.05565   0.23997   0.00000  Uiso   1.00
Cl231  Cl    0.91080   0.22365   0.06725   0.00000  Uiso   1.00
Cl232  Cl    0.75587   0.10968   0.26608   0.00000  Uiso   1.00
Cl233  Cl    0.92040   0.21137   0.29635   0.00000  Uiso   1.00
Cl234  Cl    0.74628   0.12196   0.03699   0.00000  Uiso   1.00
C235   C     0.16642   0.41994   0.16543   0.00000  Uiso   1.00
C236   C     0.16692   0.58006   0.16790   0.00000  Uiso   1.00
C237   C     0.06718   0.49925   0.15473   0.00000  Uiso   1.00
C238   C     0.26616   0.50075   0.17861   0.00000  Uiso   1.00
C239   C     0.01246   0.49322   0.14953   0.00000  Uiso   1.00
C240   C     0.32087   0.50677   0.18380   0.00000  Uiso   1.00
C241   C     0.13772   0.35068   0.12928   0.00000  Uiso   1.00
C242   C     0.19560   0.64932   0.20406   0.00000  Uiso   1.00
C243   C     0.13441   0.64185   0.13336   0.00000  Uiso   1.00
C244   C     0.19892   0.35815   0.19997   0.00000  Uiso   1.00
C245   C     0.16476   0.62430   0.16961   0.00000  Uiso   1.00
C246   C     0.16857   0.37570   0.16373   0.00000  Uiso   1.00
C247   C     0.20146   0.52364   0.03029   0.00000  Uiso   1.00
C248   C     0.13187   0.47636   0.30305   0.00000  Uiso   1.00
C249   C     0.20241   0.52234   0.31599   0.00000  Uiso   1.00
C250   C     0.13093   0.47766   0.01734   0.00000  Uiso   1.00
N251   N     0.16665   0.49999   0.28573   0.00000  Uiso   1.00
N252   N     0.16668   0.50001   0.04760   0.00000  Uiso   1.00
O253   O     0.16666   0.43892   0.20487   0.00000  Uiso   1.00
O254   O     0.16667   0.56108   0.12846   0.00000  Uiso   1.00
O255   O     0.16666   0.43893   0.12843   0.00000  Uiso   1.00
O256   O     0.16667   0.56107   0.20490   0.00000  Uiso   1.00
O257   O     0.09058   0.50000   0.19595   0.00000  Uiso   1.00
O258   O     0.24275   0.50000   0.13739   0.00000  Uiso   1.00
O259   O     0.09058   0.50000   0.11950   0.00000  Uiso   1.00
O260   O     0.24275   0.50000   0.21383   0.00000  Uiso   1.00
Zn261  Zn    0.16667   0.49999   0.21771   0.00000  Uiso   1.00
Zn262  Zn    0.16667   0.50001   0.11563   0.00000  Uiso   1.00
C263   C     0.32121   0.46429   0.11195   0.00000  Uiso   1.00
C264   C     0.31152   0.47665   0.06709   0.00000  Uiso   1.00
C265   C     0.28270   0.45111   0.03282   0.00000  Uiso   1.00
C266   C     0.26284   0.41352   0.04336   0.00000  Uiso   1.00
C267   C     0.27411   0.40038   0.08775   0.00000  Uiso   1.00
C268   C     0.30295   0.42572   0.12199   0.00000  Uiso   1.00
H269   H     0.32606   0.50609   0.05876   0.00000  Uiso   1.00
H270   H     0.27572   0.46042   0.33143   0.00000  Uiso   1.00
H271   H     0.24086   0.39383   0.01655   0.00000  Uiso   1.00
H272   H     0.26126   0.37038   0.09579   0.00000  Uiso   1.00
H273   H     0.31034   0.41567   0.15647   0.00000  Uiso   1.00
C274   C     0.01213   0.53571   0.22138   0.00000  Uiso   1.00
C275   C     0.03037   0.57428   0.21134   0.00000  Uiso   1.00
C276   C     0.05919   0.59964   0.24559   0.00000  Uiso   1.00
C277   C     0.07045   0.58649   0.28998   0.00000  Uiso   1.00
C278   C     0.05062   0.54889   0.30052   0.00000  Uiso   1.00
C279   C     0.02182   0.52335   0.26624   0.00000  Uiso   1.00
H280   H     0.02297   0.58434   0.17687   0.00000  Uiso   1.00
H281   H     0.07200   0.62965   0.23756   0.00000  Uiso   1.00
H282   H     0.09242   0.60620   0.31679   0.00000  Uiso   1.00
H283   H     0.05761   0.53958   0.00191   0.00000  Uiso   1.00
H284   H     0.00730   0.49390   0.27457   0.00000  Uiso   1.00
C285   C     0.11353   0.36575   0.08560   0.00000  Uiso   1.00
C286   C     0.06041   0.36660   0.07544   0.00000  Uiso   1.00
C287   C     0.03674   0.36696   0.03006   0.00000  Uiso   1.00
C288   C     0.06548   0.36674   0.32806   0.00000  Uiso   1.00
C289   C     0.11840   0.36761   0.00484   0.00000  Uiso   1.00
C290   C     0.14214   0.36663   0.05001   0.00000  Uiso   1.00
H291   H     0.03753   0.36387   0.10218   0.00000  Uiso   1.00
H292   H     0.32946   0.36686   0.02192   0.00000  Uiso   1.00
H293   H     0.04667   0.36653   0.29301   0.00000  Uiso   1.00
H294   H     0.14093   0.36849   0.31105   0.00000  Uiso   1.00
H295   H     0.18243   0.36327   0.05707   0.00000  Uiso   1.00
C296   C     0.21978   0.63425   0.24774   0.00000  Uiso   1.00
C297   C     0.19116   0.63337   0.28332   0.00000  Uiso   1.00
C298   C     0.21489   0.63239   0.32850   0.00000  Uiso   1.00
C299   C     0.26781   0.63326   0.00528   0.00000  Uiso   1.00
C300   C     0.29655   0.63304   0.30329   0.00000  Uiso   1.00
C301   C     0.27290   0.63340   0.25791   0.00000  Uiso   1.00
H302   H     0.15087   0.63673   0.27625   0.00000  Uiso   1.00
H303   H     0.19235   0.63150   0.02227   0.00000  Uiso   1.00
H304   H     0.28661   0.63346   0.04034   0.00000  Uiso   1.00
H305   H     0.00384   0.63313   0.31144   0.00000  Uiso   1.00
H306   H     0.29579   0.63613   0.23118   0.00000  Uiso   1.00
Cl307  Cl    0.08981   0.61102   0.09336   0.00000  Uiso   1.00
Cl308  Cl    0.24352   0.38898   0.23997   0.00000  Uiso   1.00
Cl309  Cl    0.24414   0.55698   0.06725   0.00000  Uiso   1.00
Cl310  Cl    0.08920   0.44301   0.26608   0.00000  Uiso   1.00
Cl311  Cl    0.25373   0.54470   0.29635   0.00000  Uiso   1.00
Cl312  Cl    0.07961   0.45529   0.03699   0.00000  Uiso   1.00
C313   C     0.49975   0.41994   0.16543   0.00000  Uiso   1.00
C314   C     0.50025   0.58006   0.16790   0.00000  Uiso   1.00
C315   C     0.40051   0.49925   0.15473   0.00000  Uiso   1.00
C316   C     0.59949   0.50075   0.17861   0.00000  Uiso   1.00
C317   C     0.34580   0.49322   0.14953   0.00000  Uiso   1.00
C318   C     0.65421   0.50677   0.18380   0.00000  Uiso   1.00
C319   C     0.47105   0.35068   0.12928   0.00000  Uiso   1.00
C320   C     0.52894   0.64932   0.20406   0.00000  Uiso   1.00
C321   C     0.46774   0.64185   0.13336   0.00000  Uiso   1.00
C322   C     0.53225   0.35815   0.19997   0.00000  Uiso   1.00
C323   C     0.49809   0.62430   0.16961   0.00000  Uiso   1.00
C324   C     0.50190   0.37570   0.16373   0.00000  Uiso   1.00
C325   C     0.53480   0.52364   0.03029   0.00000  Uiso   1.00
C326   C     0.46520   0.47636   0.30305   0.00000  Uiso   1.00
C327   C     0.53574   0.52234   0.31599   0.00000  Uiso   1.00
C328   C     0.46426   0.47766   0.01734   0.00000  Uiso   1.00
N329   N     0.49999   0.49999   0.28573   0.00000  Uiso   1.00
N330   N     0.50001   0.50001   0.04760   0.00000  Uiso   1.00
O331   O     0.50000   0.43892   0.20487   0.00000  Uiso   1.00
O332   O     0.50000   0.56108   0.12846   0.00000  Uiso   1.00
O333   O     0.50000   0.43893   0.12843   0.00000  Uiso   1.00
O334   O     0.50000   0.56107   0.20490   0.00000  Uiso   1.00
O335   O     0.42392   0.50000   0.19595   0.00000  Uiso   1.00
O336   O     0.57608   0.50000   0.13739   0.00000  Uiso   1.00
O337   O     0.42392   0.50000   0.11950   0.00000  Uiso   1.00
O338   O     0.57608   0.50000   0.21383   0.00000  Uiso   1.00
Zn339  Zn    0.50000   0.49999   0.21771   0.00000  Uiso   1.00
Zn340  Zn    0.50000   0.50001   0.11563   0.00000  Uiso   1.00
C341   C     0.65454   0.46429   0.11195   0.00000  Uiso   1.00
C342   C     0.64485   0.47665   0.06709   0.00000  Uiso   1.00
C343   C     0.61604   0.45111   0.03282   0.00000  Uiso   1.00
C344   C     0.59617   0.41352   0.04336   0.00000  Uiso   1.00
C345   C     0.60744   0.40038   0.08775   0.00000  Uiso   1.00
C346   C     0.63628   0.42572   0.12199   0.00000  Uiso   1.00
H347   H     0.65939   0.50609   0.05876   0.00000  Uiso   1.00
H348   H     0.60905   0.46042   0.33143   0.00000  Uiso   1.00
H349   H     0.57419   0.39383   0.01655   0.00000  Uiso   1.00
H350   H     0.59460   0.37038   0.09579   0.00000  Uiso   1.00
H351   H     0.64367   0.41567   0.15647   0.00000  Uiso   1.00
C352   C     0.34546   0.53571   0.22138   0.00000  Uiso   1.00
C353   C     0.36370   0.57428   0.21134   0.00000  Uiso   1.00
C354   C     0.39252   0.59964   0.24559   0.00000  Uiso   1.00
C355   C     0.40379   0.58649   0.28998   0.00000  Uiso   1.00
C356   C     0.38396   0.54889   0.30052   0.00000  Uiso   1.00
C357   C     0.35516   0.52335   0.26624   0.00000  Uiso   1.00
H358   H     0.35630   0.58434   0.17687   0.00000  Uiso   1.00
H359   H     0.40534   0.62965   0.23756   0.00000  Uiso   1.00
H360   H     0.42575   0.60620   0.31679   0.00000  Uiso   1.00
H361   H     0.39094   0.53958   0.00191   0.00000  Uiso   1.00
H362   H     0.34063   0.49390   0.27457   0.00000  Uiso   1.00
C363   C     0.44686   0.36575   0.08560   0.00000  Uiso   1.00
C364   C     0.39374   0.36660   0.07544   0.00000  Uiso   1.00
C365   C     0.37008   0.36696   0.03006   0.00000  Uiso   1.00
C366   C     0.39881   0.36674   0.32806   0.00000  Uiso   1.00
C367   C     0.45173   0.36761   0.00484   0.00000  Uiso   1.00
C368   C     0.47547   0.36663   0.05001   0.00000  Uiso   1.00
H369   H     0.37086   0.36387   0.10218   0.00000  Uiso   1.00
H370   H     0.66279   0.36686   0.02192   0.00000  Uiso   1.00
H371   H     0.38000   0.36653   0.29301   0.00000  Uiso   1.00
H372   H     0.47426   0.36849   0.31105   0.00000  Uiso   1.00
H373   H     0.51577   0.36327   0.05707   0.00000  Uiso   1.00
C374   C     0.55312   0.63425   0.24774   0.00000  Uiso   1.00
C375   C     0.52449   0.63337   0.28332   0.00000  Uiso   1.00
C376   C     0.54822   0.63239   0.32850   0.00000  Uiso   1.00
C377   C     0.60114   0.63326   0.00528   0.00000  Uiso   1.00
C378   C     0.62989   0.63304   0.30329   0.00000  Uiso   1.00
C379   C     0.60624   0.63340   0.25791   0.00000  Uiso   1.00
H380   H     0.48420   0.63673   0.27625   0.00000  Uiso   1.00
H381   H     0.52568   0.63150   0.02227   0.00000  Uiso   1.00
H382   H     0.61994   0.63346   0.04034   0.00000  Uiso   1.00
H383   H     0.33717   0.63313   0.31144   0.00000  Uiso   1.00
H384   H     0.62913   0.63613   0.23118   0.00000  Uiso   1.00
Cl385  Cl    0.42315   0.61102   0.09336   0.00000  Uiso   1.00
Cl386  Cl    0.57685   0.38898   0.23997   0.00000  Uiso   1.00
Cl387  Cl    0.57747   0.55698   0.06725   0.00000  Uiso   1.00
Cl388  Cl    0.42253   0.44301   0.26608   0.00000  Uiso   1.00
Cl389  Cl    0.58706   0.54470   0.29635   0.00000  Uiso   1.00
Cl390  Cl    0.41294   0.45529   0.03699   0.00000  Uiso   1.00
C391   C     0.83308   0.41994   0.16543   0.00000  Uiso   1.00
C392   C     0.83358   0.58006   0.16790   0.00000  Uiso   1.00
C393   C     0.73384   0.49925   0.15473   0.00000  Uiso   1.00
C394   C     0.93282   0.50075   0.17861   0.00000  Uiso   1.00
C395   C     0.67913   0.49322   0.14953   0.00000  Uiso   1.00
C396   C     0.98754   0.50677   0.18380   0.00000  Uiso   1.00
C397   C     0.80439   0.35068   0.12928   0.00000  Uiso   1.00
C398   C     0.86227   0.64932   0.20406   0.00000  Uiso   1.00
C399   C     0.80107   0.64185   0.13336   0.00000  Uiso   1.00
C400   C     0.86559   0.35815   0.19997   0.00000  Uiso   1.00
C401   C     0.83143   0.62430   0.16961   0.00000  Uiso   1.00
C402   C     0.83523   0.37570   0.16373   0.00000  Uiso   1.00
C403   C     0.86813   0.52364   0.03029   0.00000  Uiso   1.00
C404   C     0.79854   0.47636   0.30305   0.00000  Uiso   1.00
C405   C     0.86907   0.52234   0.31599   0.00000  Uiso   1.00
C406   C     0.79760   0.47766   0.01734   0.00000  Uiso   1.00
N407   N     0.83332   0.49999   0.28573   0.00000  Uiso   1.00
N408   N     0.83335   0.50001   0.04760   0.00000  Uiso   1.00
O409   O     0.83333   0.43892   0.20487   0.00000  Uiso   1.00
O410   O     0.83334   0.56108   0.12846   0.00000  Uiso   1.00
O411   O     0.83333   0.43893   0.12843   0.00000  Uiso   1.00
O412   O     0.83334   0.56107   0.20490   0.00000  Uiso   1.00
O413   O     0.75725   0.50000   0.19595   0.00000  Uiso   1.00
O414   O     0.90942   0.50000   0.13739   0.00000  Uiso   1.00
O415   O     0.75725   0.50000   0.11950   0.00000  Uiso   1.00
O416   O     0.90942   0.50000   0.21383   0.00000  Uiso   1.00
Zn417  Zn    0.83333   0.49999   0.21771   0.00000  Uiso   1.00
Zn418  Zn    0.83333   0.50001   0.11563   0.00000  Uiso   1.00
C419   C     0.98787   0.46429   0.11195   0.00000  Uiso   1.00
C420   C     0.97819   0.47665   0.06709   0.00000  Uiso   1.00
C421   C     0.94937   0.45111   0.03282   0.00000  Uiso   1.00
C422   C     0.92951   0.41352   0.04336   0.00000  Uiso   1.00
C423   C     0.94077   0.40038   0.08775   0.00000  Uiso   1.00
C424   C     0.96961   0.42572   0.12199   0.00000  Uiso   1.00
H425   H     0.99272   0.50609   0.05876   0.00000  Uiso   1.00
H426   H     0.94239   0.46042   0.33143   0.00000  Uiso   1.00
H427   H     0.90752   0.39383   0.01655   0.00000  Uiso   1.00
H428   H     0.92793   0.37038   0.09579   0.00000  Uiso   1.00
H429   H     0.97701   0.41567   0.15647   0.00000  Uiso   1.00
C430   C     0.67879   0.53571   0.22138   0.00000  Uiso   1.00
C431   C     0.69703   0.57428   0.21134   0.00000  Uiso   1.00
C432   C     0.72585   0.59964   0.24559   0.00000  Uiso   1.00
C433   C     0.73712   0.58649   0.28998   0.00000  Uiso   1.00
C434   C     0.71729   0.54889   0.30052   0.00000  Uiso   1.00
C435   C     0.68849   0.52335   0.26624   0.00000  Uiso   1.00
H436   H     0.68963   0.58434   0.17687   0.00000  Uiso   1.00
H437   H     0.73867   0.62965   0.23756   0.00000  Uiso   1.00
H438   H     0.75909   0.60620   0.31679   0.00000  Uiso   1.00
H439   H     0.72428   0.53958   0.00191   0.00000  Uiso   1.00
H440   H     0.67396   0.49390   0.27457   0.00000  Uiso   1.00
C441   C     0.78020   0.36575   0.08560   0.00000  Uiso   1.00
C442   C     0.72707   0.36660   0.07544   0.00000  Uiso   1.00
C443   C     0.70341   0.36696   0.03006   0.00000  Uiso   1.00
C444   C     0.73215   0.36674   0.32806   0.00000  Uiso   1.00
C445   C     0.78507   0.36761   0.00484   0.00000  Uiso   1.00
C446   C     0.80881   0.36663   0.05001   0.00000  Uiso   1.00
H447   H     0.70419   0.36387   0.10218   0.00000  Uiso   1.00
H448   H     0.99612   0.36686   0.02192   0.00000  Uiso   1.00
H449   H     0.71334   0.36653   0.29301   0.00000  Uiso   1.00
H450   H     0.80760   0.36849   0.31105   0.00000  Uiso   1.00
H451   H     0.84910   0.36327   0.05707   0.00000  Uiso   1.00
C452   C     0.88645   0.63425   0.24774   0.00000  Uiso   1.00
C453   C     0.85783   0.63337   0.28332   0.00000  Uiso   1.00
C454   C     0.88155   0.63239   0.32850   0.00000  Uiso   1.00
C455   C     0.93447   0.63326   0.00528   0.00000  Uiso   1.00
C456   C     0.96322   0.63304   0.30329   0.00000  Uiso   1.00
C457   C     0.93957   0.63340   0.25791   0.00000  Uiso   1.00
H458   H     0.81753   0.63673   0.27625   0.00000  Uiso   1.00
H459   H     0.85901   0.63150   0.02227   0.00000  Uiso   1.00
H460   H     0.95327   0.63346   0.04034   0.00000  Uiso   1.00
H461   H     0.67051   0.63313   0.31144   0.00000  Uiso   1.00
H462   H     0.96246   0.63613   0.23118   0.00000  Uiso   1.00
Cl463  Cl    0.75648   0.61102   0.09336   0.00000  Uiso   1.00
Cl464  Cl    0.91018   0.38898   0.23997   0.00000  Uiso   1.00
Cl465  Cl    0.91080   0.55698   0.06725   0.00000  Uiso   1.00
Cl466  Cl    0.75587   0.44301   0.26608   0.00000  Uiso   1.00
Cl467  Cl    0.92040   0.54470   0.29635   0.00000  Uiso   1.00
Cl468  Cl    0.74628   0.45529   0.03699   0.00000  Uiso   1.00
C469   C     0.16642   0.75327   0.16543   0.00000  Uiso   1.00
C470   C     0.16692   0.91340   0.16790   0.00000  Uiso   1.00
C471   C     0.06718   0.83258   0.15473   0.00000  Uiso   1.00
C472   C     0.26616   0.83408   0.17861   0.00000  Uiso   1.00
C473   C     0.01246   0.82656   0.14953   0.00000  Uiso   1.00
C474   C     0.32087   0.84011   0.18380   0.00000  Uiso   1.00
C475   C     0.13772   0.68401   0.12928   0.00000  Uiso   1.00
C476   C     0.19560   0.98266   0.20406   0.00000  Uiso   1.00
C477   C     0.13441   0.97519   0.13336   0.00000  Uiso   1.00
C478   C     0.19892   0.69148   0.19997   0.00000  Uiso   1.00
C479   C     0.16476   0.95763   0.16961   0.00000  Uiso   1.00
C480   C     0.16857   0.70903   0.16373   0.00000  Uiso   1.00
C481   C     0.20146   0.85698   0.03029   0.00000  Uiso   1.00
C482   C     0.13187   0.80969   0.30305   0.00000  Uiso   1.00
C483   C     0.20241   0.85567   0.31599   0.00000  Uiso   1.00
C484   C     0.13093   0.81100   0.01734   0.00000  Uiso   1.00
N485   N     0.16665   0.83332   0.28573   0.00000  Uiso   1.00
N486   N     0.16668   0.83334   0.04760   0.00000  Uiso   1.00
O487   O     0.16666   0.77225   0.20487   0.00000  Uiso   1.00
O488   O     0.16667   0.89442   0.12846   0.00000  Uiso   1.00
O489   O     0.16666   0.77226   0.12843   0.00000  Uiso   1.00
O490   O     0.16667   0.89441   0.20490   0.00000  Uiso   1.00
O491   O     0.09058   0.83333   0.19595   0.00000  Uiso   1.00
O492   O     0.24275   0.83334   0.13739   0.00000  Uiso   1.00
O493   O     0.09058   0.83334   0.11950   0.00000  Uiso   1.00
O494   O     0.24275   0.83333   0.21383   0.00000  Uiso   1.00
Zn495  Zn    0.16667   0.83333   0.21771   0.00000  Uiso   1.00
Zn496  Zn    0.16667   0.83334   0.11563   0.00000  Uiso   1.00
C497   C     0.32121   0.79763   0.11195   0.00000  Uiso   1.00
C498   C     0.31152   0.80998   0.06709   0.00000  Uiso   1.00
C499   C     0.28270   0.78445   0.03282   0.00000  Uiso   1.00
C500   C     0.26284   0.74686   0.04336   0.00000  Uiso   1.00
C501   C     0.27411   0.73371   0.08775   0.00000  Uiso   1.00
C502   C     0.30295   0.75906   0.12199   0.00000  Uiso   1.00
H503   H     0.32606   0.83943   0.05876   0.00000  Uiso   1.00
H504   H     0.27572   0.79376   0.33143   0.00000  Uiso   1.00
H505   H     0.24086   0.72716   0.01655   0.00000  Uiso   1.00
H506   H     0.26126   0.70371   0.09579   0.00000  Uiso   1.00
H507   H     0.31034   0.74900   0.15647   0.00000  Uiso   1.00
C508   C     0.01213   0.86904   0.22138   0.00000  Uiso   1.00
C509   C     0.03037   0.90762   0.21134   0.00000  Uiso   1.00
C510   C     0.05919   0.93297   0.24559   0.00000  Uiso   1.00
C511   C     0.07045   0.91983   0.28998   0.00000  Uiso   1.00
C512   C     0.05062   0.88223   0.30052   0.00000  Uiso   1.00
C513   C     0.02182   0.85668   0.26624   0.00000  Uiso   1.00
H514   H     0.02297   0.91767   0.17687   0.00000  Uiso   1.00
H515   H     0.07200   0.96298   0.23756   0.00000  Uiso   1.00
H516   H     0.09242   0.93953   0.31679   0.00000  Uiso   1.00
H517   H     0.05761   0.87291   0.00191   0.00000  Uiso   1.00
H518   H     0.00730   0.82723   0.27457   0.00000  Uiso   1.00
C519   C     0.11353   0.69908   0.08560   0.00000  Uiso   1.00
C520   C     0.06041   0.69993   0.07544   0.00000  Uiso   1.00
C521   C     0.03674   0.70029   0.03006   0.00000  Uiso   1.00
C522   C     0.06548   0.70007   0.32806   0.00000  Uiso   1.00
C523   C     0.11840   0.70094   0.00484   0.00000  Uiso   1.00
C524   C     0.14214   0.69996   0.05001   0.00000  Uiso   1.00
H525   H     0.03753   0.69720   0.10218   0.00000  Uiso   1.00
H526   H     0.32946   0.70019   0.02192   0.00000  Uiso   1.00
H527   H     0.04667   0.69987   0.29301   0.00000  Uiso   1.00
H528   H     0.14093   0.70182   0.31105   0.00000  Uiso   1.00
H529   H     0.18243   0.69661   0.05707   0.00000  Uiso   1.00
C530   C     0.21978   0.96759   0.24774   0.00000  Uiso   1.00
C531   C     0.19116   0.96671   0.28332   0.00000  Uiso   1.00
C532   C     0.21489   0.96572   0.32850   0.00000  Uiso   1.00
C533   C     0.26781   0.96659   0.00528   0.00000  Uiso   1.00
C534   C     0.29655   0.96637   0.30329   0.00000  Uiso   1.00
C535   C     0.27290   0.96673   0.25791   0.00000  Uiso   1.00
H536   H     0.15087   0.97006   0.27625   0.00000  Uiso   1.00
H537   H     0.19235   0.96483   0.02227   0.00000  Uiso   1.00
H538   H     0.28661   0.96679   0.04034   0.00000  Uiso   1.00
H539   H     0.00384   0.96647   0.31144   0.00000  Uiso   1.00
H540   H     0.29579   0.96947   0.23118   0.00000  Uiso   1.00
Cl541  Cl    0.08981   0.94435   0.09336   0.00000  Uiso   1.00
Cl542  Cl    0.24352   0.72231   0.23997   0.00000  Uiso   1.00
Cl543  Cl    0.24414   0.89032   0.06725   0.00000  Uiso   1.00
Cl544  Cl    0.08920   0.77635   0.26608   0.00000  Uiso   1.00
Cl545  Cl    0.25373   0.87804   0.29635   0.00000  Uiso   1.00
Cl546  Cl    0.07961   0.78862   0.03699   0.00000  Uiso   1.00
C547   C     0.49975   0.75327   0.16543   0.00000  Uiso   1.00
C548   C     0.50025   0.91340   0.16790   0.00000  Uiso   1.00
C549   C     0.40051   0.83258   0.15473   0.00000  Uiso   1.00
C550   C     0.59949   0.83408   0.17861   0.00000  Uiso   1.00
C551   C     0.34580   0.82656   0.14953   0.00000  Uiso   1.00
C552   C     0.65421   0.84011   0.18380   0.00000  Uiso   1.00
C553   C     0.47105   0.68401   0.12928   0.00000  Uiso   1.00
C554   C     0.52894   0.98266   0.20406   0.00000  Uiso   1.00
C555   C     0.46774   0.97519   0.13336   0.00000  Uiso   1.00
C556   C     0.53225   0.69148   0.19997   0.00000  Uiso   1.00
C557   C     0.49809   0.95763   0.16961   0.00000  Uiso   1.00
C558   C     0.50190   0.70903   0.16373   0.00000  Uiso   1.00
C559   C     0.53480   0.85698   0.03029   0.00000  Uiso   1.00
C560   C     0.46520   0.80969   0.30305   0.00000  Uiso   1.00
C561   C     0.53574   0.85567   0.31599   0.00000  Uiso   1.00
C562   C     0.46426   0.81100   0.01734   0.00000  Uiso   1.00
N563   N     0.49999   0.83332   0.28573   0.00000  Uiso   1.00
N564   N     0.50001   0.83334   0.04760   0.00000  Uiso   1.00
O565   O     0.50000   0.77225   0.20487   0.00000  Uiso   1.00
O566   O     0.50000   0.89442   0.12846   0.00000  Uiso   1.00
O567   O     0.50000   0.77226   0.12843   0.00000  Uiso   1.00
O568   O     0.50000   0.89441   0.20490   0.00000  Uiso   1.00
O569   O     0.42392   0.83333   0.19595   0.00000  Uiso   1.00
O570   O     0.57608   0.83334   0.13739   0.00000  Uiso   1.00
O571   O     0.42392   0.83334   0.11950   0.00000  Uiso   1.00
O572   O     0.57608   0.83333   0.21383   0.00000  Uiso   1.00
Zn573  Zn    0.50000   0.83333   0.21771   0.00000  Uiso   1.00
Zn574  Zn    0.50000   0.83334   0.11563   0.00000  Uiso   1.00
C575   C     0.65454   0.79763   0.11195   0.00000  Uiso   1.00
C576   C     0.64485   0.80998   0.06709   0.00000  Uiso   1.00
C577   C     0.61604   0.78445   0.03282   0.00000  Uiso   1.00
C578   C     0.59617   0.74686   0.04336   0.00000  Uiso   1.00
C579   C     0.60744   0.73371   0.08775   0.00000  Uiso   1.00
C580   C     0.63628   0.75906   0.12199   0.00000  Uiso   1.00
H581   H     0.65939   0.83943   0.05876   0.00000  Uiso   1.00
H582   H     0.60905   0.79376   0.33143   0.00000  Uiso   1.00
H583   H     0.57419   0.72716   0.01655   0.00000  Uiso   1.00
H584   H     0.59460   0.70371   0.09579   0.00000  Uiso   1.00
H585   H     0.64367   0.74900   0.15647   0.00000  Uiso   1.00
C586   C     0.34546   0.86904   0.22138   0.00000  Uiso   1.00
C587   C     0.36370   0.90762   0.21134   0.00000  Uiso   1.00
C588   C     0.39252   0.93297   0.24559   0.00000  Uiso   1.00
C589   C     0.40379   0.91983   0.28998   0.00000  Uiso   1.00
C590   C     0.38396   0.88223   0.30052   0.00000  Uiso   1.00
C591   C     0.35516   0.85668   0.26624   0.00000  Uiso   1.00
H592   H     0.35630   0.91767   0.17687   0.00000  Uiso   1.00
H593   H     0.40534   0.96298   0.23756   0.00000  Uiso   1.00
H594   H     0.42575   0.93953   0.31679   0.00000  Uiso   1.00
H595   H     0.39094   0.87291   0.00191   0.00000  Uiso   1.00
H596   H     0.34063   0.82723   0.27457   0.00000  Uiso   1.00
C597   C     0.44686   0.69908   0.08560   0.00000  Uiso   1.00
C598   C     0.39374   0.69993   0.07544   0.00000  Uiso   1.00
C599   C     0.37008   0.70029   0.03006   0.00000  Uiso   1.00
C600   C     0.39881   0.70007   0.32806   0.00000  Uiso   1.00
C601   C     0.45173   0.70094   0.00484   0.00000  Uiso   1.00
C602   C     0.47547   0.69996   0.05001   0.00000  Uiso   1.00
H603   H     0.37086   0.69720   0.10218   0.00000  Uiso   1.00
H604   H     0.66279   0.70019   0.02192   0.00000  Uiso   1.00
H605   H     0.38000   0.69987   0.29301   0.00000  Uiso   1.00
H606   H     0.47426   0.70182   0.31105   0.00000  Uiso   1.00
H607   H     0.51577   0.69661   0.05707   0.00000  Uiso   1.00
C608   C     0.55312   0.96759   0.24774   0.00000  Uiso   1.00
C609   C     0.52449   0.96671   0.28332   0.00000  Uiso   1.00
C610   C     0.54822   0.96572   0.32850   0.00000  Uiso   1.00
C611   C     0.60114   0.96659   0.00528   0.00000  Uiso   1.00
C612   C     0.62989   0.96637   0.30329   0.00000  Uiso   1.00
C613   C     0.60624   0.96673   0.25791   0.00000  Uiso   1.00
H614   H     0.48420   0.97006   0.27625   0.00000  Uiso   1.00
H615   H     0.52568   0.96483   0.02227   0.00000  Uiso   1.00
H616   H     0.61994   0.96679   0.04034   0.00000  Uiso   1.00
H617   H     0.33717   0.96647   0.31144   0.00000  Uiso   1.00
H618   H     0.62913   0.96947   0.23118   0.00000  Uiso   1.00
Cl619  Cl    0.42315   0.94435   0.09336   0.00000  Uiso   1.00
Cl620  Cl    0.57685   0.72231   0.23997   0.00000  Uiso   1.00
Cl621  Cl    0.57747   0.89032   0.06725   0.00000  Uiso   1.00
Cl622  Cl    0.42253   0.77635   0.26608   0.00000  Uiso   1.00
Cl623  Cl    0.58706   0.87804   0.29635   0.00000  Uiso   1.00
Cl624  Cl    0.41294   0.78862   0.03699   0.00000  Uiso   1.00
C625   C     0.83308   0.75327   0.16543   0.00000  Uiso   1.00
C626   C     0.83358   0.91340   0.16790   0.00000  Uiso   1.00
C627   C     0.73384   0.83258   0.15473   0.00000  Uiso   1.00
C628   C     0.93282   0.83408   0.17861   0.00000  Uiso   1.00
C629   C     0.67913   0.82656   0.14953   0.00000  Uiso   1.00
C630   C     0.98754   0.84011   0.18380   0.00000  Uiso   1.00
C631   C     0.80439   0.68401   0.12928   0.00000  Uiso   1.00
C632   C     0.86227   0.98266   0.20406   0.00000  Uiso   1.00
C633   C     0.80107   0.97519   0.13336   0.00000  Uiso   1.00
C634   C     0.86559   0.69148   0.19997   0.00000  Uiso   1.00
C635   C     0.83143   0.95763   0.16961   0.00000  Uiso   1.00
C636   C     0.83523   0.70903   0.16373   0.00000  Uiso   1.00
C637   C     0.86813   0.85698   0.03029   0.00000  Uiso   1.00
C638   C     0.79854   0.80969   0.30305   0.00000  Uiso   1.00
C639   C     0.86907   0.85567   0.31599   0.00000  Uiso   1.00
C640   C     0.79760   0.81100   0.01734   0.00000  Uiso   1.00
N641   N     0.83332   0.83332   0.28573   0.00000  Uiso   1.00
N642   N     0.83335   0.83334   0.04760   0.00000  Uiso   1.00
O643   O     0.83333   0.77225   0.20487   0.00000  Uiso   1.00
O644   O     0.83334   0.89442   0.12846   0.00000  Uiso   1.00
O645   O     0.83333   0.77226   0.12843   0.00000  Uiso   1.00
O646   O     0.83334   0.89441   0.20490   0.00000  Uiso   1.00
O647   O     0.75725   0.83333   0.19595   0.00000  Uiso   1.00
O648   O     0.90942   0.83334   0.13739   0.00000  Uiso   1.00
O649   O     0.75725   0.83334   0.11950   0.00000  Uiso   1.00
O650   O     0.90942   0.83333   0.21383   0.00000  Uiso   1.00
Zn651  Zn    0.83333   0.83333   0.21771   0.00000  Uiso   1.00
Zn652  Zn    0.83333   0.83334   0.11563   0.00000  Uiso   1.00
C653   C     0.98787   0.79763   0.11195   0.00000  Uiso   1.00
C654   C     0.97819   0.80998   0.06709   0.00000  Uiso   1.00
C655   C     0.94937   0.78445   0.03282   0.00000  Uiso   1.00
C656   C     0.92951   0.74686   0.04336   0.00000  Uiso   1.00
C657   C     0.94077   0.73371   0.08775   0.00000  Uiso   1.00
C658   C     0.96961   0.75906   0.12199   0.00000  Uiso   1.00
H659   H     0.99272   0.83943   0.05876   0.00000  Uiso   1.00
H660   H     0.94239   0.79376   0.33143   0.00000  Uiso   1.00
H661   H     0.90752   0.72716   0.01655   0.00000  Uiso   1.00
H662   H     0.92793   0.70371   0.09579   0.00000  Uiso   1.00
H663   H     0.97701   0.74900   0.15647   0.00000  Uiso   1.00
C664   C     0.67879   0.86904   0.22138   0.00000  Uiso   1.00
C665   C     0.69703   0.90762   0.21134   0.00000  Uiso   1.00
C666   C     0.72585   0.93297   0.24559   0.00000  Uiso   1.00
C667   C     0.73712   0.91983   0.28998   0.00000  Uiso   1.00
C668   C     0.71729   0.88223   0.30052   0.00000  Uiso   1.00
C669   C     0.68849   0.85668   0.26624   0.00000  Uiso   1.00
H670   H     0.68963   0.91767   0.17687   0.00000  Uiso   1.00
H671   H     0.73867   0.96298   0.23756   0.00000  Uiso   1.00
H672   H     0.75909   0.93953   0.31679   0.00000  Uiso   1.00
H673   H     0.72428   0.87291   0.00191   0.00000  Uiso   1.00
H674   H     0.67396   0.82723   0.27457   0.00000  Uiso   1.00
C675   C     0.78020   0.69908   0.08560   0.00000  Uiso   1.00
C676   C     0.72707   0.69993   0.07544   0.00000  Uiso   1.00
C677   C     0.70341   0.70029   0.03006   0.00000  Uiso   1.00
C678   C     0.73215   0.70007   0.32806   0.00000  Uiso   1.00
C679   C     0.78507   0.70094   0.00484   0.00000  Uiso   1.00
C680   C     0.80881   0.69996   0.05001   0.00000  Uiso   1.00
H681   H     0.70419   0.69720   0.10218   0.00000  Uiso   1.00
H682   H     0.99612   0.70019   0.02192   0.00000  Uiso   1.00
H683   H     0.71334   0.69987   0.29301   0.00000  Uiso   1.00
H684   H     0.80760   0.70182   0.31105   0.00000  Uiso   1.00
H685   H     0.84910   0.69661   0.05707   0.00000  Uiso   1.00
C686   C     0.88645   0.96759   0.24774   0.00000  Uiso   1.00
C687   C     0.85783   0.96671   0.28332   0.00000  Uiso   1.00
C688   C     0.88155   0.96572   0.32850   0.00000  Uiso   1.00
C689   C     0.93447   0.96659   0.00528   0.00000  Uiso   1.00
C690   C     0.96322   0.96637   0.30329   0.00000  Uiso   1.00
C691   C     0.93957   0.96673   0.25791   0.00000  Uiso   1.00
H692   H     0.81753   0.97006   0.27625   0.00000  Uiso   1.00
H693   H     0.85901   0.96483   0.02227   0.00000  Uiso   1.00
H694   H     0.95327   0.96679   0.04034   0.00000  Uiso   1.00
H695   H     0.67051   0.96647   0.31144   0.00000  Uiso   1.00
H696   H     0.96246   0.96947   0.23118   0.00000  Uiso   1.00
Cl697  Cl    0.75648   0.94435   0.09336   0.00000  Uiso   1.00
Cl698  Cl    0.91018   0.72231   0.23997   0.00000  Uiso   1.00
Cl699  Cl    0.91080   0.89032   0.06725   0.00000  Uiso   1.00
Cl700  Cl    0.75587   0.77635   0.26608   0.00000  Uiso   1.00
Cl701  Cl    0.92040   0.87804   0.29635   0.00000  Uiso   1.00
Cl702  Cl    0.74628   0.78862   0.03699   0.00000  Uiso   1.00
C703   C     0.16642   0.08660   0.49876   0.00000  Uiso   1.00
C704   C     0.16692   0.24673   0.50124   0.00000  Uiso   1.00
C705   C     0.06718   0.16592   0.48806   0.00000  Uiso   1.00
C706   C     0.26616   0.16742   0.51194   0.00000  Uiso   1.00
C707   C     0.01246   0.15989   0.48286   0.00000  Uiso   1.00
C708   C     0.32087   0.17344   0.51714   0.00000  Uiso   1.00
C709   C     0.13772   0.01734   0.46261   0.00000  Uiso   1.00
C710   C     0.19560   0.31599   0.53739   0.00000  Uiso   1.00
C711   C     0.13441   0.30852   0.46670   0.00000  Uiso   1.00
C712   C     0.19892   0.02481   0.53330   0.00000  Uiso   1.00
C713   C     0.16476   0.29097   0.50294   0.00000  Uiso   1.00
C714   C     0.16857   0.04237   0.49706   0.00000  Uiso   1.00
C715   C     0.20146   0.19031   0.36362   0.00000  Uiso   1.00
C716   C     0.13187   0.14302   0.63638   0.00000  Uiso   1.00
C717   C     0.20241   0.18900   0.64932   0.00000  Uiso   1.00
C718   C     0.13093   0.14433   0.35068   0.00000  Uiso   1.00
N719   N     0.16665   0.16666   0.61907   0.00000  Uiso   1.00
N720   N     0.16668   0.16668   0.38093   0.00000  Uiso   1.00
O721   O     0.16666   0.10558   0.53821   0.00000  Uiso   1.00
O722   O     0.16667   0.22775   0.46179   0.00000  Uiso   1.00
O723   O     0.16666   0.10559   0.46176   0.00000  Uiso   1.00
O724   O     0.16667   0.22774   0.53824   0.00000  Uiso   1.00
O725   O     0.09058   0.16666   0.52928   0.00000  Uiso   1.00
O726   O     0.24275   0.16667   0.47072   0.00000  Uiso   1.00
O727   O     0.09058   0.16667   0.45284   0.00000  Uiso   1.00
O728   O     0.24275   0.16666   0.54716   0.00000  Uiso   1.00
Zn729  Zn    0.16667   0.16666   0.55104   0.00000  Uiso   1.00
Zn730  Zn    0.16667   0.16667   0.44896   0.00000  Uiso   1.00
C731   C     0.32121   0.13096   0.44529   0.00000  Uiso   1.00
C732   C     0.31152   0.14332   0.40042   0.00000  Uiso   1.00
C733   C     0.28270   0.11778   0.36615   0.00000  Uiso   1.00
C734   C     0.26284   0.08019   0.37669   0.00000  Uiso   1.00
C735   C     0.27411   0.06704   0.42108   0.00000  Uiso   1.00
C736   C     0.30295   0.09239   0.45533   0.00000  Uiso   1.00
H737   H     0.32606   0.17276   0.39210   0.00000  Uiso   1.00
H738   H     0.27572   0.12709   0.66476   0.00000  Uiso   1.00
H739   H     0.24086   0.06050   0.34988   0.00000  Uiso   1.00
H740   H     0.26126   0.03704   0.42912   0.00000  Uiso   1.00
H741   H     0.31034   0.08233   0.48980   0.00000  Uiso   1.00
C742   C     0.01213   0.20237   0.55471   0.00000  Uiso   1.00
C743   C     0.03037   0.24095   0.54468   0.00000  Uiso   1.00
C744   C     0.05919   0.26631   0.57892   0.00000  Uiso   1.00
C745   C     0.07045   0.25316   0.62331   0.00000  Uiso   1.00
C746   C     0.05062   0.21556   0.63385   0.00000  Uiso   1.00
C747   C     0.02182   0.19001   0.59958   0.00000  Uiso   1.00
H748   H     0.02297   0.25101   0.51020   0.00000  Uiso   1.00
H749   H     0.07200   0.29632   0.57089   0.00000  Uiso   1.00
H750   H     0.09242   0.27286   0.65013   0.00000  Uiso   1.00
H751   H     0.05761   0.20625   0.33524   0.00000  Uiso   1.00
H752   H     0.00730   0.16056   0.60790   0.00000  Uiso   1.00
C753   C     0.11353   0.03242   0.41893   0.00000  Uiso   1.00
C754   C     0.06041   0.03327   0.40877   0.00000  Uiso   1.00
C755   C     0.03674   0.03363   0.36340   0.00000  Uiso   1.00
C756   C     0.06548   0.03341   0.66140   0.00000  Uiso   1.00
C757   C     0.11840   0.03427   0.33817   0.00000  Uiso   1.00
C758   C     0.14214   0.03329   0.38335   0.00000  Uiso   1.00
H759   H     0.03753   0.03053   0.43551   0.00000  Uiso   1.00
H760   H     0.32946   0.03353   0.35525   0.00000  Uiso   1.00
H761   H     0.04667   0.03320   0.62634   0.00000  Uiso   1.00
H762   H     0.14093   0.03516   0.64438   0.00000  Uiso   1.00
H763   H     0.18243   0.02994   0.39040   0.00000  Uiso   1.00
C764   C     0.21978   0.30092   0.58107   0.00000  Uiso   1.00
C765   C     0.19116   0.30004   0.61665   0.00000  Uiso   1.00
C766   C     0.21489   0.29905   0.66183   0.00000  Uiso   1.00
C767   C     0.26781   0.29992   0.33862   0.00000  Uiso   1.00
C768   C     0.29655   0.29970   0.63662   0.00000  Uiso   1.00
C769   C     0.27290   0.30007   0.59125   0.00000  Uiso   1.00
H770   H     0.15087   0.30339   0.60959   0.00000  Uiso   1.00
H771   H     0.19235   0.29817   0.35561   0.00000  Uiso   1.00
H772   H     0.28661   0.30013   0.37367   0.00000  Uiso   1.00
H773   H     0.00384   0.29980   0.64478   0.00000  Uiso   1.00
H774   H     0.29579   0.30280   0.56451   0.00000  Uiso   1.00
Cl775  Cl    0.08981   0.27769   0.42670   0.00000  Uiso   1.00
Cl776  Cl    0.24352   0.05565   0.57330   0.00000  Uiso   1.00
Cl777  Cl    0.24414   0.22365   0.40059   0.00000  Uiso   1.00
Cl778  Cl    0.08920   0.10968   0.59941   0.00000  Uiso   1.00
Cl779  Cl    0.25373   0.21137   0.62968   0.00000  Uiso   1.00
Cl780  Cl    0.07961   0.12196   0.37032   0.00000  Uiso   1.00
C781   C     0.49975   0.08660   0.49876   0.00000  Uiso   1.00
C782   C     0.50025   0.24673   0.50124   0.00000  Uiso   1.00
C783   C     0.40051   0.16592   0.48806   0.00000  Uiso   1.00
C784   C     0.59949   0.16742   0.51194   0.00000  Uiso   1.00
C785   C     0.34580   0.15989   0.48286   0.00000  Uiso   1.00
C786   C     0.65421   0.17344   0.51714   0.00000  Uiso   1.00
C787   C     0.47105   0.01734   0.46261   0.00000  Uiso   1.00
C788   C     0.52894   0.31599   0.53739   0.00000  Uiso   1.00
C789   C     0.46774   0.30852   0.46670   0.00000  Uiso   1.00
C790   C     0.53225   0.02481   0.53330   0.00000  Uiso   1.00
C791   C     0.49809   0.29097   0.50294   0.00000  Uiso   1.00
C792   C     0.50190   0.04237   0.49706   0.00000  Uiso   1.00
C793   C     0.53480   0.19031   0.36362   0.00000  Uiso   1.00
C794   C     0.46520   0.14302   0.63638   0.00000  Uiso   1.00
C795   C     0.53574   0.18900   0.64932   0.00000  Uiso   1.00
C796   C     0.46426   0.14433   0.35068   0.00000  Uiso   1.00
N797   N     0.49999   0.16666   0.61907   0.00000  Uiso   1.00
N798   N     0.50001   0.16668   0.38093   0.00000  Uiso   1.00
O799   O     0.50000   0.10558   0.53821   0.00000  Uiso   1.00
O800   O     0.50000   0.22775   0.46179   0.00000  Uiso   1.00
O801   O     0.50000   0.10559   0.46176   0.00000  Uiso   1.00
O802   O     0.50000   0.22774   0.53824   0.00000  Uiso   1.00
O803   O     0.42392   0.16666   0.52928   0.00000  Uiso   1.00
O804   O     0.57608   0.16667   0.47072   0.00000  Uiso   1.00
O805   O     0.42392   0.16667   0.45284   0.00000  Uiso   1.00
O806   O     0.57608   0.16666   0.54716   0.00000  Uiso   1.00
Zn807  Zn    0.50000   0.16666   0.55104   0.00000  Uiso   1.00
Zn808  Zn    0.50000   0.16667   0.44896   0.00000  Uiso   1.00
C809   C     0.65454   0.13096   0.44529   0.00000  Uiso   1.00
C810   C     0.64485   0.14332   0.40042   0.00000  Uiso   1.00
C811   C     0.61604   0.11778   0.36615   0.00000  Uiso   1.00
C812   C     0.59617   0.08019   0.37669   0.00000  Uiso   1.00
C813   C     0.60744   0.06704   0.42108   0.00000  Uiso   1.00
C814   C     0.63628   0.09239   0.45533   0.00000  Uiso   1.00
H815   H     0.65939   0.17276   0.39210   0.00000  Uiso   1.00
H816   H     0.60905   0.12709   0.66476   0.00000  Uiso   1.00
H817   H     0.57419   0.06050   0.34988   0.00000  Uiso   1.00
H818   H     0.59460   0.03704   0.42912   0.00000  Uiso   1.00
H819   H     0.64367   0.08233   0.48980   0.00000  Uiso   1.00
C820   C     0.34546   0.20237   0.55471   0.00000  Uiso   1.00
C821   C     0.36370   0.24095   0.54468   0.00000  Uiso   1.00
C822   C     0.39252   0.26631   0.57892   0.00000  Uiso   1.00
C823   C     0.40379   0.25316   0.62331   0.00000  Uiso   1.00
C824   C     0.38396   0.21556   0.63385   0.00000  Uiso   1.00
C825   C     0.35516   0.19001   0.59958   0.00000  Uiso   1.00
H826   H     0.35630   0.25101   0.51020   0.00000  Uiso   1.00
H827   H     0.40534   0.29632   0.57089   0.00000  Uiso   1.00
H828   H     0.42575   0.27286   0.65013   0.00000  Uiso   1.00
H829   H     0.39094   0.20625   0.33524   0.00000  Uiso   1.00
H830   H     0.34063   0.16056   0.60790   0.00000  Uiso   1.00
C831   C     0.44686   0.03242   0.41893   0.00000  Uiso   1.00
C832   C     0.39374   0.03327   0.40877   0.00000  Uiso   1.00
C833   C     0.37008   0.03363   0.36340   0.00000  Uiso   1.00
C834   C     0.39881   0.03341   0.66140   0.00000  Uiso   1.00
C835   C     0.45173   0.03427   0.33817   0.00000  Uiso   1.00
C836   C     0.47547   0.03329   0.38335   0.00000  Uiso   1.00
H837   H     0.37086   0.03053   0.43551   0.00000  Uiso   1.00
H838   H     0.66279   0.03353   0.35525   0.00000  Uiso   1.00
H839   H     0.38000   0.03320   0.62634   0.00000  Uiso   1.00
H840   H     0.47426   0.03516   0.64438   0.00000  Uiso   1.00
H841   H     0.51577   0.02994   0.39040   0.00000  Uiso   1.00
C842   C     0.55312   0.30092   0.58107   0.00000  Uiso   1.00
C843   C     0.52449   0.30004   0.61665   0.00000  Uiso   1.00
C844   C     0.54822   0.29905   0.66183   0.00000  Uiso   1.00
C845   C     0.60114   0.29992   0.33862   0.00000  Uiso   1.00
C846   C     0.62989   0.29970   0.63662   0.00000  Uiso   1.00
C847   C     0.60624   0.30007   0.59125   0.00000  Uiso   1.00
H848   H     0.48420   0.30339   0.60959   0.00000  Uiso   1.00
H849   H     0.52568   0.29817   0.35561   0.00000  Uiso   1.00
H850   H     0.61994   0.30013   0.37367   0.00000  Uiso   1.00
H851   H     0.33717   0.29980   0.64478   0.00000  Uiso   1.00
H852   H     0.62913   0.30280   0.56451   0.00000  Uiso   1.00
Cl853  Cl    0.42315   0.27769   0.42670   0.00000  Uiso   1.00
Cl854  Cl    0.57685   0.05565   0.57330   0.00000  Uiso   1.00
Cl855  Cl    0.57747   0.22365   0.40059   0.00000  Uiso   1.00
Cl856  Cl    0.42253   0.10968   0.59941   0.00000  Uiso   1.00
Cl857  Cl    0.58706   0.21137   0.62968   0.00000  Uiso   1.00
Cl858  Cl    0.41294   0.12196   0.37032   0.00000  Uiso   1.00
C859   C     0.83308   0.08660   0.49876   0.00000  Uiso   1.00
C860   C     0.83358   0.24673   0.50124   0.00000  Uiso   1.00
C861   C     0.73384   0.16592   0.48806   0.00000  Uiso   1.00
C862   C     0.93282   0.16742   0.51194   0.00000  Uiso   1.00
C863   C     0.67913   0.15989   0.48286   0.00000  Uiso   1.00
C864   C     0.98754   0.17344   0.51714   0.00000  Uiso   1.00
C865   C     0.80439   0.01734   0.46261   0.00000  Uiso   1.00
C866   C     0.86227   0.31599   0.53739   0.00000  Uiso   1.00
C867   C     0.80107   0.30852   0.46670   0.00000  Uiso   1.00
C868   C     0.86559   0.02481   0.53330   0.00000  Uiso   1.00
C869   C     0.83143   0.29097   0.50294   0.00000  Uiso   1.00
C870   C     0.83523   0.04237   0.49706   0.00000  Uiso   1.00
C871   C     0.86813   0.19031   0.36362   0.00000  Uiso   1.00
C872   C     0.79854   0.14302   0.63638   0.00000  Uiso   1.00
C873   C     0.86907   0.18900   0.64932   0.00000  Uiso   1.00
C874   C     0.79760   0.14433   0.35068   0.00000  Uiso   1.00
N875   N     0.83332   0.16666   0.61907   0.00000  Uiso   1.00
N876   N     0.83335   0.16668   0.38093   0.00000  Uiso   1.00
O877   O     0.83333   0.10558   0.53821   0.00000  Uiso   1.00
O878   O     0.83334   0.22775   0.46179   0.00000  Uiso   1.00
O879   O     0.83333   0.10559   0.46176   0.00000  Uiso   1.00
O880   O     0.83334   0.22774   0.53824   0.00000  Uiso   1.00
O881   O     0.75725   0.16666   0.52928   0.00000  Uiso   1.00
O882   O     0.90942   0.16667   0.47072   0.00000  Uiso   1.00
O883   O     0.75725   0.16667   0.45284   0.00000  Uiso   1.00
O884   O     0.90942   0.16666   0.54716   0.00000  Uiso   1.00
Zn885  Zn    0.83333   0.16666   0.55104   0.00000  Uiso   1.00
Zn886  Zn    0.83333   0.16667   0.44896   0.00000  Uiso   1.00
C887   C     0.98787   0.13096   0.44529   0.00000  Uiso   1.00
C888   C     0.97819   0.14332   0.40042   0.00000  Uiso   1.00
C889   C     0.94937   0.11778   0.36615   0.00000  Uiso   1.00
C890   C     0.92951   0.08019   0.37669   0.00000  Uiso   1.00
C891   C     0.94077   0.06704   0.42108   0.00000  Uiso   1.00
C892   C     0.96961   0.09239   0.45533   0.00000  Uiso   1.00
H893   H     0.99272   0.17276   0.39210   0.00000  Uiso   1.00
H894   H     0.94239   0.12709   0.66476   0.00000  Uiso   1.00
H895   H     0.90752   0.06050   0.34988   0.00000  Uiso   1.00
H896   H     0.92793   0.03704   0.42912   0.00000  Uiso   1.00
H897   H     0.97701   0.08233   0.48980   0.00000  Uiso   1.00
C898   C     0.67879   0.20237   0.55471   0.00000  Uiso   1.00
C899   C     0.69703   0.24095   0.54468   0.00000  Uiso   1.00
C900   C     0.72585   0.26631   0.57892   0.00000  Uiso   1.00
C901   C     0.73712   0.25316   0.62331   0.00000  Uiso   1.00
C902   C     0.71729   0.21556   0.63385   0.00000  Uiso   1.00
C903   C     0.68849   0.19001   0.59958   0.00000  Uiso   1.00
H904   H     0.68963   0.25101   0.51020   0.00000  Uiso   1.00
H905   H     0.73867   0.29632   0.57089   0.00000  Uiso   1.00
H906   H     0.75909   0.27286   0.65013   0.00000  Uiso   1.00
H907   H     0.72428   0.20625   0.33524   0.00000  Uiso   1.00
H908   H     0.67396   0.16056   0.60790   0.00000  Uiso   1.00
C909   C     0.78020   0.03242   0.41893   0.00000  Uiso   1.00
C910   C     0.72707   0.03327   0.40877   0.00000  Uiso   1.00
C911   C     0.70341   0.03363   0.36340   0.00000  Uiso   1.00
C912   C     0.73215   0.03341   0.66140   0.00000  Uiso   1.00
C913   C     0.78507   0.03427   0.33817   0.00000  Uiso   1.00
C914   C     0.80881   0.03329   0.38335   0.00000  Uiso   1.00
H915   H     0.70419   0.03053   0.43551   0.00000  Uiso   1.00
H916   H     0.99612   0.03353   0.35525   0.00000  Uiso   1.00
H917   H     0.71334   0.03320   0.62634   0.00000  Uiso   1.00
H918   H     0.80760   0.03516   0.64438   0.00000  Uiso   1.00
H919   H     0.84910   0.02994   0.39040   0.00000  Uiso   1.00
C920   C     0.88645   0.30092   0.58107   0.00000  Uiso   1.00
C921   C     0.85783   0.30004   0.61665   0.00000  Uiso   1.00
C922   C     0.88155   0.29905   0.66183   0.00000  Uiso   1.00
C923   C     0.93447   0.29992   0.33862   0.00000  Uiso   1.00
C924   C     0.96322   0.29970   0.63662   0.00000  Uiso   1.00
C925   C     0.93957   0.30007   0.59125   0.00000  Uiso   1.00
H926   H     0.81753   0.30339   0.60959   0.00000  Uiso   1.00
H927   H     0.85901   0.29817   0.35561   0.00000  Uiso   1.00
H928   H     0.95327   0.30013   0.37367   0.00000  Uiso   1.00
H929   H     0.67051   0.29980   0.64478   0.00000  Uiso   1.00
H930   H     0.96246   0.30280   0.56451   0.00000  Uiso   1.00
Cl931  Cl    0.75648   0.27769   0.42670   0.00000  Uiso   1.00
Cl932  Cl    0.91018   0.05565   0.57330   0.00000  Uiso   1.00
Cl933  Cl    0.91080   0.22365   0.40059   0.00000  Uiso   1.00
Cl934  Cl    0.75587   0.10968   0.59941   0.00000  Uiso   1.00
Cl935  Cl    0.92040   0.21137   0.62968   0.00000  Uiso   1.00
Cl936  Cl    0.74628   0.12196   0.37032   0.00000  Uiso   1.00
C937   C     0.16642   0.41994   0.49876   0.00000  Uiso   1.00
C938   C     0.16692   0.58006   0.50124   0.00000  Uiso   1.00
C939   C     0.06718   0.49925   0.48806   0.00000  Uiso   1.00
C940   C     0.26616   0.50075   0.51194   0.00000  Uiso   1.00
C941   C     0.01246   0.49322   0.48286   0.00000  Uiso   1.00
C942   C     0.32087   0.50677   0.51714   0.00000  Uiso   1.00
C943   C     0.13772   0.35068   0.46261   0.00000  Uiso   1.00
C944   C     0.19560   0.64932   0.53739   0.00000  Uiso   1.00
C945   C     0.13441   0.64185   0.46670   0.00000  Uiso   1.00
C946   C     0.19892   0.35815   0.53330   0.00000  Uiso   1.00
C947   C     0.16476   0.62430   0.50294   0.00000  Uiso   1.00
C948   C     0.16857   0.37570   0.49706   0.00000  Uiso   1.00
C949   C     0.20146   0.52364   0.36362   0.00000  Uiso   1.00
C950   C     0.13187   0.47636   0.63638   0.00000  Uiso   1.00
C951   C     0.20241   0.52234   0.64932   0.00000  Uiso   1.00
C952   C     0.13093   0.47766   0.35068   0.00000  Uiso   1.00
N953   N     0.16665   0.49999   0.61907   0.00000  Uiso   1.00
N954   N     0.16668   0.50001   0.38093   0.00000  Uiso   1.00
O955   O     0.16666   0.43892   0.53821   0.00000  Uiso   1.00
O956   O     0.16667   0.56108   0.46179   0.00000  Uiso   1.00
O957   O     0.16666   0.43893   0.46176   0.00000  Uiso   1.00
O958   O     0.16667   0.56107   0.53824   0.00000  Uiso   1.00
O959   O     0.09058   0.50000   0.52928   0.00000  Uiso   1.00
O960   O     0.24275   0.50000   0.47072   0.00000  Uiso   1.00
O961   O     0.09058   0.50000   0.45284   0.00000  Uiso   1.00
O962   O     0.24275   0.50000   0.54716   0.00000  Uiso   1.00
Zn963  Zn    0.16667   0.49999   0.55104   0.00000  Uiso   1.00
Zn964  Zn    0.16667   0.50001   0.44896   0.00000  Uiso   1.00
C965   C     0.32121   0.46429   0.44529   0.00000  Uiso   1.00
C966   C     0.31152   0.47665   0.40042   0.00000  Uiso   1.00
C967   C     0.28270   0.45111   0.36615   0.00000  Uiso   1.00
C968   C     0.26284   0.41352   0.37669   0.00000  Uiso   1.00
C969   C     0.27411   0.40038   0.42108   0.00000  Uiso   1.00
C970   C     0.30295   0.42572   0.45533   0.00000  Uiso   1.00
H971   H     0.32606   0.50609   0.39210   0.00000  Uiso   1.00
H972   H     0.27572   0.46042   0.66476   0.00000  Uiso   1.00
H973   H     0.24086   0.39383   0.34988   0.00000  Uiso   1.00
H974   H     0.26126   0.37038   0.42912   0.00000  Uiso   1.00
H975   H     0.31034   0.41567   0.48980   0.00000  Uiso   1.00
C976   C     0.01213   0.53571   0.55471   0.00000  Uiso   1.00
C977   C     0.03037   0.57428   0.54468   0.00000  Uiso   1.00
C978   C     0.05919   0.59964   0.57892   0.00000  Uiso   1.00
C979   C     0.07045   0.58649   0.62331   0.00000  Uiso   1.00
C980   C     0.05062   0.54889   0.63385   0.00000  Uiso   1.00
C981   C     0.02182   0.52335   0.59958   0.00000  Uiso   1.00
H982   H     0.02297   0.58434   0.51020   0.00000  Uiso   1.00
H983   H     0.07200   0.62965   0.57089   0.00000  Uiso   1.00
H984   H     0.09242   0.60620   0.65013   0.00000  Uiso   1.00
H985   H     0.05761   0.53958   0.33524   0.00000  Uiso   1.00
H986   H     0.00730   0.49390   0.60790   0.00000  Uiso   1.00
C987   C     0.11353   0.36575   0.41893   0.00000  Uiso   1.00
C988   C     0.06041   0.36660   0.40877   0.00000  Uiso   1.00
C989   C     0.03674   0.36696   0.36340   0.00000  Uiso   1.00
C990   C     0.06548   0.36674   0.66140   0.00000  Uiso   1.00
C991   C     0.11840   0.36761   0.33817   0.00000  Uiso   1.00
C992   C     0.14214   0.36663   0.38335   0.00000  Uiso   1.00
H993   H     0.03753   0.36387   0.43551   0.00000  Uiso   1.00
H994   H     0.32946   0.36686   0.35525   0.00000  Uiso   1.00
H995   H     0.04667   0.36653   0.62634   0.00000  Uiso   1.00
H996   H     0.14093   0.36849   0.64438   0.00000  Uiso   1.00
H997   H     0.18243   0.36327   0.39040   0.00000  Uiso   1.00
C998   C     0.21978   0.63425   0.58107   0.00000  Uiso   1.00
C999   C     0.19116   0.63337   0.61665   0.00000  Uiso   1.00
C1000  C     0.21489   0.63239   0.66183   0.00000  Uiso   1.00
C1001  C     0.26781   0.63326   0.33862   0.00000  Uiso   1.00
C1002  C     0.29655   0.63304   0.63662   0.00000  Uiso   1.00
C1003  C     0.27290   0.63340   0.59125   0.00000  Uiso   1.00
H1004  H     0.15087   0.63673   0.60959   0.00000  Uiso   1.00
H1005  H     0.19235   0.63150   0.35561   0.00000  Uiso   1.00
H1006  H     0.28661   0.63346   0.37367   0.00000  Uiso   1.00
H1007  H     0.00384   0.63313   0.64478   0.00000  Uiso   1.00
H1008  H     0.29579   0.63613   0.56451   0.00000  Uiso   1.00
Cl1009 Cl    0.08981   0.61102   0.42670   0.00000  Uiso   1.00
Cl1010 Cl    0.24352   0.38898   0.57330   0.00000  Uiso   1.00
Cl1011 Cl    0.24414   0.55698   0.40059   0.00000  Uiso   1.00
Cl1012 Cl    0.08920   0.44301   0.59941   0.00000  Uiso   1.00
Cl1013 Cl    0.25373   0.54470   0.62968   0.00000  Uiso   1.00
Cl1014 Cl    0.07961   0.45529   0.37032   0.00000  Uiso   1.00
C1015  C     0.49975   0.41994   0.49876   0.00000  Uiso   1.00
C1016  C     0.50025   0.58006   0.50124   0.00000  Uiso   1.00
C1017  C     0.40051   0.49925   0.48806   0.00000  Uiso   1.00
C1018  C     0.59949   0.50075   0.51194   0.00000  Uiso   1.00
C1019  C     0.34580   0.49322   0.48286   0.00000  Uiso   1.00
C1020  C     0.65421   0.50677   0.51714   0.00000  Uiso   1.00
C1021  C     0.47105   0.35068   0.46261   0.00000  Uiso   1.00
C1022  C     0.52894   0.64932   0.53739   0.00000  Uiso   1.00
C1023  C     0.46774   0.64185   0.46670   0.00000  Uiso   1.00
C1024  C     0.53225   0.35815   0.53330   0.00000  Uiso   1.00
C1025  C     0.49809   0.62430   0.50294   0.00000  Uiso   1.00
C1026  C     0.50190   0.37570   0.49706   0.00000  Uiso   1.00
C1027  C     0.53480   0.52364   0.36362   0.00000  Uiso   1.00
C1028  C     0.46520   0.47636   0.63638   0.00000  Uiso   1.00
C1029  C     0.53574   0.52234   0.64932   0.00000  Uiso   1.00
C1030  C     0.46426   0.47766   0.35068   0.00000  Uiso   1.00
N1031  N     0.49999   0.49999   0.61907   0.00000  Uiso   1.00
N1032  N     0.50001   0.50001   0.38093   0.00000  Uiso   1.00
O1033  O     0.50000   0.43892   0.53821   0.00000  Uiso   1.00
O1034  O     0.50000   0.56108   0.46179   0.00000  Uiso   1.00
O1035  O     0.50000   0.43893   0.46176   0.00000  Uiso   1.00
O1036  O     0.50000   0.56107   0.53824   0.00000  Uiso   1.00
O1037  O     0.42392   0.50000   0.52928   0.00000  Uiso   1.00
O1038  O     0.57608   0.50000   0.47072   0.00000  Uiso   1.00
O1039  O     0.42392   0.50000   0.45284   0.00000  Uiso   1.00
O1040  O     0.57608   0.50000   0.54716   0.00000  Uiso   1.00
Zn1041 Zn    0.50000   0.49999   0.55104   0.00000  Uiso   1.00
Zn1042 Zn    0.50000   0.50001   0.44896   0.00000  Uiso   1.00
C1043  C     0.65454   0.46429   0.44529   0.00000  Uiso   1.00
C1044  C     0.64485   0.47665   0.40042   0.00000  Uiso   1.00
C1045  C     0.61604   0.45111   0.36615   0.00000  Uiso   1.00
C1046  C     0.59617   0.41352   0.37669   0.00000  Uiso   1.00
C1047  C     0.60744   0.40038   0.42108   0.00000  Uiso   1.00
C1048  C     0.63628   0.42572   0.45533   0.00000  Uiso   1.00
H1049  H     0.65939   0.50609   0.39210   0.00000  Uiso   1.00
H1050  H     0.60905   0.46042   0.66476   0.00000  Uiso   1.00
H1051  H     0.57419   0.39383   0.34988   0.00000  Uiso   1.00
H1052  H     0.59460   0.37038   0.42912   0.00000  Uiso   1.00
H1053  H     0.64367   0.41567   0.48980   0.00000  Uiso   1.00
C1054  C     0.34546   0.53571   0.55471   0.00000  Uiso   1.00
C1055  C     0.36370   0.57428   0.54468   0.00000  Uiso   1.00
C1056  C     0.39252   0.59964   0.57892   0.00000  Uiso   1.00
C1057  C     0.40379   0.58649   0.62331   0.00000  Uiso   1.00
C1058  C     0.38396   0.54889   0.63385   0.00000  Uiso   1.00
C1059  C     0.35516   0.52335   0.59958   0.00000  Uiso   1.00
H1060  H     0.35630   0.58434   0.51020   0.00000  Uiso   1.00
H1061  H     0.40534   0.62965   0.57089   0.00000  Uiso   1.00
H1062  H     0.42575   0.60620   0.65013   0.00000  Uiso   1.00
H1063  H     0.39094   0.53958   0.33524   0.00000  Uiso   1.00
H1064  H     0.34063   0.49390   0.60790   0.00000  Uiso   1.00
C1065  C     0.44686   0.36575   0.41893   0.00000  Uiso   1.00
C1066  C     0.39374   0.36660   0.40877   0.00000  Uiso   1.00
C1067  C     0.37008   0.36696   0.36340   0.00000  Uiso   1.00
C1068  C     0.39881   0.36674   0.66140   0.00000  Uiso   1.00
C1069  C     0.45173   0.36761   0.33817   0.00000  Uiso   1.00
C1070  C     0.47547   0.36663   0.38335   0.00000  Uiso   1.00
H1071  H     0.37086   0.36387   0.43551   0.00000  Uiso   1.00
H1072  H     0.66279   0.36686   0.35525   0.00000  Uiso   1.00
H1073  H     0.38000   0.36653   0.62634   0.00000  Uiso   1.00
H1074  H     0.47426   0.36849   0.64438   0.00000  Uiso   1.00
H1075  H     0.51577   0.36327   0.39040   0.00000  Uiso   1.00
C1076  C     0.55312   0.63425   0.58107   0.00000  Uiso   1.00
C1077  C     0.52449   0.63337   0.61665   0.00000  Uiso   1.00
C1078  C     0.54822   0.63239   0.66183   0.00000  Uiso   1.00
C1079  C     0.60114   0.63326   0.33862   0.00000  Uiso   1.00
C1080  C     0.62989   0.63304   0.63662   0.00000  Uiso   1.00
C1081  C     0.60624   0.63340   0.59125   0.00000  Uiso   1.00
H1082  H     0.48420   0.63673   0.60959   0.00000  Uiso   1.00
H1083  H     0.52568   0.63150   0.35561   0.00000  Uiso   1.00
H1084  H     0.61994   0.63346   0.37367   0.00000  Uiso   1.00
H1085  H     0.33717   0.63313   0.64478   0.00000  Uiso   1.00
H1086  H     0.62913   0.63613   0.56451   0.00000  Uiso   1.00
Cl1087 Cl    0.42315   0.61102   0.42670   0.00000  Uiso   1.00
Cl1088 Cl    0.57685   0.38898   0.57330   0.00000  Uiso   1.00
Cl1089 Cl    0.57747   0.55698   0.40059   0.00000  Uiso   1.00
Cl1090 Cl    0.42253   0.44301   0.59941   0.00000  Uiso   1.00
Cl1091 Cl    0.58706   0.54470   0.62968   0.00000  Uiso   1.00
Cl1092 Cl    0.41294   0.45529   0.37032   0.00000  Uiso   1.00
C1093  C     0.83308   0.41994   0.49876   0.00000  Uiso   1.00
C1094  C     0.83358   0.58006   0.50124   0.00000  Uiso   1.00
C1095  C     0.73384   0.49925   0.48806   0.00000  Uiso   1.00
C1096  C     0.93282   0.50075   0.51194   0.00000  Uiso   1.00
C1097  C     0.67913   0.49322   0.48286   0.00000  Uiso   1.00
C1098  C     0.98754   0.50677   0.51714   0.00000  Uiso   1.00
C1099  C     0.80439   0.35068   0.46261   0.00000  Uiso   1.00
C1100  C     0.86227   0.64932   0.53739   0.00000  Uiso   1.00
C1101  C     0.80107   0.64185   0.46670   0.00000  Uiso   1.00
C1102  C     0.86559   0.35815   0.53330   0.00000  Uiso   1.00
C1103  C     0.83143   0.62430   0.50294   0.00000  Uiso   1.00
C1104  C     0.83523   0.37570   0.49706   0.00000  Uiso   1.00
C1105  C     0.86813   0.52364   0.36362   0.00000  Uiso   1.00
C1106  C     0.79854   0.47636   0.63638   0.00000  Uiso   1.00
C1107  C     0.86907   0.52234   0.64932   0.00000  Uiso   1.00
C1108  C     0.79760   0.47766   0.35068   0.00000  Uiso   1.00
N1109  N     0.83332   0.49999   0.61907   0.00000  Uiso   1.00
N1110  N     0.83335   0.50001   0.38093   0.00000  Uiso   1.00
O1111  O     0.83333   0.43892   0.53821   0.00000  Uiso   1.00
O1112  O     0.83334   0.56108   0.46179   0.00000  Uiso   1.00
O1113  O     0.83333   0.43893   0.46176   0.00000  Uiso   1.00
O1114  O     0.83334   0.56107   0.53824   0.00000  Uiso   1.00
O1115  O     0.75725   0.50000   0.52928   0.00000  Uiso   1.00
O1116  O     0.90942   0.50000   0.47072   0.00000  Uiso   1.00
O1117  O     0.75725   0.50000   0.45284   0.00000  Uiso   1.00
O1118  O     0.90942   0.50000   0.54716   0.00000  Uiso   1.00
Zn1119 Zn    0.83333   0.49999   0.55104   0.00000  Uiso   1.00
Zn1120 Zn    0.83333   0.50001   0.44896   0.00000  Uiso   1.00
C1121  C     0.98787   0.46429   0.44529   0.00000  Uiso   1.00
C1122  C     0.97819   0.47665   0.40042   0.00000  Uiso   1.00
C1123  C     0.94937   0.45111   0.36615   0.00000  Uiso   1.00
C1124  C     0.92951   0.41352   0.37669   0.00000  Uiso   1.00
C1125  C     0.94077   0.40038   0.42108   0.00000  Uiso   1.00
C1126  C     0.96961   0.42572   0.45533   0.00000  Uiso   1.00
H1127  H     0.99272   0.50609   0.39210   0.00000  Uiso   1.00
H1128  H     0.94239   0.46042   0.66476   0.00000  Uiso   1.00
H1129  H     0.90752   0.39383   0.34988   0.00000  Uiso   1.00
H1130  H     0.92793   0.37038   0.42912   0.00000  Uiso   1.00
H1131  H     0.97701   0.41567   0.48980   0.00000  Uiso   1.00
C1132  C     0.67879   0.53571   0.55471   0.00000  Uiso   1.00
C1133  C     0.69703   0.57428   0.54468   0.00000  Uiso   1.00
C1134  C     0.72585   0.59964   0.57892   0.00000  Uiso   1.00
C1135  C     0.73712   0.58649   0.62331   0.00000  Uiso   1.00
C1136  C     0.71729   0.54889   0.63385   0.00000  Uiso   1.00
C1137  C     0.68849   0.52335   0.59958   0.00000  Uiso   1.00
H1138  H     0.68963   0.58434   0.51020   0.00000  Uiso   1.00
H1139  H     0.73867   0.62965   0.57089   0.00000  Uiso   1.00
H1140  H     0.75909   0.60620   0.65013   0.00000  Uiso   1.00
H1141  H     0.72428   0.53958   0.33524   0.00000  Uiso   1.00
H1142  H     0.67396   0.49390   0.60790   0.00000  Uiso   1.00
C1143  C     0.78020   0.36575   0.41893   0.00000  Uiso   1.00
C1144  C     0.72707   0.36660   0.40877   0.00000  Uiso   1.00
C1145  C     0.70341   0.36696   0.36340   0.00000  Uiso   1.00
C1146  C     0.73215   0.36674   0.66140   0.00000  Uiso   1.00
C1147  C     0.78507   0.36761   0.33817   0.00000  Uiso   1.00
C1148  C     0.80881   0.36663   0.38335   0.00000  Uiso   1.00
H1149  H     0.70419   0.36387   0.43551   0.00000  Uiso   1.00
H1150  H     0.99612   0.36686   0.35525   0.00000  Uiso   1.00
H1151  H     0.71334   0.36653   0.62634   0.00000  Uiso   1.00
H1152  H     0.80760   0.36849   0.64438   0.00000  Uiso   1.00
H1153  H     0.84910   0.36327   0.39040   0.00000  Uiso   1.00
C1154  C     0.88645   0.63425   0.58107   0.00000  Uiso   1.00
C1155  C     0.85783   0.63337   0.61665   0.00000  Uiso   1.00
C1156  C     0.88155   0.63239   0.66183   0.00000  Uiso   1.00
C1157  C     0.93447   0.63326   0.33862   0.00000  Uiso   1.00
C1158  C     0.96322   0.63304   0.63662   0.00000  Uiso   1.00
C1159  C     0.93957   0.63340   0.59125   0.00000  Uiso   1.00
H1160  H     0.81753   0.63673   0.60959   0.00000  Uiso   1.00
H1161  H     0.85901   0.63150   0.35561   0.00000  Uiso   1.00
H1162  H     0.95327   0.63346   0.37367   0.00000  Uiso   1.00
H1163  H     0.67051   0.63313   0.64478   0.00000  Uiso   1.00
H1164  H     0.96246   0.63613   0.56451   0.00000  Uiso   1.00
Cl1165 Cl    0.75648   0.61102   0.42670   0.00000  Uiso   1.00
Cl1166 Cl    0.91018   0.38898   0.57330   0.00000  Uiso   1.00
Cl1167 Cl    0.91080   0.55698   0.40059   0.00000  Uiso   1.00
Cl1168 Cl    0.75587   0.44301   0.59941   0.00000  Uiso   1.00
Cl1169 Cl    0.92040   0.54470   0.62968   0.00000  Uiso   1.00
Cl1170 Cl    0.74628   0.45529   0.37032   0.00000  Uiso   1.00
C1171  C     0.16642   0.75327   0.49876   0.00000  Uiso   1.00
C1172  C     0.16692   0.91340   0.50124   0.00000  Uiso   1.00
C1173  C     0.06718   0.83258   0.48806   0.00000  Uiso   1.00
C1174  C     0.26616   0.83408   0.51194   0.00000  Uiso   1.00
C1175  C     0.01246   0.82656   0.48286   0.00000  Uiso   1.00
C1176  C     0.32087   0.84011   0.51714   0.00000  Uiso   1.00
C1177  C     0.13772   0.68401   0.46261   0.00000  Uiso   1.00
C1178  C     0.19560   0.98266   0.53739   0.00000  Uiso   1.00
C1179  C     0.13441   0.97519   0.46670   0.00000  Uiso   1.00
C1180  C     0.19892   0.69148   0.53330   0.00000  Uiso   1.00
C1181  C     0.16476   0.95763   0.50294   0.00000  Uiso   1.00
C1182  C     0.16857   0.70903   0.49706   0.00000  Uiso   1.00
C1183  C     0.20146   0.85698   0.36362   0.00000  Uiso   1.00
C1184  C     0.13187   0.80969   0.63638   0.00000  Uiso   1.00
C1185  C     0.20241   0.85567   0.64932   0.00000  Uiso   1.00
C1186  C     0.13093   0.81100   0.35068   0.00000  Uiso   1.00
N1187  N     0.16665   0.83332   0.61907   0.00000  Uiso   1.00
N1188  N     0.16668   0.83334   0.38093   0.00000  Uiso   1.00
O1189  O     0.16666   0.77225   0.53821   0.00000  Uiso   1.00
O1190  O     0.16667   0.89442   0.46179   0.00000  Uiso   1.00
O1191  O     0.16666   0.77226   0.46176   0.00000  Uiso   1.00
O1192  O     0.16667   0.89441   0.53824   0.00000  Uiso   1.00
O1193  O     0.09058   0.83333   0.52928   0.00000  Uiso   1.00
O1194  O     0.24275   0.83334   0.47072   0.00000  Uiso   1.00
O1195  O     0.09058   0.83334   0.45284   0.00000  Uiso   1.00
O1196  O     0.24275   0.83333   0.54716   0.00000  Uiso   1.00
Zn1197 Zn    0.16667   0.83333   0.55104   0.00000  Uiso   1.00
Zn1198 Zn    0.16667   0.83334   0.44896   0.00000  Uiso   1.00
C1199  C     0.32121   0.79763   0.44529   0.00000  Uiso   1.00
C1200  C     0.31152   0.80998   0.40042   0.00000  Uiso   1.00
C1201  C     0.28270   0.78445   0.36615   0.00000  Uiso   1.00
C1202  C     0.26284   0.74686   0.37669   0.00000  Uiso   1.00
C1203  C     0.27411   0.73371   0.42108   0.00000  Uiso   1.00
C1204  C     0.30295   0.75906   0.45533   0.00000  Uiso   1.00
H1205  H     0.32606   0.83943   0.39210   0.00000  Uiso   1.00
H1206  H     0.27572   0.79376   0.66476   0.00000  Uiso   1.00
H1207  H     0.24086   0.72716   0.34988   0.00000  Uiso   1.00
H1208  H     0.26126   0.70371   0.42912   0.00000  Uiso   1.00
H1209  H     0.31034   0.74900   0.48980   0.00000  Uiso   1.00
C1210  C     0.01213   0.86904   0.55471   0.00000  Uiso   1.00
C1211  C     0.03037   0.90762   0.54468   0.00000  Uiso   1.00
C1212  C     0.05919   0.93297   0.57892   0.00000  Uiso   1.00
C1213  C     0.07045   0.91983   0.62331   0.00000  Uiso   1.00
C1214  C     0.05062   0.88223   0.63385   0.00000  Uiso   1.00
C1215  C     0.02182   0.85668   0.59958   0.00000  Uiso   1.00
H1216  H     0.02297   0.91767   0.51020   0.00000  Uiso   1.00
H1217  H     0.07200   0.96298   0.57089   0.00000  Uiso   1.00
H1218  H     0.09242   0.93953   0.65013   0.00000  Uiso   1.00
H1219  H     0.05761   0.87291   0.33524   0.00000  Uiso   1.00
H1220  H     0.00730   0.82723   0.60790   0.00000  Uiso   1.00
C1221  C     0.11353   0.69908   0.41893   0.00000  Uiso   1.00
C1222  C     0.06041   0.69993   0.40877   0.00000  Uiso   1.00
C1223  C     0.03674   0.70029   0.36340   0.00000  Uiso   1.00
C1224  C     0.06548   0.70007   0.66140   0.00000  Uiso   1.00
C1225  C     0.11840   0.70094   0.33817   0.00000  Uiso   1.00
C1226  C     0.14214   0.69996   0.38335   0.00000  Uiso   1.00
H1227  H     0.03753   0.69720   0.43551   0.00000  Uiso   1.00
H1228  H     0.32946   0.70019   0.35525   0.00000  Uiso   1.00
H1229  H     0.04667   0.69987   0.62634   0.00000  Uiso   1.00
H1230  H     0.14093   0.70182   0.64438   0.00000  Uiso   1.00
H1231  H     0.18243   0.69661   0.39040   0.00000  Uiso   1.00
C1232  C     0.21978   0.96759   0.58107   0.00000  Uiso   1.00
C1233  C     0.19116   0.96671   0.61665   0.00000  Uiso   1.00
C1234  C     0.21489   0.96572   0.66183   0.00000  Uiso   1.00
C1235  C     0.26781   0.96659   0.33862   0.00000  Uiso   1.00
C1236  C     0.29655   0.96637   0.63662   0.00000  Uiso   1.00
C1237  C     0.27290   0.96673   0.59125   0.00000  Uiso   1.00
H1238  H     0.15087   0.97006   0.60959   0.00000  Uiso   1.00
H1239  H     0.19235   0.96483   0.35561   0.00000  Uiso   1.00
H1240  H     0.28661   0.96679   0.37367   0.00000  Uiso   1.00
H1241  H     0.00384   0.96647   0.64478   0.00000  Uiso   1.00
H1242  H     0.29579   0.96947   0.56451   0.00000  Uiso   1.00
Cl1243 Cl    0.08981   0.94435   0.42670   0.00000  Uiso   1.00
Cl1244 Cl    0.24352   0.72231   0.57330   0.00000  Uiso   1.00
Cl1245 Cl    0.24414   0.89032   0.40059   0.00000  Uiso   1.00
Cl1246 Cl    0.08920   0.77635   0.59941   0.00000  Uiso   1.00
Cl1247 Cl    0.25373   0.87804   0.62968   0.00000  Uiso   1.00
Cl1248 Cl    0.07961   0.78862   0.37032   0.00000  Uiso   1.00
C1249  C     0.49975   0.75327   0.49876   0.00000  Uiso   1.00
C1250  C     0.50025   0.91340   0.50124   0.00000  Uiso   1.00
C1251  C     0.40051   0.83258   0.48806   0.00000  Uiso   1.00
C1252  C     0.59949   0.83408   0.51194   0.00000  Uiso   1.00
C1253  C     0.34580   0.82656   0.48286   0.00000  Uiso   1.00
C1254  C     0.65421   0.84011   0.51714   0.00000  Uiso   1.00
C1255  C     0.47105   0.68401   0.46261   0.00000  Uiso   1.00
C1256  C     0.52894   0.98266   0.53739   0.00000  Uiso   1.00
C1257  C     0.46774   0.97519   0.46670   0.00000  Uiso   1.00
C1258  C     0.53225   0.69148   0.53330   0.00000  Uiso   1.00
C1259  C     0.49809   0.95763   0.50294   0.00000  Uiso   1.00
C1260  C     0.50190   0.70903   0.49706   0.00000  Uiso   1.00
C1261  C     0.53480   0.85698   0.36362   0.00000  Uiso   1.00
C1262  C     0.46520   0.80969   0.63638   0.00000  Uiso   1.00
C1263  C     0.53574   0.85567   0.64932   0.00000  Uiso   1.00
C1264  C     0.46426   0.81100   0.35068   0.00000  Uiso   1.00
N1265  N     0.49999   0.83332   0.61907   0.00000  Uiso   1.00
N1266  N     0.50001   0.83334   0.38093   0.00000  Uiso   1.00
O1267  O     0.50000   0.77225   0.53821   0.00000  Uiso   1.00
O1268  O     0.50000   0.89442   0.46179   0.00000  Uiso   1.00
O1269  O     0.50000   0.77226   0.46176   0.00000  Uiso   1.00
O1270  O     0.50000   0.89441   0.53824   0.00000  Uiso   1.00
O1271  O     0.42392   0.83333   0.52928   0.00000  Uiso   1.00
O1272  O     0.57608   0.83334   0.47072   0.00000  Uiso   1.00
O1273  O     0.42392   0.83334   0.45284   0.00000  Uiso   1.00
O1274  O     0.57608   0.83333   0.54716   0.00000  Uiso   1.00
Zn1275 Zn    0.50000   0.83333   0.55104   0.00000  Uiso   1.00
Zn1276 Zn    0.50000   0.83334   0.44896   0.00000  Uiso   1.00
C1277  C     0.65454   0.79763   0.44529   0.00000  Uiso   1.00
C1278  C     0.64485   0.80998   0.40042   0.00000  Uiso   1.00
C1279  C     0.61604   0.78445   0.36615   0.00000  Uiso   1.00
C1280  C     0.59617   0.74686   0.37669   0.00000  Uiso   1.00
C1281  C     0.60744   0.73371   0.42108   0.00000  Uiso   1.00
C1282  C     0.63628   0.75906   0.45533   0.00000  Uiso   1.00
H1283  H     0.65939   0.83943   0.39210   0.00000  Uiso   1.00
H1284  H     0.60905   0.79376   0.66476   0.00000  Uiso   1.00
H1285  H     0.57419   0.72716   0.34988   0.00000  Uiso   1.00
H1286  H     0.59460   0.70371   0.42912   0.00000  Uiso   1.00
H1287  H     0.64367   0.74900   0.48980   0.00000  Uiso   1.00
C1288  C     0.34546   0.86904   0.55471   0.00000  Uiso   1.00
C1289  C     0.36370   0.90762   0.54468   0.00000  Uiso   1.00
C1290  C     0.39252   0.93297   0.57892   0.00000  Uiso   1.00
C1291  C     0.40379   0.91983   0.62331   0.00000  Uiso   1.00
C1292  C     0.38396   0.88223   0.63385   0.00000  Uiso   1.00
C1293  C     0.35516   0.85668   0.59958   0.00000  Uiso   1.00
H1294  H     0.35630   0.91767   0.51020   0.00000  Uiso   1.00
H1295  H     0.40534   0.96298   0.57089   0.00000  Uiso   1.00
H1296  H     0.42575   0.93953   0.65013   0.00000  Uiso   1.00
H1297  H     0.39094   0.87291   0.33524   0.00000  Uiso   1.00
H1298  H     0.34063   0.82723   0.60790   0.00000  Uiso   1.00
C1299  C     0.44686   0.69908   0.41893   0.00000  Uiso   1.00
C1300  C     0.39374   0.69993   0.40877   0.00000  Uiso   1.00
C1301  C     0.37008   0.70029   0.36340   0.00000  Uiso   1.00
C1302  C     0.39881   0.70007   0.66140   0.00000  Uiso   1.00
C1303  C     0.45173   0.70094   0.33817   0.00000  Uiso   1.00
C1304  C     0.47547   0.69996   0.38335   0.00000  Uiso   1.00
H1305  H     0.37086   0.69720   0.43551   0.00000  Uiso   1.00
H1306  H     0.66279   0.70019   0.35525   0.00000  Uiso   1.00
H1307  H     0.38000   0.69987   0.62634   0.00000  Uiso   1.00
H1308  H     0.47426   0.70182   0.64438   0.00000  Uiso   1.00
H1309  H     0.51577   0.69661   0.39040   0.00000  Uiso   1.00
C1310  C     0.55312   0.96759   0.58107   0.00000  Uiso   1.00
C1311  C     0.52449   0.96671   0.61665   0.00000  Uiso   1.00
C1312  C     0.54822   0.96572   0.66183   0.00000  Uiso   1.00
C1313  C     0.60114   0.96659   0.33862   0.00000  Uiso   1.00
C1314  C     0.62989   0.96637   0.63662   0.00000  Uiso   1.00
C1315  C     0.60624   0.96673   0.59125   0.00000  Uiso   1.00
H1316  H     0.48420   0.97006   0.60959   0.00000  Uiso   1.00
H1317  H     0.52568   0.96483   0.35561   0.00000  Uiso   1.00
H1318  H     0.61994   0.96679   0.37367   0.00000  Uiso   1.00
H1319  H     0.33717   0.96647   0.64478   0.00000  Uiso   1.00
H1320  H     0.62913   0.96947   0.56451   0.00000  Uiso   1.00
Cl1321 Cl    0.42315   0.94435   0.42670   0.00000  Uiso   1.00
Cl1322 Cl    0.57685   0.72231   0.57330   0.00000  Uiso   1.00
Cl1323 Cl    0.57747   0.89032   0.40059   0.00000  Uiso   1.00
Cl1324 Cl    0.42253   0.77635   0.59941   0.00000  Uiso   1.00
Cl1325 Cl    0.58706   0.87804   0.62968   0.00000  Uiso   1.00
Cl1326 Cl    0.41294   0.78862   0.37032   0.00000  Uiso   1.00
C1327  C     0.83308   0.75327   0.49876   0.00000  Uiso   1.00
C1328  C     0.83358   0.91340   0.50124   0.00000  Uiso   1.00
C1329  C     0.73384   0.83258   0.48806   0.00000  Uiso   1.00
C1330  C     0.93282   0.83408   0.51194   0.00000  Uiso   1.00
C1331  C     0.67913   0.82656   0.48286   0.00000  Uiso   1.00
C1332  C     0.98754   0.84011   0.51714   0.00000  Uiso   1.00
C1333  C     0.80439   0.68401   0.46261   0.00000  Uiso   1.00
C1334  C     0.86227   0.98266   0.53739   0.00000  Uiso   1.00
C1335  C     0.80107   0.97519   0.46670   0.00000  Uiso   1.00
C1336  C     0.86559   0.69148   0.53330   0.00000  Uiso   1.00
C1337  C     0.83143   0.95763   0.50294   0.00000  Uiso   1.00
C1338  C     0.83523   0.70903   0.49706   0.00000  Uiso   1.00
C1339  C     0.86813   0.85698   0.36362   0.00000  Uiso   1.00
C1340  C     0.79854   0.80969   0.63638   0.00000  Uiso   1.00
C1341  C     0.86907   0.85567   0.64932   0.00000  Uiso   1.00
C1342  C     0.79760   0.81100   0.35068   0.00000  Uiso   1.00
N1343  N     0.83332   0.83332   0.61907   0.00000  Uiso   1.00
N1344  N     0.83335   0.83334   0.38093   0.00000  Uiso   1.00
O1345  O     0.83333   0.77225   0.53821   0.00000  Uiso   1.00
O1346  O     0.83334   0.89442   0.46179   0.00000  Uiso   1.00
O1347  O     0.83333   0.77226   0.46176   0.00000  Uiso   1.00
O1348  O     0.83334   0.89441   0.53824   0.00000  Uiso   1.00
O1349  O     0.75725   0.83333   0.52928   0.00000  Uiso   1.00
O1350  O     0.90942   0.83334   0.47072   0.00000  Uiso   1.00
O1351  O     0.75725   0.83334   0.45284   0.00000  Uiso   1.00
O1352  O     0.90942   0.83333   0.54716   0.00000  Uiso   1.00
Zn1353 Zn    0.83333   0.83333   0.55104   0.00000  Uiso   1.00
Zn1354 Zn    0.83333   0.83334   0.44896   0.00000  Uiso   1.00
C1355  C     0.98787   0.79763   0.44529   0.00000  Uiso   1.00
C1356  C     0.97819   0.80998   0.40042   0.00000  Uiso   1.00
C1357  C     0.94937   0.78445   0.36615   0.00000  Uiso   1.00
C1358  C     0.92951   0.74686   0.37669   0.00000  Uiso   1.00
C1359  C     0.94077   0.73371   0.42108   0.00000  Uiso   1.00
C1360  C     0.96961   0.75906   0.45533   0.00000  Uiso   1.00
H1361  H     0.99272   0.83943   0.39210   0.00000  Uiso   1.00
H1362  H     0.94239   0.79376   0.66476   0.00000  Uiso   1.00
H1363  H     0.90752   0.72716   0.34988   0.00000  Uiso   1.00
H1364  H     0.92793   0.70371   0.42912   0.00000  Uiso   1.00
H1365  H     0.97701   0.74900   0.48980   0.00000  Uiso   1.00
C1366  C     0.67879   0.86904   0.55471   0.00000  Uiso   1.00
C1367  C     0.69703   0.90762   0.54468   0.00000  Uiso   1.00
C1368  C     0.72585   0.93297   0.57892   0.00000  Uiso   1.00
C1369  C     0.73712   0.91983   0.62331   0.00000  Uiso   1.00
C1370  C     0.71729   0.88223   0.63385   0.00000  Uiso   1.00
C1371  C     0.68849   0.85668   0.59958   0.00000  Uiso   1.00
H1372  H     0.68963   0.91767   0.51020   0.00000  Uiso   1.00
H1373  H     0.73867   0.96298   0.57089   0.00000  Uiso   1.00
H1374  H     0.75909   0.93953   0.65013   0.00000  Uiso   1.00
H1375  H     0.72428   0.87291   0.33524   0.00000  Uiso   1.00
H1376  H     0.67396   0.82723   0.60790   0.00000  Uiso   1.00
C1377  C     0.78020   0.69908   0.41893   0.00000  Uiso   1.00
C1378  C     0.72707   0.69993   0.40877   0.00000  Uiso   1.00
C1379  C     0.70341   0.70029   0.36340   0.00000  Uiso   1.00
C1380  C     0.73215   0.70007   0.66140   0.00000  Uiso   1.00
C1381  C     0.78507   0.70094   0.33817   0.00000  Uiso   1.00
C1382  C     0.80881   0.69996   0.38335   0.00000  Uiso   1.00
H1383  H     0.70419   0.69720   0.43551   0.00000  Uiso   1.00
H1384  H     0.99612   0.70019   0.35525   0.00000  Uiso   1.00
H1385  H     0.71334   0.69987   0.62634   0.00000  Uiso   1.00
H1386  H     0.80760   0.70182   0.64438   0.00000  Uiso   1.00
H1387  H     0.84910   0.69661   0.39040   0.00000  Uiso   1.00
C1388  C     0.88645   0.96759   0.58107   0.00000  Uiso   1.00
C1389  C     0.85783   0.96671   0.61665   0.00000  Uiso   1.00
C1390  C     0.88155   0.96572   0.66183   0.00000  Uiso   1.00
C1391  C     0.93447   0.96659   0.33862   0.00000  Uiso   1.00
C1392  C     0.96322   0.96637   0.63662   0.00000  Uiso   1.00
C1393  C     0.93957   0.96673   0.59125   0.00000  Uiso   1.00
H1394  H     0.81753   0.97006   0.60959   0.00000  Uiso   1.00
H1395  H     0.85901   0.96483   0.35561   0.00000  Uiso   1.00
H1396  H     0.95327   0.96679   0.37367   0.00000  Uiso   1.00
H1397  H     0.67051   0.96647   0.64478   0.00000  Uiso   1.00
H1398  H     0.96246   0.96947   0.56451   0.00000  Uiso   1.00
Cl1399 Cl    0.75648   0.94435   0.42670   0.00000  Uiso   1.00
Cl1400 Cl    0.91018   0.72231   0.57330   0.00000  Uiso   1.00
Cl1401 Cl    0.91080   0.89032   0.40059   0.00000  Uiso   1.00
Cl1402 Cl    0.75587   0.77635   0.59941   0.00000  Uiso   1.00
Cl1403 Cl    0.92040   0.87804   0.62968   0.00000  Uiso   1.00
Cl1404 Cl    0.74628   0.78862   0.37032   0.00000  Uiso   1.00
C1405  C     0.16642   0.08660   0.83210   0.00000  Uiso   1.00
C1406  C     0.16692   0.24673   0.83457   0.00000  Uiso   1.00
C1407  C     0.06718   0.16592   0.82139   0.00000  Uiso   1.00
C1408  C     0.26616   0.16742   0.84527   0.00000  Uiso   1.00
C1409  C     0.01246   0.15989   0.81620   0.00000  Uiso   1.00
C1410  C     0.32087   0.17344   0.85047   0.00000  Uiso   1.00
C1411  C     0.13772   0.01734   0.79595   0.00000  Uiso   1.00
C1412  C     0.19560   0.31599   0.87072   0.00000  Uiso   1.00
C1413  C     0.13441   0.30852   0.80003   0.00000  Uiso   1.00
C1414  C     0.19892   0.02481   0.86664   0.00000  Uiso   1.00
C1415  C     0.16476   0.29097   0.83627   0.00000  Uiso   1.00
C1416  C     0.16857   0.04237   0.83040   0.00000  Uiso   1.00
C1417  C     0.20146   0.19031   0.69695   0.00000  Uiso   1.00
C1418  C     0.13187   0.14302   0.96971   0.00000  Uiso   1.00
C1419  C     0.20241   0.18900   0.98266   0.00000  Uiso   1.00
C1420  C     0.13093   0.14433   0.68401   0.00000  Uiso   1.00
N1421  N     0.16665   0.16666   0.95240   0.00000  Uiso   1.00
N1422  N     0.16668   0.16668   0.71427   0.00000  Uiso   1.00
O1423  O     0.16666   0.10558   0.87154   0.00000  Uiso   1.00
O1424  O     0.16667   0.22775   0.79513   0.00000  Uiso   1.00
O1425  O     0.16666   0.10559   0.79510   0.00000  Uiso   1.00
O1426  O     0.16667   0.22774   0.87157   0.00000  Uiso   1.00
O1427  O     0.09058   0.16666   0.86261   0.00000  Uiso   1.00
O1428  O     0.24275   0.16667   0.80405   0.00000  Uiso   1.00
O1429  O     0.09058   0.16667   0.78617   0.00000  Uiso   1.00
O1430  O     0.24275   0.16666   0.88050   0.00000  Uiso   1.00
Zn1431 Zn    0.16667   0.16666   0.88437   0.00000  Uiso   1.00
Zn1432 Zn    0.16667   0.16667   0.78229   0.00000  Uiso   1.00
C1433  C     0.32121   0.13096   0.77862   0.00000  Uiso   1.00
C1434  C     0.31152   0.14332   0.73376   0.00000  Uiso   1.00
C1435  C     0.28270   0.11778   0.69948   0.00000  Uiso   1.00
C1436  C     0.26284   0.08019   0.71003   0.00000  Uiso   1.00
C1437  C     0.27411   0.06704   0.75442   0.00000  Uiso   1.00
C1438  C     0.30295   0.09239   0.78866   0.00000  Uiso   1.00
H1439  H     0.32606   0.17276   0.72543   0.00000  Uiso   1.00
H1440  H     0.27572   0.12709   0.99809   0.00000  Uiso   1.00
H1441  H     0.24086   0.06050   0.68321   0.00000  Uiso   1.00
H1442  H     0.26126   0.03704   0.76246   0.00000  Uiso   1.00
H1443  H     0.31034   0.08233   0.82313   0.00000  Uiso   1.00
C1444  C     0.01213   0.20237   0.88805   0.00000  Uiso   1.00
C1445  C     0.03037   0.24095   0.87801   0.00000  Uiso   1.00
C1446  C     0.05919   0.26631   0.91226   0.00000  Uiso   1.00
C1447  C     0.07045   0.25316   0.95665   0.00000  Uiso   1.00
C1448  C     0.05062   0.21556   0.96719   0.00000  Uiso   1.00
C1449  C     0.02182   0.19001   0.93291   0.00000  Uiso   1.00
H1450  H     0.02297   0.25101   0.84354   0.00000  Uiso   1.00
H1451  H     0.07200   0.29632   0.90422   0.00000  Uiso   1.00
H1452  H     0.09242   0.27286   0.98346   0.00000  Uiso   1.00
H1453  H     0.05761   0.20625   0.66857   0.00000  Uiso   1.00
H1454  H     0.00730   0.16056   0.94124   0.00000  Uiso   1.00
C1455  C     0.11353   0.03242   0.75227   0.00000  Uiso   1.00
C1456  C     0.06041   0.03327   0.74210   0.00000  Uiso   1.00
C1457  C     0.03674   0.03363   0.69673   0.00000  Uiso   1.00
C1458  C     0.06548   0.03341   0.99473   0.00000  Uiso   1.00
C1459  C     0.11840   0.03427   0.67150   0.00000  Uiso   1.00
C1460  C     0.14214   0.03329   0.71668   0.00000  Uiso   1.00
H1461  H     0.03753   0.03053   0.76884   0.00000  Uiso   1.00
H1462  H     0.32946   0.03353   0.68858   0.00000  Uiso   1.00
H1463  H     0.04667   0.03320   0.95968   0.00000  Uiso   1.00
H1464  H     0.14093   0.03516   0.97772   0.00000  Uiso   1.00
H1465  H     0.18243   0.02994   0.72373   0.00000  Uiso   1.00
C1466  C     0.21978   0.30092   0.91440   0.00000  Uiso   1.00
C1467  C     0.19116   0.30004   0.94998   0.00000  Uiso   1.00
C1468  C     0.21489   0.29905   0.99516   0.00000  Uiso   1.00
C1469  C     0.26781   0.29992   0.67195   0.00000  Uiso   1.00
C1470  C     0.29655   0.29970   0.96996   0.00000  Uiso   1.00
C1471  C     0.27290   0.30007   0.92458   0.00000  Uiso   1.00
H1472  H     0.15087   0.30339   0.94292   0.00000  Uiso   1.00
H1473  H     0.19235   0.29817   0.68894   0.00000  Uiso   1.00
H1474  H     0.28661   0.30013   0.70700   0.00000  Uiso   1.00
H1475  H     0.00384   0.29980   0.97811   0.00000  Uiso   1.00
H1476  H     0.29579   0.30280   0.89785   0.00000  Uiso   1.00
Cl1477 Cl    0.08981   0.27769   0.76003   0.00000  Uiso   1.00
Cl1478 Cl    0.24352   0.05565   0.90664   0.00000  Uiso   1.00
Cl1479 Cl    0.24414   0.22365   0.73392   0.00000  Uiso   1.00
Cl1480 Cl    0.08920   0.10968   0.93275   0.00000  Uiso   1.00
Cl1481 Cl    0.25373   0.21137   0.96301   0.00000  Uiso   1.00
Cl1482 Cl    0.07961   0.12196   0.70365   0.00000  Uiso   1.00
C1483  C     0.49975   0.08660   0.83210   0.00000  Uiso   1.00
C1484  C     0.50025   0.24673   0.83457   0.00000  Uiso   1.00
C1485  C     0.40051   0.16592   0.82139   0.00000  Uiso   1.00
C1486  C     0.59949   0.16742   0.84527   0.00000  Uiso   1.00
C1487  C     0.34580   0.15989   0.81620   0.00000  Uiso   1.00
C1488  C     0.65421   0.17344   0.85047   0.00000  Uiso   1.00
C1489  C     0.47105   0.01734   0.79595   0.00000  Uiso   1.00
C1490  C     0.52894   0.31599   0.87072   0.00000  Uiso   1.00
C1491  C     0.46774   0.30852   0.80003   0.00000  Uiso   1.00
C1492  C     0.53225   0.02481   0.86664   0.00000  Uiso   1.00
C1493  C     0.49809   0.29097   0.83627   0.00000  Uiso   1.00
C1494  C     0.50190   0.04237   0.83040   0.00000  Uiso   1.00
C1495  C     0.53480   0.19031   0.69695   0.00000  Uiso   1.00
C1496  C     0.46520   0.14302   0.96971   0.00000  Uiso   1.00
C1497  C     0.53574   0.18900   0.98266   0.00000  Uiso   1.00
C1498  C     0.46426   0.14433   0.68401   0.00000  Uiso   1.00
N1499  N     0.49999   0.16666   0.95240   0.00000  Uiso   1.00
N1500  N     0.50001   0.16668   0.71427   0.00000  Uiso   1.00
O1501  O     0.50000   0.10558   0.87154   0.00000  Uiso   1.00
O1502  O     0.50000   0.22775   0.79513   0.00000  Uiso   1.00
O1503  O     0.50000   0.10559   0.79510   0.00000  Uiso   1.00
O1504  O     0.50000   0.22774   0.87157   0.00000  Uiso   1.00
O1505  O     0.42392   0.16666   0.86261   0.00000  Uiso   1.00
O1506  O     0.57608   0.16667   0.80405   0.00000  Uiso   1.00
O1507  O     0.42392   0.16667   0.78617   0.00000  Uiso   1.00
O1508  O     0.57608   0.16666   0.88050   0.00000  Uiso   1.00
Zn1509 Zn    0.50000   0.16666   0.88437   0.00000  Uiso   1.00
Zn1510 Zn    0.50000   0.16667   0.78229   0.00000  Uiso   1.00
C1511  C     0.65454   0.13096   0.77862   0.00000  Uiso   1.00
C1512  C     0.64485   0.14332   0.73376   0.00000  Uiso   1.00
C1513  C     0.61604   0.11778   0.69948   0.00000  Uiso   1.00
C1514  C     0.59617   0.08019   0.71003   0.00000  Uiso   1.00
C1515  C     0.60744   0.06704   0.75442   0.00000  Uiso   1.00
C1516  C     0.63628   0.09239   0.78866   0.00000  Uiso   1.00
H1517  H     0.65939   0.17276   0.72543   0.00000  Uiso   1.00
H1518  H     0.60905   0.12709   0.99809   0.00000  Uiso   1.00
H1519  H     0.57419   0.06050   0.68321   0.00000  Uiso   1.00
H1520  H     0.59460   0.03704   0.76246   0.00000  Uiso   1.00
H1521  H     0.64367   0.08233   0.82313   0.00000  Uiso   1.00
C1522  C     0.34546   0.20237   0.88805   0.00000  Uiso   1.00
C1523  C     0.36370   0.24095   0.87801   0.00000  Uiso   1.00
C1524  C     0.39252   0.26631   0.91226   0.00000  Uiso   1.00
C1525  C     0.40379   0.25316   0.95665   0.00000  Uiso   1.00
C1526  C     0.38396   0.21556   0.96719   0.00000  Uiso   1.00
C1527  C     0.35516   0.19001   0.93291   0.00000  Uiso   1.00
H1528  H     0.35630   0.25101   0.84354   0.00000  Uiso   1.00
H1529  H     0.40534   0.29632   0.90422   0.00000  Uiso   1.00
H1530  H     0.42575   0.27286   0.98346   0.00000  Uiso   1.00
H1531  H     0.39094   0.20625   0.66857   0.00000  Uiso   1.00
H1532  H     0.34063   0.16056   0.94124   0.00000  Uiso   1.00
C1533  C     0.44686   0.03242   0.75227   0.00000  Uiso   1.00
C1534  C     0.39374   0.03327   0.74210   0.00000  Uiso   1.00
C1535  C     0.37008   0.03363   0.69673   0.00000  Uiso   1.00
C1536  C     0.39881   0.03341   0.99473   0.00000  Uiso   1.00
C1537  C     0.45173   0.03427   0.67150   0.00000  Uiso   1.00
C1538  C     0.47547   0.03329   0.71668   0.00000  Uiso   1.00
H1539  H     0.37086   0.03053   0.76884   0.00000  Uiso   1.00
H1540  H     0.66279   0.03353   0.68858   0.00000  Uiso   1.00
H1541  H     0.38000   0.03320   0.95968   0.00000  Uiso   1.00
H1542  H     0.47426   0.03516   0.97772   0.00000  Uiso   1.00
H1543  H     0.51577   0.02994   0.72373   0.00000  Uiso   1.00
C1544  C     0.55312   0.30092   0.91440   0.00000  Uiso   1.00
C1545  C     0.52449   0.30004   0.94998   0.00000  Uiso   1.00
C1546  C     0.54822   0.29905   0.99516   0.00000  Uiso   1.00
C1547  C     0.60114   0.29992   0.67195   0.00000  Uiso   1.00
C1548  C     0.62989   0.29970   0.96996   0.00000  Uiso   1.00
C1549  C     0.60624   0.30007   0.92458   0.00000  Uiso   1.00
H1550  H     0.48420   0.30339   0.94292   0.00000  Uiso   1.00
H1551  H     0.52568   0.29817   0.68894   0.00000  Uiso   1.00
H1552  H     0.61994   0.30013   0.70700   0.00000  Uiso   1.00
H1553  H     0.33717   0.29980   0.97811   0.00000  Uiso   1.00
H1554  H     0.62913   0.30280   0.89785   0.00000  Uiso   1.00
Cl1555 Cl    0.42315   0.27769   0.76003   0.00000  Uiso   1.00
Cl1556 Cl    0.57685   0.05565   0.90664   0.00000  Uiso   1.00
Cl1557 Cl    0.57747   0.22365   0.73392   0.00000  Uiso   1.00
Cl1558 Cl    0.42253   0.10968   0.93275   0.00000  Uiso   1.00
Cl1559 Cl    0.58706   0.21137   0.96301   0.00000  Uiso   1.00
Cl1560 Cl    0.41294   0.12196   0.70365   0.00000  Uiso   1.00
C1561  C     0.83308   0.08660   0.83210   0.00000  Uiso   1.00
C1562  C     0.83358   0.24673   0.83457   0.00000  Uiso   1.00
C1563  C     0.73384   0.16592   0.82139   0.00000  Uiso   1.00
C1564  C     0.93282   0.16742   0.84527   0.00000  Uiso   1.00
C1565  C     0.67913   0.15989   0.81620   0.00000  Uiso   1.00
C1566  C     0.98754   0.17344   0.85047   0.00000  Uiso   1.00
C1567  C     0.80439   0.01734   0.79595   0.00000  Uiso   1.00
C1568  C     0.86227   0.31599   0.87072   0.00000  Uiso   1.00
C1569  C     0.80107   0.30852   0.80003   0.00000  Uiso   1.00
C1570  C     0.86559   0.02481   0.86664   0.00000  Uiso   1.00
C1571  C     0.83143   0.29097   0.83627   0.00000  Uiso   1.00
C1572  C     0.83523   0.04237   0.83040   0.00000  Uiso   1.00
C1573  C     0.86813   0.19031   0.69695   0.00000  Uiso   1.00
C1574  C     0.79854   0.14302   0.96971   0.00000  Uiso   1.00
C1575  C     0.86907   0.18900   0.98266   0.00000  Uiso   1.00
C1576  C     0.79760   0.14433   0.68401   0.00000  Uiso   1.00
N1577  N     0.83332   0.16666   0.95240   0.00000  Uiso   1.00
N1578  N     0.83335   0.16668   0.71427   0.00000  Uiso   1.00
O1579  O     0.83333   0.10558   0.87154   0.00000  Uiso   1.00
O1580  O     0.83334   0.22775   0.79513   0.00000  Uiso   1.00
O1581  O     0.83333   0.10559   0.79510   0.00000  Uiso   1.00
O1582  O     0.83334   0.22774   0.87157   0.00000  Uiso   1.00
O1583  O     0.75725   0.16666   0.86261   0.00000  Uiso   1.00
O1584  O     0.90942   0.16667   0.80405   0.00000  Uiso   1.00
O1585  O     0.75725   0.16667   0.78617   0.00000  Uiso   1.00
O1586  O     0.90942   0.16666   0.88050   0.00000  Uiso   1.00
Zn1587 Zn    0.83333   0.16666   0.88437   0.00000  Uiso   1.00
Zn1588 Zn    0.83333   0.16667   0.78229   0.00000  Uiso   1.00
C1589  C     0.98787   0.13096   0.77862   0.00000  Uiso   1.00
C1590  C     0.97819   0.14332   0.73376   0.00000  Uiso   1.00
C1591  C     0.94937   0.11778   0.69948   0.00000  Uiso   1.00
C1592  C     0.92951   0.08019   0.71003   0.00000  Uiso   1.00
C1593  C     0.94077   0.06704   0.75442   0.00000  Uiso   1.00
C1594  C     0.96961   0.09239   0.78866   0.00000  Uiso   1.00
H1595  H     0.99272   0.17276   0.72543   0.00000  Uiso   1.00
H1596  H     0.94239   0.12709   0.99809   0.00000  Uiso   1.00
H1597  H     0.90752   0.06050   0.68321   0.00000  Uiso   1.00
H1598  H     0.92793   0.03704   0.76246   0.00000  Uiso   1.00
H1599  H     0.97701   0.08233   0.82313   0.00000  Uiso   1.00
C1600  C     0.67879   0.20237   0.88805   0.00000  Uiso   1.00
C1601  C     0.69703   0.24095   0.87801   0.00000  Uiso   1.00
C1602  C     0.72585   0.26631   0.91226   0.00000  Uiso   1.00
C1603  C     0.73712   0.25316   0.95665   0.00000  Uiso   1.00
C1604  C     0.71729   0.21556   0.96719   0.00000  Uiso   1.00
C1605  C     0.68849   0.19001   0.93291   0.00000  Uiso   1.00
H1606  H     0.68963   0.25101   0.84354   0.00000  Uiso   1.00
H1607  H     0.73867   0.29632   0.90422   0.00000  Uiso   1.00
H1608  H     0.75909   0.27286   0.98346   0.00000  Uiso   1.00
H1609  H     0.72428   0.20625   0.66857   0.00000  Uiso   1.00
H1610  H     0.67396   0.16056   0.94124   0.00000  Uiso   1.00
C1611  C     0.78020   0.03242   0.75227   0.00000  Uiso   1.00
C1612  C     0.72707   0.03327   0.74210   0.00000  Uiso   1.00
C1613  C     0.70341   0.03363   0.69673   0.00000  Uiso   1.00
C1614  C     0.73215   0.03341   0.99473   0.00000  Uiso   1.00
C1615  C     0.78507   0.03427   0.67150   0.00000  Uiso   1.00
C1616  C     0.80881   0.03329   0.71668   0.00000  Uiso   1.00
H1617  H     0.70419   0.03053   0.76884   0.00000  Uiso   1.00
H1618  H     0.99612   0.03353   0.68858   0.00000  Uiso   1.00
H1619  H     0.71334   0.03320   0.95968   0.00000  Uiso   1.00
H1620  H     0.80760   0.03516   0.97772   0.00000  Uiso   1.00
H1621  H     0.84910   0.02994   0.72373   0.00000  Uiso   1.00
C1622  C     0.88645   0.30092   0.91440   0.00000  Uiso   1.00
C1623  C     0.85783   0.30004   0.94998   0.00000  Uiso   1.00
C1624  C     0.88155   0.29905   0.99516   0.00000  Uiso   1.00
C1625  C     0.93447   0.29992   0.67195   0.00000  Uiso   1.00
C1626  C     0.96322   0.29970   0.96996   0.00000  Uiso   1.00
C1627  C     0.93957   0.30007   0.92458   0.00000  Uiso   1.00
H1628  H     0.81753   0.30339   0.94292   0.00000  Uiso   1.00
H1629  H     0.85901   0.29817   0.68894   0.00000  Uiso   1.00
H1630  H     0.95327   0.30013   0.70700   0.00000  Uiso   1.00
H1631  H     0.67051   0.29980   0.97811   0.00000  Uiso   1.00
H1632  H     0.96246   0.30280   0.89785   0.00000  Uiso   1.00
Cl1633 Cl    0.75648   0.27769   0.76003   0.00000  Uiso   1.00
Cl1634 Cl    0.91018   0.05565   0.90664   0.00000  Uiso   1.00
Cl1635 Cl    0.91080   0.22365   0.73392   0.00000  Uiso   1.00
Cl1636 Cl    0.75587   0.10968   0.93275   0.00000  Uiso   1.00
Cl1637 Cl    0.92040   0.21137   0.96301   0.00000  Uiso   1.00
Cl1638 Cl    0.74628   0.12196   0.70365   0.00000  Uiso   1.00
C1639  C     0.16642   0.41994   0.83210   0.00000  Uiso   1.00
C1640  C     0.16692   0.58006   0.83457   0.00000  Uiso   1.00
C1641  C     0.06718   0.49925   0.82139   0.00000  Uiso   1.00
C1642  C     0.26616   0.50075   0.84527   0.00000  Uiso   1.00
C1643  C     0.01246   0.49322   0.81620   0.00000  Uiso   1.00
C1644  C     0.32087   0.50677   0.85047   0.00000  Uiso   1.00
C1645  C     0.13772   0.35068   0.79595   0.00000  Uiso   1.00
C1646  C     0.19560   0.64932   0.87072   0.00000  Uiso   1.00
C1647  C     0.13441   0.64185   0.80003   0.00000  Uiso   1.00
C1648  C     0.19892   0.35815   0.86664   0.00000  Uiso   1.00
C1649  C     0.16476   0.62430   0.83627   0.00000  Uiso   1.00
C1650  C     0.16857   0.37570   0.83040   0.00000  Uiso   1.00
C1651  C     0.20146   0.52364   0.69695   0.00000  Uiso   1.00
C1652  C     0.13187   0.47636   0.96971   0.00000  Uiso   1.00
C1653  C     0.20241   0.52234   0.98266   0.00000  Uiso   1.00
C1654  C     0.13093   0.47766   0.68401   0.00000  Uiso   1.00
N1655  N     0.16665   0.49999   0.95240   0.00000  Uiso   1.00
N1656  N     0.16668   0.50001   0.71427   0.00000  Uiso   1.00
O1657  O     0.16666   0.43892   0.87154   0.00000  Uiso   1.00
O1658  O     0.16667   0.56108   0.79513   0.00000  Uiso   1.00
O1659  O     0.16666   0.43893   0.79510   0.00000  Uiso   1.00
O1660  O     0.16667   0.56107   0.87157   0.00000  Uiso   1.00
O1661  O     0.09058   0.50000   0.86261   0.00000  Uiso   1.00
O1662  O     0.24275   0.50000   0.80405   0.00000  Uiso   1.00
O1663  O     0.09058   0.50000   0.78617   0.00000  Uiso   1.00
O1664  O     0.24275   0.50000   0.88050   0.00000  Uiso   1.00
Zn1665 Zn    0.16667   0.49999   0.88437   0.00000  Uiso   1.00
Zn1666 Zn    0.16667   0.50001   0.78229   0.00000  Uiso   1.00
C1667  C     0.32121   0.46429   0.77862   0.00000  Uiso   1.00
C1668  C     0.31152   0.47665   0.73376   0.00000  Uiso   1.00
C1669  C     0.28270   0.45111   0.69948   0.00000  Uiso   1.00
C1670  C     0.26284   0.41352   0.71003   0.00000  Uiso   1.00
C1671  C     0.27411   0.40038   0.75442   0.00000  Uiso   1.00
C1672  C     0.30295   0.42572   0.78866   0.00000  Uiso   1.00
H1673  H     0.32606   0.50609   0.72543   0.00000  Uiso   1.00
H1674  H     0.27572   0.46042   0.99809   0.00000  Uiso   1.00
H1675  H     0.24086   0.39383   0.68321   0.00000  Uiso   1.00
H1676  H     0.26126   0.37038   0.76246   0.00000  Uiso   1.00
H1677  H     0.31034   0.41567   0.82313   0.00000  Uiso   1.00
C1678  C     0.01213   0.53571   0.88805   0.00000  Uiso   1.00
C1679  C     0.03037   0.57428   0.87801   0.00000  Uiso   1.00
C1680  C     0.05919   0.59964   0.91226   0.00000  Uiso   1.00
C1681  C     0.07045   0.58649   0.95665   0.00000  Uiso   1.00
C1682  C     0.05062   0.54889   0.96719   0.00000  Uiso   1.00
C1683  C     0.02182   0.52335   0.93291   0.00000  Uiso   1.00
H1684  H     0.02297   0.58434   0.84354   0.00000  Uiso   1.00
H1685  H     0.07200   0.62965   0.90422   0.00000  Uiso   1.00
H1686  H     0.09242   0.60620   0.98346   0.00000  Uiso   1.00
H1687  H     0.05761   0.53958   0.66857   0.00000  Uiso   1.00
H1688  H     0.00730   0.49390   0.94124   0.00000  Uiso   1.00
C1689  C     0.11353   0.36575   0.75227   0.00000  Uiso   1.00
C1690  C     0.06041   0.36660   0.74210   0.00000  Uiso   1.00
C1691  C     0.03674   0.36696   0.69673   0.00000  Uiso   1.00
C1692  C     0.06548   0.36674   0.99473   0.00000  Uiso   1.00
C1693  C     0.11840   0.36761   0.67150   0.00000  Uiso   1.00
C1694  C     0.14214   0.36663   0.71668   0.00000  Uiso   1.00
H1695  H     0.03753   0.36387   0.76884   0.00000  Uiso   1.00
H1696  H     0.32946   0.36686   0.68858   0.00000  Uiso   1.00
H1697  H     0.04667   0.36653   0.95968   0.00000  Uiso   1.00
H1698  H     0.14093   0.36849   0.97772   0.00000  Uiso   1.00
H1699  H     0.18243   0.36327   0.72373   0.00000  Uiso   1.00
C1700  C     0.21978   0.63425   0.91440   0.00000  Uiso   1.00
C1701  C     0.19116   0.63337   0.94998   0.00000  Uiso   1.00
C1702  C     0.21489   0.63239   0.99516   0.00000  Uiso   1.00
C1703  C     0.26781   0.63326   0.67195   0.00000  Uiso   1.00
C1704  C     0.29655   0.63304   0.96996   0.00000  Uiso   1.00
C1705  C     0.27290   0.63340   0.92458   0.00000  Uiso   1.00
H1706  H     0.15087   0.63673   0.94292   0.00000  Uiso   1.00
H1707  H     0.19235   0.63150   0.68894   0.00000  Uiso   1.00
H1708  H     0.28661   0.63346   0.70700   0.00000  Uiso   1.00
H1709  H     0.00384   0.63313   0.97811   0.00000  Uiso   1.00
H1710  H     0.29579   0.63613   0.89785   0.00000  Uiso   1.00
Cl1711 Cl    0.08981   0.61102   0.76003   0.00000  Uiso   1.00
Cl1712 Cl    0.24352   0.38898   0.90664   0.00000  Uiso   1.00
Cl1713 Cl    0.24414   0.55698   0.73392   0.00000  Uiso   1.00
Cl1714 Cl    0.08920   0.44301   0.93275   0.00000  Uiso   1.00
Cl1715 Cl    0.25373   0.54470   0.96301   0.00000  Uiso   1.00
Cl1716 Cl    0.07961   0.45529   0.70365   0.00000  Uiso   1.00
C1717  C     0.49975   0.41994   0.83210   0.00000  Uiso   1.00
C1718  C     0.50025   0.58006   0.83457   0.00000  Uiso   1.00
C1719  C     0.40051   0.49925   0.82139   0.00000  Uiso   1.00
C1720  C     0.59949   0.50075   0.84527   0.00000  Uiso   1.00
C1721  C     0.34580   0.49322   0.81620   0.00000  Uiso   1.00
C1722  C     0.65421   0.50677   0.85047   0.00000  Uiso   1.00
C1723  C     0.47105   0.35068   0.79595   0.00000  Uiso   1.00
C1724  C     0.52894   0.64932   0.87072   0.00000  Uiso   1.00
C1725  C     0.46774   0.64185   0.80003   0.00000  Uiso   1.00
C1726  C     0.53225   0.35815   0.86664   0.00000  Uiso   1.00
C1727  C     0.49809   0.62430   0.83627   0.00000  Uiso   1.00
C1728  C     0.50190   0.37570   0.83040   0.00000  Uiso   1.00
C1729  C     0.53480   0.52364   0.69695   0.00000  Uiso   1.00
C1730  C     0.46520   0.47636   0.96971   0.00000  Uiso   1.00
C1731  C     0.53574   0.52234   0.98266   0.00000  Uiso   1.00
C1732  C     0.46426   0.47766   0.68401   0.00000  Uiso   1.00
N1733  N     0.49999   0.49999   0.95240   0.00000  Uiso   1.00
N1734  N     0.50001   0.50001   0.71427   0.00000  Uiso   1.00
O1735  O     0.50000   0.43892   0.87154   0.00000  Uiso   1.00
O1736  O     0.50000   0.56108   0.79513   0.00000  Uiso   1.00
O1737  O     0.50000   0.43893   0.79510   0.00000  Uiso   1.00
O1738  O     0.50000   0.56107   0.87157   0.00000  Uiso   1.00
O1739  O     0.42392   0.50000   0.86261   0.00000  Uiso   1.00
O1740  O     0.57608   0.50000   0.80405   0.00000  Uiso   1.00
O1741  O     0.42392   0.50000   0.78617   0.00000  Uiso   1.00
O1742  O     0.57608   0.50000   0.88050   0.00000  Uiso   1.00
Zn1743 Zn    0.50000   0.49999   0.88437   0.00000  Uiso   1.00
Zn1744 Zn    0.50000   0.50001   0.78229   0.00000  Uiso   1.00
C1745  C     0.65454   0.46429   0.77862   0.00000  Uiso   1.00
C1746  C     0.64485   0.47665   0.73376   0.00000  Uiso   1.00
C1747  C     0.61604   0.45111   0.69948   0.00000  Uiso   1.00
C1748  C     0.59617   0.41352   0.71003   0.00000  Uiso   1.00
C1749  C     0.60744   0.40038   0.75442   0.00000  Uiso   1.00
C1750  C     0.63628   0.42572   0.78866   0.00000  Uiso   1.00
H1751  H     0.65939   0.50609   0.72543   0.00000  Uiso   1.00
H1752  H     0.60905   0.46042   0.99809   0.00000  Uiso   1.00
H1753  H     0.57419   0.39383   0.68321   0.00000  Uiso   1.00
H1754  H     0.59460   0.37038   0.76246   0.00000  Uiso   1.00
H1755  H     0.64367   0.41567   0.82313   0.00000  Uiso   1.00
C1756  C     0.34546   0.53571   0.88805   0.00000  Uiso   1.00
C1757  C     0.36370   0.57428   0.87801   0.00000  Uiso   1.00
C1758  C     0.39252   0.59964   0.91226   0.00000  Uiso   1.00
C1759  C     0.40379   0.58649   0.95665   0.00000  Uiso   1.00
C1760  C     0.38396   0.54889   0.96719   0.00000  Uiso   1.00
C1761  C     0.35516   0.52335   0.93291   0.00000  Uiso   1.00
H1762  H     0.35630   0.58434   0.84354   0.00000  Uiso   1.00
H1763  H     0.40534   0.62965   0.90422   0.00000  Uiso   1.00
H1764  H     0.42575   0.60620   0.98346   0.00000  Uiso   1.00
H1765  H     0.39094   0.53958   0.66857   0.00000  Uiso   1.00
H1766  H     0.34063   0.49390   0.94124   0.00000  Uiso   1.00
C1767  C     0.44686   0.36575   0.75227   0.00000  Uiso   1.00
C1768  C     0.39374   0.36660   0.74210   0.00000  Uiso   1.00
C1769  C     0.37008   0.36696   0.69673   0.00000  Uiso   1.00
C1770  C     0.39881   0.36674   0.99473   0.00000  Uiso   1.00
C1771  C     0.45173   0.36761   0.67150   0.00000  Uiso   1.00
C1772  C     0.47547   0.36663   0.71668   0.00000  Uiso   1.00
H1773  H     0.37086   0.36387   0.76884   0.00000  Uiso   1.00
H1774  H     0.66279   0.36686   0.68858   0.00000  Uiso   1.00
H1775  H     0.38000   0.36653   0.95968   0.00000  Uiso   1.00
H1776  H     0.47426   0.36849   0.97772   0.00000  Uiso   1.00
H1777  H     0.51577   0.36327   0.72373   0.00000  Uiso   1.00
C1778  C     0.55312   0.63425   0.91440   0.00000  Uiso   1.00
C1779  C     0.52449   0.63337   0.94998   0.00000  Uiso   1.00
C1780  C     0.54822   0.63239   0.99516   0.00000  Uiso   1.00
C1781  C     0.60114   0.63326   0.67195   0.00000  Uiso   1.00
C1782  C     0.62989   0.63304   0.96996   0.00000  Uiso   1.00
C1783  C     0.60624   0.63340   0.92458   0.00000  Uiso   1.00
H1784  H     0.48420   0.63673   0.94292   0.00000  Uiso   1.00
H1785  H     0.52568   0.63150   0.68894   0.00000  Uiso   1.00
H1786  H     0.61994   0.63346   0.70700   0.00000  Uiso   1.00
H1787  H     0.33717   0.63313   0.97811   0.00000  Uiso   1.00
H1788  H     0.62913   0.63613   0.89785   0.00000  Uiso   1.00
Cl1789 Cl    0.42315   0.61102   0.76003   0.00000  Uiso   1.00
Cl1790 Cl    0.57685   0.38898   0.90664   0.00000  Uiso   1.00
Cl1791 Cl    0.57747   0.55698   0.73392   0.00000  Uiso   1.00
Cl1792 Cl    0.42253   0.44301   0.93275   0.00000  Uiso   1.00
Cl1793 Cl    0.58706   0.54470   0.96301   0.00000  Uiso   1.00
Cl1794 Cl    0.41294   0.45529   0.70365   0.00000  Uiso   1.00
C1795  C     0.83308   0.41994   0.83210   0.00000  Uiso   1.00
C1796  C     0.83358   0.58006   0.83457   0.00000  Uiso   1.00
C1797  C     0.73384   0.49925   0.82139   0.00000  Uiso   1.00
C1798  C     0.93282   0.50075   0.84527   0.00000  Uiso   1.00
C1799  C     0.67913   0.49322   0.81620   0.00000  Uiso   1.00
C1800  C     0.98754   0.50677   0.85047   0.00000  Uiso   1.00
C1801  C     0.80439   0.35068   0.79595   0.00000  Uiso   1.00
C1802  C     0.86227   0.64932   0.87072   0.00000  Uiso   1.00
C1803  C     0.80107   0.64185   0.80003   0.00000  Uiso   1.00
C1804  C     0.86559   0.35815   0.86664   0.00000  Uiso   1.00
C1805  C     0.83143   0.62430   0.83627   0.00000  Uiso   1.00
C1806  C     0.83523   0.37570   0.83040   0.00000  Uiso   1.00
C1807  C     0.86813   0.52364   0.69695   0.00000  Uiso   1.00
C1808  C     0.79854   0.47636   0.96971   0.00000  Uiso   1.00
C1809  C     0.86907   0.52234   0.98266   0.00000  Uiso   1.00
C1810  C     0.79760   0.47766   0.68401   0.00000  Uiso   1.00
N1811  N     0.83332   0.49999   0.95240   0.00000  Uiso   1.00
N1812  N     0.83335   0.50001   0.71427   0.00000  Uiso   1.00
O1813  O     0.83333   0.43892   0.87154   0.00000  Uiso   1.00
O1814  O     0.83334   0.56108   0.79513   0.00000  Uiso   1.00
O1815  O     0.83333   0.43893   0.79510   0.00000  Uiso   1.00
O1816  O     0.83334   0.56107   0.87157   0.00000  Uiso   1.00
O1817  O     0.75725   0.50000   0.86261   0.00000  Uiso   1.00
O1818  O     0.90942   0.50000   0.80405   0.00000  Uiso   1.00
O1819  O     0.75725   0.50000   0.78617   0.00000  Uiso   1.00
O1820  O     0.90942   0.50000   0.88050   0.00000  Uiso   1.00
Zn1821 Zn    0.83333   0.49999   0.88437   0.00000  Uiso   1.00
Zn1822 Zn    0.83333   0.50001   0.78229   0.00000  Uiso   1.00
C1823  C     0.98787   0.46429   0.77862   0.00000  Uiso   1.00
C1824  C     0.97819   0.47665   0.73376   0.00000  Uiso   1.00
C1825  C     0.94937   0.45111   0.69948   0.00000  Uiso   1.00
C1826  C     0.92951   0.41352   0.71003   0.00000  Uiso   1.00
C1827  C     0.94077   0.40038   0.75442   0.00000  Uiso   1.00
C1828  C     0.96961   0.42572   0.78866   0.00000  Uiso   1.00
H1829  H     0.99272   0.50609   0.72543   0.00000  Uiso   1.00
H1830  H     0.94239   0.46042   0.99809   0.00000  Uiso   1.00
H1831  H     0.90752   0.39383   0.68321   0.00000  Uiso   1.00
H1832  H     0.92793   0.37038   0.76246   0.00000  Uiso   1.00
H1833  H     0.97701   0.41567   0.82313   0.00000  Uiso   1.00
C1834  C     0.67879   0.53571   0.88805   0.00000  Uiso   1.00
C1835  C     0.69703   0.57428   0.87801   0.00000  Uiso   1.00
C1836  C     0.72585   0.59964   0.91226   0.00000  Uiso   1.00
C1837  C     0.73712   0.58649   0.95665   0.00000  Uiso   1.00
C1838  C     0.71729   0.54889   0.96719   0.00000  Uiso   1.00
C1839  C     0.68849   0.52335   0.93291   0.00000  Uiso   1.00
H1840  H     0.68963   0.58434   0.84354   0.00000  Uiso   1.00
H1841  H     0.73867   0.62965   0.90422   0.00000  Uiso   1.00
H1842  H     0.75909   0.60620   0.98346   0.00000  Uiso   1.00
H1843  H     0.72428   0.53958   0.66857   0.00000  Uiso   1.00
H1844  H     0.67396   0.49390   0.94124   0.00000  Uiso   1.00
C1845  C     0.78020   0.36575   0.75227   0.00000  Uiso   1.00
C1846  C     0.72707   0.36660   0.74210   0.00000  Uiso   1.00
C1847  C     0.70341   0.36696   0.69673   0.00000  Uiso   1.00
C1848  C     0.73215   0.36674   0.99473   0.00000  Uiso   1.00
C1849  C     0.78507   0.36761   0.67150   0.00000  Uiso   1.00
C1850  C     0.80881   0.36663   0.71668   0.00000  Uiso   1.00
H1851  H     0.70419   0.36387   0.76884   0.00000  Uiso   1.00
H1852  H     0.99612   0.36686   0.68858   0.00000  Uiso   1.00
H1853  H     0.71334   0.36653   0.95968   0.00000  Uiso   1.00
H1854  H     0.80760   0.36849   0.97772   0.00000  Uiso   1.00
H1855  H     0.84910   0.36327   0.72373   0.00000  Uiso   1.00
C1856  C     0.88645   0.63425   0.91440   0.00000  Uiso   1.00
C1857  C     0.85783   0.63337   0.94998   0.00000  Uiso   1.00
C1858  C     0.88155   0.63239   0.99516   0.00000  Uiso   1.00
C1859  C     0.93447   0.63326   0.67195   0.00000  Uiso   1.00
C1860  C     0.96322   0.63304   0.96996   0.00000  Uiso   1.00
C1861  C     0.93957   0.63340   0.92458   0.00000  Uiso   1.00
H1862  H     0.81753   0.63673   0.94292   0.00000  Uiso   1.00
H1863  H     0.85901   0.63150   0.68894   0.00000  Uiso   1.00
H1864  H     0.95327   0.63346   0.70700   0.00000  Uiso   1.00
H1865  H     0.67051   0.63313   0.97811   0.00000  Uiso   1.00
H1866  H     0.96246   0.63613   0.89785   0.00000  Uiso   1.00
Cl1867 Cl    0.75648   0.61102   0.76003   0.00000  Uiso   1.00
Cl1868 Cl    0.91018   0.38898   0.90664   0.00000  Uiso   1.00
Cl1869 Cl    0.91080   0.55698   0.73392   0.00000  Uiso   1.00
Cl1870 Cl    0.75587   0.44301   0.93275   0.00000  Uiso   1.00
Cl1871 Cl    0.92040   0.54470   0.96301   0.00000  Uiso   1.00
Cl1872 Cl    0.74628   0.45529   0.70365   0.00000  Uiso   1.00
C1873  C     0.16642   0.75327   0.83210   0.00000  Uiso   1.00
C1874  C     0.16692   0.91340   0.83457   0.00000  Uiso   1.00
C1875  C     0.06718   0.83258   0.82139   0.00000  Uiso   1.00
C1876  C     0.26616   0.83408   0.84527   0.00000  Uiso   1.00
C1877  C     0.01246   0.82656   0.81620   0.00000  Uiso   1.00
C1878  C     0.32087   0.84011   0.85047   0.00000  Uiso   1.00
C1879  C     0.13772   0.68401   0.79595   0.00000  Uiso   1.00
C1880  C     0.19560   0.98266   0.87072   0.00000  Uiso   1.00
C1881  C     0.13441   0.97519   0.80003   0.00000  Uiso   1.00
C1882  C     0.19892   0.69148   0.86664   0.00000  Uiso   1.00
C1883  C     0.16476   0.95763   0.83627   0.00000  Uiso   1.00
C1884  C     0.16857   0.70903   0.83040   0.00000  Uiso   1.00
C1885  C     0.20146   0.85698   0.69695   0.00000  Uiso   1.00
C1886  C     0.13187   0.80969   0.96971   0.00000  Uiso   1.00
C1887  C     0.20241   0.85567   0.98266   0.00000  Uiso   1.00
C1888  C     0.13093   0.81100   0.68401   0.00000  Uiso   1.00
N1889  N     0.16665   0.83332   0.95240   0.00000  Uiso   1.00
N1890  N     0.16668   0.83334   0.71427   0.00000  Uiso   1.00
O1891  O     0.16666   0.77225   0.87154   0.00000  Uiso   1.00
O1892  O     0.16667   0.89442   0.79513   0.00000  Uiso   1.00
O1893  O     0.16666   0.77226   0.79510   0.00000  Uiso   1.00
O1894  O     0.16667   0.89441   0.87157   0.00000  Uiso   1.00
O1895  O     0.09058   0.83333   0.86261   0.00000  Uiso   1.00
O1896  O     0.24275   0.83334   0.80405   0.00000  Uiso   1.00
O1897  O     0.09058   0.83334   0.78617   0.00000  Uiso   1.00
O1898  O     0.24275   0.83333   0.88050   0.00000  Uiso   1.00
Zn1899 Zn    0.16667   0.83333   0.88437   0.00000  Uiso   1.00
Zn1900 Zn    0.16667   0.83334   0.78229   0.00000  Uiso   1.00
C1901  C     0.32121   0.79763   0.77862   0.00000  Uiso   1.00
C1902  C     0.31152   0.80998   0.73376   0.00000  Uiso   1.00
C1903  C     0.28270   0.78445   0.69948   0.00000  Uiso   1.00
C1904  C     0.26284   0.74686   0.71003   0.00000  Uiso   1.00
C1905  C     0.27411   0.73371   0.75442   0.00000  Uiso   1.00
C1906  C     0.30295   0.75906   0.78866   0.00000  Uiso   1.00
H1907  H     0.32606   0.83943   0.72543   0.00000  Uiso   1.00
H1908  H     0.27572   0.79376   0.99809   0.00000  Uiso   1.00
H1909  H     0.24086   0.72716   0.68321   0.00000  Uiso   1.00
H1910  H     0.26126   0.70371   0.76246   0.00000  Uiso   1.00
H1911  H     0.31034   0.74900   0.82313   0.00000  Uiso   1.00
C1912  C     0.01213   0.86904   0.88805   0.00000  Uiso   1.00
C1913  C     0.03037   0.90762   0.87801   0.00000  Uiso   1.00
C1914  C     0.05919   0.93297   0.91226   0.00000  Uiso   1.00
C1915  C     0.07045   0.91983   0.95665   0.00000  Uiso   1.00
C1916  C     0.05062   0.88223   0.96719   0.00000  Uiso   1.00
C1917  C     0.02182   0.85668   0.93291   0.00000  Uiso   1.00
H1918  H     0.02297   0.91767   0.84354   0.00000  Uiso   1.00
H1919  H     0.07200   0.96298   0.90422   0.00000  Uiso   1.00
H1920  H     0.09242   0.93953   0.98346   0.00000  Uiso   1.00
H1921  H     0.05761   0.87291   0.66857   0.00000  Uiso   1.00
H1922  H     0.00730   0.82723   0.94124   0.00000  Uiso   1.00
C1923  C     0.11353   0.69908   0.75227   0.00000  Uiso   1.00
C1924  C     0.06041   0.69993   0.74210   0.00000  Uiso   1.00
C1925  C     0.03674   0.70029   0.69673   0.00000  Uiso   1.00
C1926  C     0.06548   0.70007   0.99473   0.00000  Uiso   1.00
C1927  C     0.11840   0.70094   0.67150   0.00000  Uiso   1.00
C1928  C     0.14214   0.69996   0.71668   0.00000  Uiso   1.00
H1929  H     0.03753   0.69720   0.76884   0.00000  Uiso   1.00
H1930  H     0.32946   0.70019   0.68858   0.00000  Uiso   1.00
H1931  H     0.04667   0.69987   0.95968   0.00000  Uiso   1.00
H1932  H     0.14093   0.70182   0.97772   0.00000  Uiso   1.00
H1933  H     0.18243   0.69661   0.72373   0.00000  Uiso   1.00
C1934  C     0.21978   0.96759   0.91440   0.00000  Uiso   1.00
C1935  C     0.19116   0.96671   0.94998   0.00000  Uiso   1.00
C1936  C     0.21489   0.96572   0.99516   0.00000  Uiso   1.00
C1937  C     0.26781   0.96659   0.67195   0.00000  Uiso   1.00
C1938  C     0.29655   0.96637   0.96996   0.00000  Uiso   1.00
C1939  C     0.27290   0.96673   0.92458   0.00000  Uiso   1.00
H1940  H     0.15087   0.97006   0.94292   0.00000  Uiso   1.00
H1941  H     0.19235   0.96483   0.68894   0.00000  Uiso   1.00
H1942  H     0.28661   0.96679   0.70700   0.00000  Uiso   1.00
H1943  H     0.00384   0.96647   0.97811   0.00000  Uiso   1.00
H1944  H     0.29579   0.96947   0.89785   0.00000  Uiso   1.00
Cl1945 Cl    0.08981   0.94435   0.76003   0.00000  Uiso   1.00
Cl1946 Cl    0.24352   0.72231   0.90664   0.00000  Uiso   1.00
Cl1947 Cl    0.24414   0.89032   0.73392   0.00000  Uiso   1.00
Cl1948 Cl    0.08920   0.77635   0.93275   0.00000  Uiso   1.00
Cl1949 Cl    0.25373   0.87804   0.96301   0.00000  Uiso   1.00
Cl1950 Cl    0.07961   0.78862   0.70365   0.00000  Uiso   1.00
C1951  C     0.49975   0.75327   0.83210   0.00000  Uiso   1.00
C1952  C     0.50025   0.91340   0.83457   0.00000  Uiso   1.00
C1953  C     0.40051   0.83258   0.82139   0.00000  Uiso   1.00
C1954  C     0.59949   0.83408   0.84527   0.00000  Uiso   1.00
C1955  C     0.34580   0.82656   0.81620   0.00000  Uiso   1.00
C1956  C     0.65421   0.84011   0.85047   0.00000  Uiso   1.00
C1957  C     0.47105   0.68401   0.79595   0.00000  Uiso   1.00
C1958  C     0.52894   0.98266   0.87072   0.00000  Uiso   1.00
C1959  C     0.46774   0.97519   0.80003   0.00000  Uiso   1.00
C1960  C     0.53225   0.69148   0.86664   0.00000  Uiso   1.00
C1961  C     0.49809   0.95763   0.83627   0.00000  Uiso   1.00
C1962  C     0.50190   0.70903   0.83040   0.00000  Uiso   1.00
C1963  C     0.53480   0.85698   0.69695   0.00000  Uiso   1.00
C1964  C     0.46520   0.80969   0.96971   0.00000  Uiso   1.00
C1965  C     0.53574   0.85567   0.98266   0.00000  Uiso   1.00
C1966  C     0.46426   0.81100   0.68401   0.00000  Uiso   1.00
N1967  N     0.49999   0.83332   0.95240   0.00000  Uiso   1.00
N1968  N     0.50001   0.83334   0.71427   0.00000  Uiso   1.00
O1969  O     0.50000   0.77225   0.87154   0.00000  Uiso   1.00
O1970  O     0.50000   0.89442   0.79513   0.00000  Uiso   1.00
O1971  O     0.50000   0.77226   0.79510   0.00000  Uiso   1.00
O1972  O     0.50000   0.89441   0.87157   0.00000  Uiso   1.00
O1973  O     0.42392   0.83333   0.86261   0.00000  Uiso   1.00
O1974  O     0.57608   0.83334   0.80405   0.00000  Uiso   1.00
O1975  O     0.42392   0.83334   0.78617   0.00000  Uiso   1.00
O1976  O     0.57608   0.83333   0.88050   0.00000  Uiso   1.00
Zn1977 Zn    0.50000   0.83333   0.88437   0.00000  Uiso   1.00
Zn1978 Zn    0.50000   0.83334   0.78229   0.00000  Uiso   1.00
C1979  C     0.65454   0.79763   0.77862   0.00000  Uiso   1.00
C1980  C     0.64485   0.80998   0.73376   0.00000  Uiso   1.00
C1981  C     0.61604   0.78445   0.69948   0.00000  Uiso   1.00
C1982  C     0.59617   0.74686   0.71003   0.00000  Uiso   1.00
C1983  C     0.60744   0.73371   0.75442   0.00000  Uiso   1.00
C1984  C     0.63628   0.75906   0.78866   0.00000  Uiso   1.00
H1985  H     0.65939   0.83943   0.72543   0.00000  Uiso   1.00
H1986  H     0.60905   0.79376   0.99809   0.00000  Uiso   1.00
H1987  H     0.57419   0.72716   0.68321   0.00000  Uiso   1.00
H1988  H     0.59460   0.70371   0.76246   0.00000  Uiso   1.00
H1989  H     0.64367   0.74900   0.82313   0.00000  Uiso   1.00
C1990  C     0.34546   0.86904   0.88805   0.00000  Uiso   1.00
C1991  C     0.36370   0.90762   0.87801   0.00000  Uiso   1.00
C1992  C     0.39252   0.93297   0.91226   0.00000  Uiso   1.00
C1993  C     0.40379   0.91983   0.95665   0.00000  Uiso   1.00
C1994  C     0.38396   0.88223   0.96719   0.00000  Uiso   1.00
C1995  C     0.35516   0.85668   0.93291   0.00000  Uiso   1.00
H1996  H     0.35630   0.91767   0.84354   0.00000  Uiso   1.00
H1997  H     0.40534   0.96298   0.90422   0.00000  Uiso   1.00
H1998  H     0.42575   0.93953   0.98346   0.00000  Uiso   1.00
H1999  H     0.39094   0.87291   0.66857   0.00000  Uiso   1.00
H2000  H     0.34063   0.82723   0.94124   0.00000  Uiso   1.00
C2001  C     0.44686   0.69908   0.75227   0.00000  Uiso   1.00
C2002  C     0.39374   0.69993   0.74210   0.00000  Uiso   1.00
C2003  C     0.37008   0.70029   0.69673   0.00000  Uiso   1.00
C2004  C     0.39881   0.70007   0.99473   0.00000  Uiso   1.00
C2005  C     0.45173   0.70094   0.67150   0.00000  Uiso   1.00
C2006  C     0.47547   0.69996   0.71668   0.00000  Uiso   1.00
H2007  H     0.37086   0.69720   0.76884   0.00000  Uiso   1.00
H2008  H     0.66279   0.70019   0.68858   0.00000  Uiso   1.00
H2009  H     0.38000   0.69987   0.95968   0.00000  Uiso   1.00
H2010  H     0.47426   0.70182   0.97772   0.00000  Uiso   1.00
H2011  H     0.51577   0.69661   0.72373   0.00000  Uiso   1.00
C2012  C     0.55312   0.96759   0.91440   0.00000  Uiso   1.00
C2013  C     0.52449   0.96671   0.94998   0.00000  Uiso   1.00
C2014  C     0.54822   0.96572   0.99516   0.00000  Uiso   1.00
C2015  C     0.60114   0.96659   0.67195   0.00000  Uiso   1.00
C2016  C     0.62989   0.96637   0.96996   0.00000  Uiso   1.00
C2017  C     0.60624   0.96673   0.92458   0.00000  Uiso   1.00
H2018  H     0.48420   0.97006   0.94292   0.00000  Uiso   1.00
H2019  H     0.52568   0.96483   0.68894   0.00000  Uiso   1.00
H2020  H     0.61994   0.96679   0.70700   0.00000  Uiso   1.00
H2021  H     0.33717   0.96647   0.97811   0.00000  Uiso   1.00
H2022  H     0.62913   0.96947   0.89785   0.00000  Uiso   1.00
Cl2023 Cl    0.42315   0.94435   0.76003   0.00000  Uiso   1.00
Cl2024 Cl    0.57685   0.72231   0.90664   0.00000  Uiso   1.00
Cl2025 Cl    0.57747   0.89032   0.73392   0.00000  Uiso   1.00
Cl2026 Cl    0.42253   0.77635   0.93275   0.00000  Uiso   1.00
Cl2027 Cl    0.58706   0.87804   0.96301   0.00000  Uiso   1.00
Cl2028 Cl    0.41294   0.78862   0.70365   0.00000  Uiso   1.00
C2029  C     0.83308   0.75327   0.83210   0.00000  Uiso   1.00
C2030  C     0.83358   0.91340   0.83457   0.00000  Uiso   1.00
C2031  C     0.73384   0.83258   0.82139   0.00000  Uiso   1.00
C2032  C     0.93282   0.83408   0.84527   0.00000  Uiso   1.00
C2033  C     0.67913   0.82656   0.81620   0.00000  Uiso   1.00
C2034  C     0.98754   0.84011   0.85047   0.00000  Uiso   1.00
C2035  C     0.80439   0.68401   0.79595   0.00000  Uiso   1.00
C2036  C     0.86227   0.98266   0.87072   0.00000  Uiso   1.00
C2037  C     0.80107   0.97519   0.80003   0.00000  Uiso   1.00
C2038  C     0.86559   0.69148   0.86664   0.00000  Uiso   1.00
C2039  C     0.83143   0.95763   0.83627   0.00000  Uiso   1.00
C2040  C     0.83523   0.70903   0.83040   0.00000  Uiso   1.00
C2041  C     0.86813   0.85698   0.69695   0.00000  Uiso   1.00
C2042  C     0.79854   0.80969   0.96971   0.00000  Uiso   1.00
C2043  C     0.86907   0.85567   0.98266   0.00000  Uiso   1.00
C2044  C     0.79760   0.81100   0.68401   0.00000  Uiso   1.00
N2045  N     0.83332   0.83332   0.95240   0.00000  Uiso   1.00
N2046  N     0.83335   0.83334   0.71427   0.00000  Uiso   1.00
O2047  O     0.83333   0.77225   0.87154   0.00000  Uiso   1.00
O2048  O     0.83334   0.89442   0.79513   0.00000  Uiso   1.00
O2049  O     0.83333   0.77226   0.79510   0.00000  Uiso   1.00
O2050  O     0.83334   0.89441   0.87157   0.00000  Uiso   1.00
O2051  O     0.75725   0.83333   0.86261   0.00000  Uiso   1.00
O2052  O     0.90942   0.83334   0.80405   0.00000  Uiso   1.00
O2053  O     0.75725   0.83334   0.78617   0.00000  Uiso   1.00
O2054  O     0.90942   0.83333   0.88050   0.00000  Uiso   1.00
Zn2055 Zn    0.83333   0.83333   0.88437   0.00000  Uiso   1.00
Zn2056 Zn    0.83333   0.83334   0.78229   0.00000  Uiso   1.00
C2057  C     0.98787   0.79763   0.77862   0.00000  Uiso   1.00
C2058  C     0.97819   0.80998   0.73376   0.00000  Uiso   1.00
C2059  C     0.94937   0.78445   0.69948   0.00000  Uiso   1.00
C2060  C     0.92951   0.74686   0.71003   0.00000  Uiso   1.00
C2061  C     0.94077   0.73371   0.75442   0.00000  Uiso   1.00
C2062  C     0.96961   0.75906   0.78866   0.00000  Uiso   1.00
H2063  H     0.99272   0.83943   0.72543   0.00000  Uiso   1.00
H2064  H     0.94239   0.79376   0.99809   0.00000  Uiso   1.00
H2065  H     0.90752   0.72716   0.68321   0.00000  Uiso   1.00
H2066  H     0.92793   0.70371   0.76246   0.00000  Uiso   1.00
H2067  H     0.97701   0.74900   0.82313   0.00000  Uiso   1.00
C2068  C     0.67879   0.86904   0.88805   0.00000  Uiso   1.00
C2069  C     0.69703   0.90762   0.87801   0.00000  Uiso   1.00
C2070  C     0.72585   0.93297   0.91226   0.00000  Uiso   1.00
C2071  C     0.73712   0.91983   0.95665   0.00000  Uiso   1.00
C2072  C     0.71729   0.88223   0.96719   0.00000  Uiso   1.00
C2073  C     0.68849   0.85668   0.93291   0.00000  Uiso   1.00
H2074  H     0.68963   0.91767   0.84354   0.00000  Uiso   1.00
H2075  H     0.73867   0.96298   0.90422   0.00000  Uiso   1.00
H2076  H     0.75909   0.93953   0.98346   0.00000  Uiso   1.00
H2077  H     0.72428   0.87291   0.66857   0.00000  Uiso   1.00
H2078  H     0.67396   0.82723   0.94124   0.00000  Uiso   1.00
C2079  C     0.78020   0.69908   0.75227   0.00000  Uiso   1.00
C2080  C     0.72707   0.69993   0.74210   0.00000  Uiso   1.00
C2081  C     0.70341   0.70029   0.69673   0.00000  Uiso   1.00
C2082  C     0.73215   0.70007   0.99473   0.00000  Uiso   1.00
C2083  C     0.78507   0.70094   0.67150   0.00000  Uiso   1.00
C2084  C     0.80881   0.69996   0.71668   0.00000  Uiso   1.00
H2085  H     0.70419   0.69720   0.76884   0.00000  Uiso   1.00
H2086  H     0.99612   0.70019   0.68858   0.00000  Uiso   1.00
H2087  H     0.71334   0.69987   0.95968   0.00000  Uiso   1.00
H2088  H     0.80760   0.70182   0.97772   0.00000  Uiso   1.00
H2089  H     0.84910   0.69661   0.72373   0.00000  Uiso   1.00
C2090  C     0.88645   0.96759   0.91440   0.00000  Uiso   1.00
C2091  C     0.85783   0.96671   0.94998   0.00000  Uiso   1.00
C2092  C     0.88155   0.96572   0.99516   0.00000  Uiso   1.00
C2093  C     0.93447   0.96659   0.67195   0.00000  Uiso   1.00
C2094  C     0.96322   0.96637   0.96996   0.00000  Uiso   1.00
C2095  C     0.93957   0.96673   0.92458   0.00000  Uiso   1.00
H2096  H     0.81753   0.97006   0.94292   0.00000  Uiso   1.00
H2097  H     0.85901   0.96483   0.68894   0.00000  Uiso   1.00
H2098  H     0.95327   0.96679   0.70700   0.00000  Uiso   1.00
H2099  H     0.67051   0.96647   0.97811   0.00000  Uiso   1.00
H2100  H     0.96246   0.96947   0.89785   0.00000  Uiso   1.00
Cl2101 Cl    0.75648   0.94435   0.76003   0.00000  Uiso   1.00
Cl2102 Cl    0.91018   0.72231   0.90664   0.00000  Uiso   1.00
Cl2103 Cl    0.91080   0.89032   0.73392   0.00000  Uiso   1.00
Cl2104 Cl    0.75587   0.77635   0.93275   0.00000  Uiso   1.00
Cl2105 Cl    0.92040   0.87804   0.96301   0.00000  Uiso   1.00
Cl2106 Cl    0.74628   0.78862   0.70365   0.00000  Uiso   1.00
loop_
_geom_bond_atom_site_label_1
_geom_bond_atom_site_label_2
_geom_bond_distance
_geom_bond_site_symmetry_2
_ccdc_geom_bond_type
C1     O21     1.292   .     A
C1     C12     1.456   .     S
C1     O19     1.302   .     A
C2     O22     1.292   .     A
C2     C11     1.456   .     S
C2     O20     1.302   .     A
C3     O23     1.283   .     A
C3     O25     1.303   .     A
C3     C5      1.445   .     S
C4     O24     1.283   .     A
C4     C6      1.445   .     S
C4     O26     1.303   .     A
C5     C162    1.369   1_455 S
C5     C185    1.483   1_455 S
C6     C83     1.369   .     S
C6     C118    1.483   .     S
C7     C12     1.414   .     A
C7     C51     1.473   .     S
C7     C477    1.397   1_545 S
C8     C11     1.414   .     A
C8     C62     1.473   .     S
C8     C244    1.397   .     S
C9     Cl73    1.787   .     S
C9     C11     1.402   .     A
C9     C241    1.397   .     S
C10    C12     1.402   .     A
C10    Cl74    1.787   .     S
C10    C476    1.397   1_545 S
C13    Cl75    1.758   .     S
C13    N18     1.365   .     A
C13    C1419   1.421   1_554 S
C14    N17     1.365   .     A
C14    Cl76    1.758   .     S
C14    C718    1.421   .     S
C15    N17     1.366   .     A
C15    Cl77    1.723   .     S
C15    C715    1.421   .     S
C16    Cl78    1.723   .     S
C16    N18     1.366   .     A
C16    C1418   1.421   1_554 S
N17    Zn27    2.025   .     S
N18    Zn28    2.025   .     S
O19    Zn27    2.025   .     S
O20    Zn28    2.025   .     S
O21    Zn28    2.061   .     S
O22    Zn27    2.061   .     S
O23    Zn27    2.026   .     S
O24    Zn28    2.026   .     S
O25    Zn28    2.047   .     S
O26    Zn27    2.047   .     S
C29    C30     1.402   .     A
C29    C34     1.403   .     A
C29    C83     1.483   .     S
C30    C31     1.397   .     A
C30    H35     1.083   .     S
C31    C32     1.394   .     A
C31    H1440   1.081   1_554 S
C32    H37     1.082   .     S
C32    C33     1.400   .     A
C33    C34     1.393   .     A
C33    H38     1.081   .     S
C34    H39     1.083   .     S
H36    C733    1.081   .     S
C40    C45     1.402   .     A
C40    C41     1.403   .     A
C40    C162    1.483   1_455 S
C41    C42     1.393   .     A
C41    H46     1.083   .     S
C42    C43     1.400   .     A
C42    H47     1.081   .     S
C43    H48     1.082   .     S
C43    C44     1.394   .     A
C44    C45     1.397   .     A
C44    H751    1.081   .     S
C45    H50     1.083   .     S
H49    C1448   1.081   1_554 S
C51    C56     1.401   .     A
C51    C52     1.400   .     A
C52    C53     1.397   .     A
C52    H57     1.082   .     S
C53    C1458   1.396   1_554 S
C53    H214    1.070   1_455 S
C54    H59     1.082   .     S
C54    C755    1.396   .     S
C54    C757    1.392   .     S
C55    C56     1.394   .     A
C55    C1458   1.392   1_554 S
C55    H1464   1.081   1_554 S
C56    H61     1.071   .     S
H58    C131    1.070   .     S
H60    C757    1.081   .     S
C62    C67     1.400   .     A
C62    C63     1.401   .     A
C63    H68     1.071   .     S
C63    C64     1.394   .     A
C64    C767    1.392   .     S
C64    H771    1.081   .     S
C65    H70     1.082   .     S
C65    C1468   1.392   1_554 S
C65    C1470   1.396   1_554 S
C66    C67     1.397   .     A
C66    C767    1.396   .     S
C66    H149    1.070   .     S
C67    H72     1.082   .     S
H69    C1468   1.081   1_554 S
H71    C222    1.070   1_455 S
C79    O99     1.292   .     A
C79    C90     1.456   .     S
C79    O97     1.302   .     A
C80    O100    1.292   .     A
C80    C89     1.456   .     S
C80    O98     1.302   .     A
C81    O101    1.283   .     A
C81    O103    1.303   .     A
C81    C83     1.445   .     S
C82    O102    1.283   .     A
C82    C84     1.445   .     S
C82    O104    1.303   .     A
C84    C161    1.369   .     S
C84    C196    1.483   .     S
C85    C90     1.414   .     A
C85    C129    1.473   .     S
C85    C555    1.397   1_545 S
C86    C89     1.414   .     A
C86    C140    1.473   .     S
C86    C322    1.397   .     S
C87    Cl151   1.787   .     S
C87    C89     1.402   .     A
C87    C319    1.397   .     S
C88    C90     1.402   .     A
C88    Cl152   1.787   .     S
C88    C554    1.397   1_545 S
C91    Cl153   1.758   .     S
C91    N96     1.365   .     A
C91    C1497   1.421   1_554 S
C92    N95     1.365   .     A
C92    Cl154   1.758   .     S
C92    C796    1.421   .     S
C93    N95     1.366   .     A
C93    Cl155   1.723   .     S
C93    C793    1.421   .     S
C94    Cl156   1.723   .     S
C94    N96     1.366   .     A
C94    C1496   1.421   1_554 S
N95    Zn105   2.025   .     S
N96    Zn106   2.025   .     S
O97    Zn105   2.025   .     S
O98    Zn106   2.025   .     S
O99    Zn106   2.061   .     S
O100   Zn105   2.061   .     S
O101   Zn105   2.026   .     S
O102   Zn106   2.026   .     S
O103   Zn106   2.047   .     S
O104   Zn105   2.047   .     S
C107   C108    1.402   .     A
C107   C112    1.403   .     A
C107   C161    1.483   .     S
C108   C109    1.397   .     A
C108   H113    1.083   .     S
C109   C110    1.394   .     A
C109   H1518   1.081   1_554 S
C110   H115    1.082   .     S
C110   C111    1.400   .     A
C111   C112    1.393   .     A
C111   H116    1.081   .     S
C112   H117    1.083   .     S
H114   C811    1.081   .     S
C118   C123    1.402   .     A
C118   C119    1.403   .     A
C119   C120    1.393   .     A
C119   H124    1.083   .     S
C120   C121    1.400   .     A
C120   H125    1.081   .     S
C121   H126    1.082   .     S
C121   C122    1.394   .     A
C122   C123    1.397   .     A
C122   H829    1.081   .     S
C123   H128    1.083   .     S
H127   C1526   1.081   1_554 S
C129   C134    1.401   .     A
C129   C130    1.400   .     A
C130   C131    1.397   .     A
C130   H135    1.082   .     S
C131   C1536   1.396   1_554 S
C132   H137    1.082   .     S
C132   C833    1.396   .     S
C132   C835    1.392   .     S
C133   C134    1.394   .     A
C133   C1536   1.392   1_554 S
C133   H1542   1.081   1_554 S
C134   H139    1.071   .     S
H136   C209    1.070   .     S
H138   C835    1.081   .     S
C140   C145    1.400   .     A
C140   C141    1.401   .     A
C141   H146    1.071   .     S
C141   C142    1.394   .     A
C142   C845    1.392   .     S
C142   H849    1.081   .     S
C143   H148    1.082   .     S
C143   C1546   1.392   1_554 S
C143   C1548   1.396   1_554 S
C144   C145    1.397   .     A
C144   C845    1.396   .     S
C144   H227    1.070   .     S
C145   H150    1.082   .     S
H147   C1546   1.081   1_554 S
C157   O177    1.292   .     A
C157   C168    1.456   .     S
C157   O175    1.302   .     A
C158   O178    1.292   .     A
C158   C167    1.456   .     S
C158   O176    1.302   .     A
C159   O179    1.283   .     A
C159   O181    1.303   .     A
C159   C161    1.445   .     S
C160   O180    1.283   .     A
C160   C162    1.445   .     S
C160   O182    1.303   .     A
C162   C5      1.369   1_655 S
C162   C40     1.483   1_655 S
C163   C168    1.414   .     A
C163   C207    1.473   .     S
C163   C633    1.397   1_545 S
C164   C167    1.414   .     A
C164   C218    1.473   .     S
C164   C400    1.397   .     S
C165   Cl229   1.787   .     S
C165   C167    1.402   .     A
C165   C397    1.397   .     S
C166   C168    1.402   .     A
C166   Cl230   1.787   .     S
C166   C632    1.397   1_545 S
C169   Cl231   1.758   .     S
C169   N174    1.365   .     A
C169   C1575   1.421   1_554 S
C170   N173    1.365   .     A
C170   Cl232   1.758   .     S
C170   C874    1.421   .     S
C171   N173    1.366   .     A
C171   Cl233   1.723   .     S
C171   C871    1.421   .     S
C172   Cl234   1.723   .     S
C172   N174    1.366   .     A
C172   C1574   1.421   1_554 S
N173   Zn183   2.025   .     S
N174   Zn184   2.025   .     S
O175   Zn183   2.025   .     S
O176   Zn184   2.025   .     S
O177   Zn184   2.061   .     S
O178   Zn183   2.061   .     S
O179   Zn183   2.026   .     S
O180   Zn184   2.026   .     S
O181   Zn184   2.047   .     S
O182   Zn183   2.047   .     S
C185   C186    1.402   .     A
C185   C190    1.403   .     A
C185   C5      1.483   1_655 S
C186   C187    1.397   .     A
C186   H191    1.083   .     S
C187   C188    1.394   .     A
C187   H1596   1.081   1_554 S
C188   H193    1.082   .     S
C188   C189    1.400   .     A
C189   C190    1.393   .     A
C189   H194    1.081   .     S
C190   H195    1.083   .     S
H192   C889    1.081   .     S
C196   C201    1.402   .     A
C196   C197    1.403   .     A
C197   C198    1.393   .     A
C197   H202    1.083   .     S
C198   C199    1.400   .     A
C198   H203    1.081   .     S
C199   H204    1.082   .     S
C199   C200    1.394   .     A
C200   C201    1.397   .     A
C200   H907    1.081   .     S
C201   H206    1.083   .     S
H205   C1604   1.081   1_554 S
C207   C212    1.401   .     A
C207   C208    1.400   .     A
C208   C209    1.397   .     A
C208   H213    1.082   .     S
C209   C1614   1.396   1_554 S
C210   H215    1.082   .     S
C210   C911    1.396   .     S
C210   C913    1.392   .     S
C211   C212    1.394   .     A
C211   C1614   1.392   1_554 S
C211   H1620   1.081   1_554 S
C212   H217    1.071   .     S
H214   C53     1.070   1_655 S
H216   C913    1.081   .     S
C218   C223    1.400   .     A
C218   C219    1.401   .     A
C219   H224    1.071   .     S
C219   C220    1.394   .     A
C220   C923    1.392   .     S
C220   H927    1.081   .     S
C221   H226    1.082   .     S
C221   C1624   1.392   1_554 S
C221   C1626   1.396   1_554 S
C222   C223    1.397   .     A
C222   C923    1.396   .     S
C222   H71     1.070   1_655 S
C223   H228    1.082   .     S
H225   C1624   1.081   1_554 S
C235   O255    1.292   .     A
C235   C246    1.456   .     S
C235   O253    1.302   .     A
C236   O256    1.292   .     A
C236   C245    1.456   .     S
C236   O254    1.302   .     A
C237   O257    1.283   .     A
C237   O259    1.303   .     A
C237   C239    1.445   .     S
C238   O258    1.283   .     A
C238   C240    1.445   .     S
C238   O260    1.303   .     A
C239   C396    1.369   1_455 S
C239   C419    1.483   1_455 S
C240   C317    1.369   .     S
C240   C352    1.483   .     S
C241   C246    1.414   .     A
C241   C285    1.473   .     S
C242   C245    1.414   .     A
C242   C296    1.473   .     S
C242   C478    1.397   .     S
C243   Cl307   1.787   .     S
C243   C245    1.402   .     A
C243   C475    1.397   .     S
C244   C246    1.402   .     A
C244   Cl308   1.787   .     S
C247   Cl309   1.758   .     S
C247   N252    1.365   .     A
C247   C1653   1.421   1_554 S
C248   N251    1.365   .     A
C248   Cl310   1.758   .     S
C248   C952    1.421   .     S
C249   N251    1.366   .     A
C249   Cl311   1.723   .     S
C249   C949    1.421   .     S
C250   Cl312   1.723   .     S
C250   N252    1.366   .     A
C250   C1652   1.421   1_554 S
N251   Zn261   2.025   .     S
N252   Zn262   2.025   .     S
O253   Zn261   2.025   .     S
O254   Zn262   2.025   .     S
O255   Zn262   2.061   .     S
O256   Zn261   2.061   .     S
O257   Zn261   2.026   .     S
O258   Zn262   2.026   .     S
O259   Zn262   2.047   .     S
O260   Zn261   2.047   .     S
C263   C264    1.402   .     A
C263   C268    1.403   .     A
C263   C317    1.483   .     S
C264   C265    1.397   .     A
C264   H269    1.083   .     S
C265   C266    1.394   .     A
C265   H1674   1.081   1_554 S
C266   H271    1.082   .     S
C266   C267    1.400   .     A
C267   C268    1.393   .     A
C267   H272    1.081   .     S
C268   H273    1.083   .     S
H270   C967    1.081   .     S
C274   C279    1.402   .     A
C274   C275    1.403   .     A
C274   C396    1.483   1_455 S
C275   C276    1.393   .     A
C275   H280    1.083   .     S
C276   C277    1.400   .     A
C276   H281    1.081   .     S
C277   H282    1.082   .     S
C277   C278    1.394   .     A
C278   C279    1.397   .     A
C278   H985    1.081   .     S
C279   H284    1.083   .     S
H283   C1682   1.081   1_554 S
C285   C290    1.401   .     A
C285   C286    1.400   .     A
C286   C287    1.397   .     A
C286   H291    1.082   .     S
C287   C1692   1.396   1_554 S
C287   H448    1.070   1_455 S
C288   H293    1.082   .     S
C288   C989    1.396   .     S
C288   C991    1.392   .     S
C289   C290    1.394   .     A
C289   C1692   1.392   1_554 S
C289   H1698   1.081   1_554 S
C290   H295    1.071   .     S
H292   C365    1.070   .     S
H294   C991    1.081   .     S
C296   C301    1.400   .     A
C296   C297    1.401   .     A
C297   H302    1.071   .     S
C297   C298    1.394   .     A
C298   C1001   1.392   .     S
C298   H1005   1.081   .     S
C299   H304    1.082   .     S
C299   C1702   1.392   1_554 S
C299   C1704   1.396   1_554 S
C300   C301    1.397   .     A
C300   C1001   1.396   .     S
C300   H383    1.070   .     S
C301   H306    1.082   .     S
H303   C1702   1.081   1_554 S
H305   C456    1.070   1_455 S
C313   O333    1.292   .     A
C313   C324    1.456   .     S
C313   O331    1.302   .     A
C314   O334    1.292   .     A
C314   C323    1.456   .     S
C314   O332    1.302   .     A
C315   O335    1.283   .     A
C315   O337    1.303   .     A
C315   C317    1.445   .     S
C316   O336    1.283   .     A
C316   C318    1.445   .     S
C316   O338    1.303   .     A
C318   C395    1.369   .     S
C318   C430    1.483   .     S
C319   C324    1.414   .     A
C319   C363    1.473   .     S
C320   C323    1.414   .     A
C320   C374    1.473   .     S
C320   C556    1.397   .     S
C321   Cl385   1.787   .     S
C321   C323    1.402   .     A
C321   C553    1.397   .     S
C322   C324    1.402   .     A
C322   Cl386   1.787   .     S
C325   Cl387   1.758   .     S
C325   N330    1.365   .     A
C325   C1731   1.421   1_554 S
C326   N329    1.365   .     A
C326   Cl388   1.758   .     S
C326   C1030   1.421   .     S
C327   N329    1.366   .     A
C327   Cl389   1.723   .     S
C327   C1027   1.421   .     S
C328   Cl390   1.723   .     S
C328   N330    1.366   .     A
C328   C1730   1.421   1_554 S
N329   Zn339   2.025   .     S
N330   Zn340   2.025   .     S
O331   Zn339   2.025   .     S
O332   Zn340   2.025   .     S
O333   Zn340   2.061   .     S
O334   Zn339   2.061   .     S
O335   Zn339   2.026   .     S
O336   Zn340   2.026   .     S
O337   Zn340   2.047   .     S
O338   Zn339   2.047   .     S
C341   C342    1.402   .     A
C341   C346    1.403   .     A
C341   C395    1.483   .     S
C342   C343    1.397   .     A
C342   H347    1.083   .     S
C343   C344    1.394   .     A
C343   H1752   1.081   1_554 S
C344   H349    1.082   .     S
C344   C345    1.400   .     A
C345   C346    1.393   .     A
C345   H350    1.081   .     S
C346   H351    1.083   .     S
H348   C1045   1.081   .     S
C352   C357    1.402   .     A
C352   C353    1.403   .     A
C353   C354    1.393   .     A
C353   H358    1.083   .     S
C354   C355    1.400   .     A
C354   H359    1.081   .     S
C355   H360    1.082   .     S
C355   C356    1.394   .     A
C356   C357    1.397   .     A
C356   H1063   1.081   .     S
C357   H362    1.083   .     S
H361   C1760   1.081   1_554 S
C363   C368    1.401   .     A
C363   C364    1.400   .     A
C364   C365    1.397   .     A
C364   H369    1.082   .     S
C365   C1770   1.396   1_554 S
C366   H371    1.082   .     S
C366   C1067   1.396   .     S
C366   C1069   1.392   .     S
C367   C368    1.394   .     A
C367   C1770   1.392   1_554 S
C367   H1776   1.081   1_554 S
C368   H373    1.071   .     S
H370   C443    1.070   .     S
H372   C1069   1.081   .     S
C374   C379    1.400   .     A
C374   C375    1.401   .     A
C375   H380    1.071   .     S
C375   C376    1.394   .     A
C376   C1079   1.392   .     S
C376   H1083   1.081   .     S
C377   H382    1.082   .     S
C377   C1780   1.392   1_554 S
C377   C1782   1.396   1_554 S
C378   C379    1.397   .     A
C378   C1079   1.396   .     S
C378   H461    1.070   .     S
C379   H384    1.082   .     S
H381   C1780   1.081   1_554 S
C391   O411    1.292   .     A
C391   C402    1.456   .     S
C391   O409    1.302   .     A
C392   O412    1.292   .     A
C392   C401    1.456   .     S
C392   O410    1.302   .     A
C393   O413    1.283   .     A
C393   O415    1.303   .     A
C393   C395    1.445   .     S
C394   O414    1.283   .     A
C394   C396    1.445   .     S
C394   O416    1.303   .     A
C396   C239    1.369   1_655 S
C396   C274    1.483   1_655 S
C397   C402    1.414   .     A
C397   C441    1.473   .     S
C398   C401    1.414   .     A
C398   C452    1.473   .     S
C398   C634    1.397   .     S
C399   Cl463   1.787   .     S
C399   C401    1.402   .     A
C399   C631    1.397   .     S
C400   C402    1.402   .     A
C400   Cl464   1.787   .     S
C403   Cl465   1.758   .     S
C403   N408    1.365   .     A
C403   C1809   1.421   1_554 S
C404   N407    1.365   .     A
C404   Cl466   1.758   .     S
C404   C1108   1.421   .     S
C405   N407    1.366   .     A
C405   Cl467   1.723   .     S
C405   C1105   1.421   .     S
C406   Cl468   1.723   .     S
C406   N408    1.366   .     A
C406   C1808   1.421   1_554 S
N407   Zn417   2.025   .     S
N408   Zn418   2.025   .     S
O409   Zn417   2.025   .     S
O410   Zn418   2.025   .     S
O411   Zn418   2.061   .     S
O412   Zn417   2.061   .     S
O413   Zn417   2.026   .     S
O414   Zn418   2.026   .     S
O415   Zn418   2.047   .     S
O416   Zn417   2.047   .     S
C419   C420    1.402   .     A
C419   C424    1.403   .     A
C419   C239    1.483   1_655 S
C420   C421    1.397   .     A
C420   H425    1.083   .     S
C421   C422    1.394   .     A
C421   H1830   1.081   1_554 S
C422   H427    1.082   .     S
C422   C423    1.400   .     A
C423   C424    1.393   .     A
C423   H428    1.081   .     S
C424   H429    1.083   .     S
H426   C1123   1.081   .     S
C430   C435    1.402   .     A
C430   C431    1.403   .     A
C431   C432    1.393   .     A
C431   H436    1.083   .     S
C432   C433    1.400   .     A
C432   H437    1.081   .     S
C433   H438    1.082   .     S
C433   C434    1.394   .     A
C434   C435    1.397   .     A
C434   H1141   1.081   .     S
C435   H440    1.083   .     S
H439   C1838   1.081   1_554 S
C441   C446    1.401   .     A
C441   C442    1.400   .     A
C442   C443    1.397   .     A
C442   H447    1.082   .     S
C443   C1848   1.396   1_554 S
C444   H449    1.082   .     S
C444   C1145   1.396   .     S
C444   C1147   1.392   .     S
C445   C446    1.394   .     A
C445   C1848   1.392   1_554 S
C445   H1854   1.081   1_554 S
C446   H451    1.071   .     S
H448   C287    1.070   1_655 S
H450   C1147   1.081   .     S
C452   C457    1.400   .     A
C452   C453    1.401   .     A
C453   H458    1.071   .     S
C453   C454    1.394   .     A
C454   C1157   1.392   .     S
C454   H1161   1.081   .     S
C455   H460    1.082   .     S
C455   C1858   1.392   1_554 S
C455   C1860   1.396   1_554 S
C456   C457    1.397   .     A
C456   C1157   1.396   .     S
C456   H305    1.070   1_655 S
C457   H462    1.082   .     S
H459   C1858   1.081   1_554 S
C469   O489    1.292   .     A
C469   C480    1.456   .     S
C469   O487    1.302   .     A
C470   O490    1.292   .     A
C470   C479    1.456   .     S
C470   O488    1.302   .     A
C471   O491    1.283   .     A
C471   O493    1.303   .     A
C471   C473    1.445   .     S
C472   O492    1.283   .     A
C472   C474    1.445   .     S
C472   O494    1.303   .     A
C473   C630    1.369   1_455 S
C473   C653    1.483   1_455 S
C474   C551    1.369   .     S
C474   C586    1.483   .     S
C475   C480    1.414   .     A
C475   C519    1.473   .     S
C476   C479    1.414   .     A
C476   C530    1.473   .     S
C476   C10     1.397   1_565 S
C477   Cl541   1.787   .     S
C477   C479    1.402   .     A
C477   C7      1.397   1_565 S
C478   C480    1.402   .     A
C478   Cl542   1.787   .     S
C481   Cl543   1.758   .     S
C481   N486    1.365   .     A
C481   C1887   1.421   1_554 S
C482   N485    1.365   .     A
C482   Cl544   1.758   .     S
C482   C1186   1.421   .     S
C483   N485    1.366   .     A
C483   Cl545   1.723   .     S
C483   C1183   1.421   .     S
C484   Cl546   1.723   .     S
C484   N486    1.366   .     A
C484   C1886   1.421   1_554 S
N485   Zn495   2.025   .     S
N486   Zn496   2.025   .     S
O487   Zn495   2.025   .     S
O488   Zn496   2.025   .     S
O489   Zn496   2.061   .     S
O490   Zn495   2.061   .     S
O491   Zn495   2.026   .     S
O492   Zn496   2.026   .     S
O493   Zn496   2.047   .     S
O494   Zn495   2.047   .     S
C497   C498    1.402   .     A
C497   C502    1.403   .     A
C497   C551    1.483   .     S
C498   C499    1.397   .     A
C498   H503    1.083   .     S
C499   C500    1.394   .     A
C499   H1908   1.081   1_554 S
C500   H505    1.082   .     S
C500   C501    1.400   .     A
C501   C502    1.393   .     A
C501   H506    1.081   .     S
C502   H507    1.083   .     S
H504   C1201   1.081   .     S
C508   C513    1.402   .     A
C508   C509    1.403   .     A
C508   C630    1.483   1_455 S
C509   C510    1.393   .     A
C509   H514    1.083   .     S
C510   C511    1.400   .     A
C510   H515    1.081   .     S
C511   H516    1.082   .     S
C511   C512    1.394   .     A
C512   C513    1.397   .     A
C512   H1219   1.081   .     S
C513   H518    1.083   .     S
H517   C1916   1.081   1_554 S
C519   C524    1.401   .     A
C519   C520    1.400   .     A
C520   C521    1.397   .     A
C520   H525    1.082   .     S
C521   C1926   1.396   1_554 S
C521   H682    1.070   1_455 S
C522   H527    1.082   .     S
C522   C1223   1.396   .     S
C522   C1225   1.392   .     S
C523   C524    1.394   .     A
C523   C1926   1.392   1_554 S
C523   H1932   1.081   1_554 S
C524   H529    1.071   .     S
H526   C599    1.070   .     S
H528   C1225   1.081   .     S
C530   C535    1.400   .     A
C530   C531    1.401   .     A
C531   H536    1.071   .     S
C531   C532    1.394   .     A
C532   C1235   1.392   .     S
C532   H1239   1.081   .     S
C533   H538    1.082   .     S
C533   C1936   1.392   1_554 S
C533   C1938   1.396   1_554 S
C534   C535    1.397   .     A
C534   C1235   1.396   .     S
C534   H617    1.070   .     S
C535   H540    1.082   .     S
H537   C1936   1.081   1_554 S
H539   C690    1.070   1_455 S
C547   O567    1.292   .     A
C547   C558    1.456   .     S
C547   O565    1.302   .     A
C548   O568    1.292   .     A
C548   C557    1.456   .     S
C548   O566    1.302   .     A
C549   O569    1.283   .     A
C549   O571    1.303   .     A
C549   C551    1.445   .     S
C550   O570    1.283   .     A
C550   C552    1.445   .     S
C550   O572    1.303   .     A
C552   C629    1.369   .     S
C552   C664    1.483   .     S
C553   C558    1.414   .     A
C553   C597    1.473   .     S
C554   C557    1.414   .     A
C554   C608    1.473   .     S
C554   C88     1.397   1_565 S
C555   Cl619   1.787   .     S
C555   C557    1.402   .     A
C555   C85     1.397   1_565 S
C556   C558    1.402   .     A
C556   Cl620   1.787   .     S
C559   Cl621   1.758   .     S
C559   N564    1.365   .     A
C559   C1965   1.421   1_554 S
C560   N563    1.365   .     A
C560   Cl622   1.758   .     S
C560   C1264   1.421   .     S
C561   N563    1.366   .     A
C561   Cl623   1.723   .     S
C561   C1261   1.421   .     S
C562   Cl624   1.723   .     S
C562   N564    1.366   .     A
C562   C1964   1.421   1_554 S
N563   Zn573   2.025   .     S
N564   Zn574   2.025   .     S
O565   Zn573   2.025   .     S
O566   Zn574   2.025   .     S
O567   Zn574   2.061   .     S
O568   Zn573   2.061   .     S
O569   Zn573   2.026   .     S
O570   Zn574   2.026   .     S
O571   Zn574   2.047   .     S
O572   Zn573   2.047   .     S
C575   C576    1.402   .     A
C575   C580    1.403   .     A
C575   C629    1.483   .     S
C576   C577    1.397   .     A
C576   H581    1.083   .     S
C577   C578    1.394   .     A
C577   H1986   1.081   1_554 S
C578   H583    1.082   .     S
C578   C579    1.400   .     A
C579   C580    1.393   .     A
C579   H584    1.081   .     S
C580   H585    1.083   .     S
H582   C1279   1.081   .     S
C586   C591    1.402   .     A
C586   C587    1.403   .     A
C587   C588    1.393   .     A
C587   H592    1.083   .     S
C588   C589    1.400   .     A
C588   H593    1.081   .     S
C589   H594    1.082   .     S
C589   C590    1.394   .     A
C590   C591    1.397   .     A
C590   H1297   1.081   .     S
C591   H596    1.083   .     S
H595   C1994   1.081   1_554 S
C597   C602    1.401   .     A
C597   C598    1.400   .     A
C598   C599    1.397   .     A
C598   H603    1.082   .     S
C599   C2004   1.396   1_554 S
C600   H605    1.082   .     S
C600   C1301   1.396   .     S
C600   C1303   1.392   .     S
C601   C602    1.394   .     A
C601   C2004   1.392   1_554 S
C601   H2010   1.081   1_554 S
C602   H607    1.071   .     S
H604   C677    1.070   .     S
H606   C1303   1.081   .     S
C608   C613    1.400   .     A
C608   C609    1.401   .     A
C609   H614    1.071   .     S
C609   C610    1.394   .     A
C610   C1313   1.392   .     S
C610   H1317   1.081   .     S
C611   H616    1.082   .     S
C611   C2014   1.392   1_554 S
C611   C2016   1.396   1_554 S
C612   C613    1.397   .     A
C612   C1313   1.396   .     S
C612   H695    1.070   .     S
C613   H618    1.082   .     S
H615   C2014   1.081   1_554 S
C625   O645    1.292   .     A
C625   C636    1.456   .     S
C625   O643    1.302   .     A
C626   O646    1.292   .     A
C626   C635    1.456   .     S
C626   O644    1.302   .     A
C627   O647    1.283   .     A
C627   O649    1.303   .     A
C627   C629    1.445   .     S
C628   O648    1.283   .     A
C628   C630    1.445   .     S
C628   O650    1.303   .     A
C630   C473    1.369   1_655 S
C630   C508    1.483   1_655 S
C631   C636    1.414   .     A
C631   C675    1.473   .     S
C632   C635    1.414   .     A
C632   C686    1.473   .     S
C632   C166    1.397   1_565 S
C633   Cl697   1.787   .     S
C633   C635    1.402   .     A
C633   C163    1.397   1_565 S
C634   C636    1.402   .     A
C634   Cl698   1.787   .     S
C637   Cl699   1.758   .     S
C637   N642    1.365   .     A
C637   C2043   1.421   1_554 S
C638   N641    1.365   .     A
C638   Cl700   1.758   .     S
C638   C1342   1.421   .     S
C639   N641    1.366   .     A
C639   Cl701   1.723   .     S
C639   C1339   1.421   .     S
C640   Cl702   1.723   .     S
C640   N642    1.366   .     A
C640   C2042   1.421   1_554 S
N641   Zn651   2.025   .     S
N642   Zn652   2.025   .     S
O643   Zn651   2.025   .     S
O644   Zn652   2.025   .     S
O645   Zn652   2.061   .     S
O646   Zn651   2.061   .     S
O647   Zn651   2.026   .     S
O648   Zn652   2.026   .     S
O649   Zn652   2.047   .     S
O650   Zn651   2.047   .     S
C653   C654    1.402   .     A
C653   C658    1.403   .     A
C653   C473    1.483   1_655 S
C654   C655    1.397   .     A
C654   H659    1.083   .     S
C655   C656    1.394   .     A
C655   H2064   1.081   1_554 S
C656   H661    1.082   .     S
C656   C657    1.400   .     A
C657   C658    1.393   .     A
C657   H662    1.081   .     S
C658   H663    1.083   .     S
H660   C1357   1.081   .     S
C664   C669    1.402   .     A
C664   C665    1.403   .     A
C665   C666    1.393   .     A
C665   H670    1.083   .     S
C666   C667    1.400   .     A
C666   H671    1.081   .     S
C667   H672    1.082   .     S
C667   C668    1.394   .     A
C668   C669    1.397   .     A
C668   H1375   1.081   .     S
C669   H674    1.083   .     S
H673   C2072   1.081   1_554 S
C675   C680    1.401   .     A
C675   C676    1.400   .     A
C676   C677    1.397   .     A
C676   H681    1.082   .     S
C677   C2082   1.396   1_554 S
C678   H683    1.082   .     S
C678   C1379   1.396   .     S
C678   C1381   1.392   .     S
C679   C680    1.394   .     A
C679   C2082   1.392   1_554 S
C679   H2088   1.081   1_554 S
C680   H685    1.071   .     S
H682   C521    1.070   1_655 S
H684   C1381   1.081   .     S
C686   C691    1.400   .     A
C686   C687    1.401   .     A
C687   H692    1.071   .     S
C687   C688    1.394   .     A
C688   C1391   1.392   .     S
C688   H1395   1.081   .     S
C689   H694    1.082   .     S
C689   C2092   1.392   1_554 S
C689   C2094   1.396   1_554 S
C690   C691    1.397   .     A
C690   C1391   1.396   .     S
C690   H539    1.070   1_655 S
C691   H696    1.082   .     S
H693   C2092   1.081   1_554 S
C703   O723    1.292   .     A
C703   C714    1.456   .     S
C703   O721    1.302   .     A
C704   O724    1.292   .     A
C704   C713    1.456   .     S
C704   O722    1.302   .     A
C705   O725    1.283   .     A
C705   O727    1.303   .     A
C705   C707    1.445   .     S
C706   O726    1.283   .     A
C706   C708    1.445   .     S
C706   O728    1.303   .     A
C707   C864    1.369   1_455 S
C707   C887    1.483   1_455 S
C708   C785    1.369   .     S
C708   C820    1.483   .     S
C709   C714    1.414   .     A
C709   C753    1.473   .     S
C709   C1179   1.397   1_545 S
C710   C713    1.414   .     A
C710   C764    1.473   .     S
C710   C946    1.397   .     S
C711   Cl775   1.787   .     S
C711   C713    1.402   .     A
C711   C943    1.397   .     S
C712   C714    1.402   .     A
C712   Cl776   1.787   .     S
C712   C1178   1.397   1_545 S
C715   Cl777   1.758   .     S
C715   N720    1.365   .     A
C716   N719    1.365   .     A
C716   Cl778   1.758   .     S
C716   C1420   1.421   .     S
C717   N719    1.366   .     A
C717   Cl779   1.723   .     S
C717   C1417   1.421   .     S
C718   Cl780   1.723   .     S
C718   N720    1.366   .     A
N719   Zn729   2.025   .     S
N720   Zn730   2.025   .     S
O721   Zn729   2.025   .     S
O722   Zn730   2.025   .     S
O723   Zn730   2.061   .     S
O724   Zn729   2.061   .     S
O725   Zn729   2.026   .     S
O726   Zn730   2.026   .     S
O727   Zn730   2.047   .     S
O728   Zn729   2.047   .     S
C731   C732    1.402   .     A
C731   C736    1.403   .     A
C731   C785    1.483   .     S
C732   C733    1.397   .     A
C732   H737    1.083   .     S
C733   C734    1.394   .     A
C734   H739    1.082   .     S
C734   C735    1.400   .     A
C735   C736    1.393   .     A
C735   H740    1.081   .     S
C736   H741    1.083   .     S
H738   C1435   1.081   .     S
C742   C747    1.402   .     A
C742   C743    1.403   .     A
C742   C864    1.483   1_455 S
C743   C744    1.393   .     A
C743   H748    1.083   .     S
C744   C745    1.400   .     A
C744   H749    1.081   .     S
C745   H750    1.082   .     S
C745   C746    1.394   .     A
C746   C747    1.397   .     A
C746   H1453   1.081   .     S
C747   H752    1.083   .     S
C753   C758    1.401   .     A
C753   C754    1.400   .     A
C754   C755    1.397   .     A
C754   H759    1.082   .     S
C755   H916    1.070   1_455 S
C756   H761    1.082   .     S
C756   C1457   1.396   .     S
C756   C1459   1.392   .     S
C757   C758    1.394   .     A
C758   H763    1.071   .     S
H760   C833    1.070   .     S
H762   C1459   1.081   .     S
C764   C769    1.400   .     A
C764   C765    1.401   .     A
C765   H770    1.071   .     S
C765   C766    1.394   .     A
C766   C1469   1.392   .     S
C766   H1473   1.081   .     S
C767   H772    1.082   .     S
C768   C769    1.397   .     A
C768   C1469   1.396   .     S
C768   H851    1.070   .     S
C769   H774    1.082   .     S
H773   C924    1.070   1_455 S
C781   O801    1.292   .     A
C781   C792    1.456   .     S
C781   O799    1.302   .     A
C782   O802    1.292   .     A
C782   C791    1.456   .     S
C782   O800    1.302   .     A
C783   O803    1.283   .     A
C783   O805    1.303   .     A
C783   C785    1.445   .     S
C784   O804    1.283   .     A
C784   C786    1.445   .     S
C784   O806    1.303   .     A
C786   C863    1.369   .     S
C786   C898    1.483   .     S
C787   C792    1.414   .     A
C787   C831    1.473   .     S
C787   C1257   1.397   1_545 S
C788   C791    1.414   .     A
C788   C842    1.473   .     S
C788   C1024   1.397   .     S
C789   Cl853   1.787   .     S
C789   C791    1.402   .     A
C789   C1021   1.397   .     S
C790   C792    1.402   .     A
C790   Cl854   1.787   .     S
C790   C1256   1.397   1_545 S
C793   Cl855   1.758   .     S
C793   N798    1.365   .     A
C794   N797    1.365   .     A
C794   Cl856   1.758   .     S
C794   C1498   1.421   .     S
C795   N797    1.366   .     A
C795   Cl857   1.723   .     S
C795   C1495   1.421   .     S
C796   Cl858   1.723   .     S
C796   N798    1.366   .     A
N797   Zn807   2.025   .     S
N798   Zn808   2.025   .     S
O799   Zn807   2.025   .     S
O800   Zn808   2.025   .     S
O801   Zn808   2.061   .     S
O802   Zn807   2.061   .     S
O803   Zn807   2.026   .     S
O804   Zn808   2.026   .     S
O805   Zn808   2.047   .     S
O806   Zn807   2.047   .     S
C809   C810    1.402   .     A
C809   C814    1.403   .     A
C809   C863    1.483   .     S
C810   C811    1.397   .     A
C810   H815    1.083   .     S
C811   C812    1.394   .     A
C812   H817    1.082   .     S
C812   C813    1.400   .     A
C813   C814    1.393   .     A
C813   H818    1.081   .     S
C814   H819    1.083   .     S
H816   C1513   1.081   .     S
C820   C825    1.402   .     A
C820   C821    1.403   .     A
C821   C822    1.393   .     A
C821   H826    1.083   .     S
C822   C823    1.400   .     A
C822   H827    1.081   .     S
C823   H828    1.082   .     S
C823   C824    1.394   .     A
C824   C825    1.397   .     A
C824   H1531   1.081   .     S
C825   H830    1.083   .     S
C831   C836    1.401   .     A
C831   C832    1.400   .     A
C832   C833    1.397   .     A
C832   H837    1.082   .     S
C834   H839    1.082   .     S
C834   C1535   1.396   .     S
C834   C1537   1.392   .     S
C835   C836    1.394   .     A
C836   H841    1.071   .     S
H838   C911    1.070   .     S
H840   C1537   1.081   .     S
C842   C847    1.400   .     A
C842   C843    1.401   .     A
C843   H848    1.071   .     S
C843   C844    1.394   .     A
C844   C1547   1.392   .     S
C844   H1551   1.081   .     S
C845   H850    1.082   .     S
C846   C847    1.397   .     A
C846   C1547   1.396   .     S
C846   H929    1.070   .     S
C847   H852    1.082   .     S
C859   O879    1.292   .     A
C859   C870    1.456   .     S
C859   O877    1.302   .     A
C860   O880    1.292   .     A
C860   C869    1.456   .     S
C860   O878    1.302   .     A
C861   O881    1.283   .     A
C861   O883    1.303   .     A
C861   C863    1.445   .     S
C862   O882    1.283   .     A
C862   C864    1.445   .     S
C862   O884    1.303   .     A
C864   C707    1.369   1_655 S
C864   C742    1.483   1_655 S
C865   C870    1.414   .     A
C865   C909    1.473   .     S
C865   C1335   1.397   1_545 S
C866   C869    1.414   .     A
C866   C920    1.473   .     S
C866   C1102   1.397   .     S
C867   Cl931   1.787   .     S
C867   C869    1.402   .     A
C867   C1099   1.397   .     S
C868   C870    1.402   .     A
C868   Cl932   1.787   .     S
C868   C1334   1.397   1_545 S
C871   Cl933   1.758   .     S
C871   N876    1.365   .     A
C872   N875    1.365   .     A
C872   Cl934   1.758   .     S
C872   C1576   1.421   .     S
C873   N875    1.366   .     A
C873   Cl935   1.723   .     S
C873   C1573   1.421   .     S
C874   Cl936   1.723   .     S
C874   N876    1.366   .     A
N875   Zn885   2.025   .     S
N876   Zn886   2.025   .     S
O877   Zn885   2.025   .     S
O878   Zn886   2.025   .     S
O879   Zn886   2.061   .     S
O880   Zn885   2.061   .     S
O881   Zn885   2.026   .     S
O882   Zn886   2.026   .     S
O883   Zn886   2.047   .     S
O884   Zn885   2.047   .     S
C887   C888    1.402   .     A
C887   C892    1.403   .     A
C887   C707    1.483   1_655 S
C888   C889    1.397   .     A
C888   H893    1.083   .     S
C889   C890    1.394   .     A
C890   H895    1.082   .     S
C890   C891    1.400   .     A
C891   C892    1.393   .     A
C891   H896    1.081   .     S
C892   H897    1.083   .     S
H894   C1591   1.081   .     S
C898   C903    1.402   .     A
C898   C899    1.403   .     A
C899   C900    1.393   .     A
C899   H904    1.083   .     S
C900   C901    1.400   .     A
C900   H905    1.081   .     S
C901   H906    1.082   .     S
C901   C902    1.394   .     A
C902   C903    1.397   .     A
C902   H1609   1.081   .     S
C903   H908    1.083   .     S
C909   C914    1.401   .     A
C909   C910    1.400   .     A
C910   C911    1.397   .     A
C910   H915    1.082   .     S
C912   H917    1.082   .     S
C912   C1613   1.396   .     S
C912   C1615   1.392   .     S
C913   C914    1.394   .     A
C914   H919    1.071   .     S
H916   C755    1.070   1_655 S
H918   C1615   1.081   .     S
C920   C925    1.400   .     A
C920   C921    1.401   .     A
C921   H926    1.071   .     S
C921   C922    1.394   .     A
C922   C1625   1.392   .     S
C922   H1629   1.081   .     S
C923   H928    1.082   .     S
C924   C925    1.397   .     A
C924   C1625   1.396   .     S
C924   H773    1.070   1_655 S
C925   H930    1.082   .     S
C937   O957    1.292   .     A
C937   C948    1.456   .     S
C937   O955    1.302   .     A
C938   O958    1.292   .     A
C938   C947    1.456   .     S
C938   O956    1.302   .     A
C939   O959    1.283   .     A
C939   O961    1.303   .     A
C939   C941    1.445   .     S
C940   O960    1.283   .     A
C940   C942    1.445   .     S
C940   O962    1.303   .     A
C941   C1098   1.369   1_455 S
C941   C1121   1.483   1_455 S
C942   C1019   1.369   .     S
C942   C1054   1.483   .     S
C943   C948    1.414   .     A
C943   C987    1.473   .     S
C944   C947    1.414   .     A
C944   C998    1.473   .     S
C944   C1180   1.397   .     S
C945   Cl1009  1.787   .     S
C945   C947    1.402   .     A
C945   C1177   1.397   .     S
C946   C948    1.402   .     A
C946   Cl1010  1.787   .     S
C949   Cl1011  1.758   .     S
C949   N954    1.365   .     A
C950   N953    1.365   .     A
C950   Cl1012  1.758   .     S
C950   C1654   1.421   .     S
C951   N953    1.366   .     A
C951   Cl1013  1.723   .     S
C951   C1651   1.421   .     S
C952   Cl1014  1.723   .     S
C952   N954    1.366   .     A
N953   Zn963   2.025   .     S
N954   Zn964   2.025   .     S
O955   Zn963   2.025   .     S
O956   Zn964   2.025   .     S
O957   Zn964   2.061   .     S
O958   Zn963   2.061   .     S
O959   Zn963   2.026   .     S
O960   Zn964   2.026   .     S
O961   Zn964   2.047   .     S
O962   Zn963   2.047   .     S
C965   C966    1.402   .     A
C965   C970    1.403   .     A
C965   C1019   1.483   .     S
C966   C967    1.397   .     A
C966   H971    1.083   .     S
C967   C968    1.394   .     A
C968   H973    1.082   .     S
C968   C969    1.400   .     A
C969   C970    1.393   .     A
C969   H974    1.081   .     S
C970   H975    1.083   .     S
H972   C1669   1.081   .     S
C976   C981    1.402   .     A
C976   C977    1.403   .     A
C976   C1098   1.483   1_455 S
C977   C978    1.393   .     A
C977   H982    1.083   .     S
C978   C979    1.400   .     A
C978   H983    1.081   .     S
C979   H984    1.082   .     S
C979   C980    1.394   .     A
C980   C981    1.397   .     A
C980   H1687   1.081   .     S
C981   H986    1.083   .     S
C987   C992    1.401   .     A
C987   C988    1.400   .     A
C988   C989    1.397   .     A
C988   H993    1.082   .     S
C989   H1150   1.070   1_455 S
C990   H995    1.082   .     S
C990   C1691   1.396   .     S
C990   C1693   1.392   .     S
C991   C992    1.394   .     A
C992   H997    1.071   .     S
H994   C1067   1.070   .     S
H996   C1693   1.081   .     S
C998   C1003   1.400   .     A
C998   C999    1.401   .     A
C999   H1004   1.071   .     S
C999   C1000   1.394   .     A
C1000  C1703   1.392   .     S
C1000  H1707   1.081   .     S
C1001  H1006   1.082   .     S
C1002  C1003   1.397   .     A
C1002  C1703   1.396   .     S
C1002  H1085   1.070   .     S
C1003  H1008   1.082   .     S
H1007  C1158   1.070   1_455 S
C1015  O1035   1.292   .     A
C1015  C1026   1.456   .     S
C1015  O1033   1.302   .     A
C1016  O1036   1.292   .     A
C1016  C1025   1.456   .     S
C1016  O1034   1.302   .     A
C1017  O1037   1.283   .     A
C1017  O1039   1.303   .     A
C1017  C1019   1.445   .     S
C1018  O1038   1.283   .     A
C1018  C1020   1.445   .     S
C1018  O1040   1.303   .     A
C1020  C1097   1.369   .     S
C1020  C1132   1.483   .     S
C1021  C1026   1.414   .     A
C1021  C1065   1.473   .     S
C1022  C1025   1.414   .     A
C1022  C1076   1.473   .     S
C1022  C1258   1.397   .     S
C1023  Cl1087  1.787   .     S
C1023  C1025   1.402   .     A
C1023  C1255   1.397   .     S
C1024  C1026   1.402   .     A
C1024  Cl1088  1.787   .     S
C1027  Cl1089  1.758   .     S
C1027  N1032   1.365   .     A
C1028  N1031   1.365   .     A
C1028  Cl1090  1.758   .     S
C1028  C1732   1.421   .     S
C1029  N1031   1.366   .     A
C1029  Cl1091  1.723   .     S
C1029  C1729   1.421   .     S
C1030  Cl1092  1.723   .     S
C1030  N1032   1.366   .     A
N1031  Zn1041  2.025   .     S
N1032  Zn1042  2.025   .     S
O1033  Zn1041  2.025   .     S
O1034  Zn1042  2.025   .     S
O1035  Zn1042  2.061   .     S
O1036  Zn1041  2.061   .     S
O1037  Zn1041  2.026   .     S
O1038  Zn1042  2.026   .     S
O1039  Zn1042  2.047   .     S
O1040  Zn1041  2.047   .     S
C1043  C1044   1.402   .     A
C1043  C1048   1.403   .     A
C1043  C1097   1.483   .     S
C1044  C1045   1.397   .     A
C1044  H1049   1.083   .     S
C1045  C1046   1.394   .     A
C1046  H1051   1.082   .     S
C1046  C1047   1.400   .     A
C1047  C1048   1.393   .     A
C1047  H1052   1.081   .     S
C1048  H1053   1.083   .     S
H1050  C1747   1.081   .     S
C1054  C1059   1.402   .     A
C1054  C1055   1.403   .     A
C1055  C1056   1.393   .     A
C1055  H1060   1.083   .     S
C1056  C1057   1.400   .     A
C1056  H1061   1.081   .     S
C1057  H1062   1.082   .     S
C1057  C1058   1.394   .     A
C1058  C1059   1.397   .     A
C1058  H1765   1.081   .     S
C1059  H1064   1.083   .     S
C1065  C1070   1.401   .     A
C1065  C1066   1.400   .     A
C1066  C1067   1.397   .     A
C1066  H1071   1.082   .     S
C1068  H1073   1.082   .     S
C1068  C1769   1.396   .     S
C1068  C1771   1.392   .     S
C1069  C1070   1.394   .     A
C1070  H1075   1.071   .     S
H1072  C1145   1.070   .     S
H1074  C1771   1.081   .     S
C1076  C1081   1.400   .     A
C1076  C1077   1.401   .     A
C1077  H1082   1.071   .     S
C1077  C1078   1.394   .     A
C1078  C1781   1.392   .     S
C1078  H1785   1.081   .     S
C1079  H1084   1.082   .     S
C1080  C1081   1.397   .     A
C1080  C1781   1.396   .     S
C1080  H1163   1.070   .     S
C1081  H1086   1.082   .     S
C1093  O1113   1.292   .     A
C1093  C1104   1.456   .     S
C1093  O1111   1.302   .     A
C1094  O1114   1.292   .     A
C1094  C1103   1.456   .     S
C1094  O1112   1.302   .     A
C1095  O1115   1.283   .     A
C1095  O1117   1.303   .     A
C1095  C1097   1.445   .     S
C1096  O1116   1.283   .     A
C1096  C1098   1.445   .     S
C1096  O1118   1.303   .     A
C1098  C941    1.369   1_655 S
C1098  C976    1.483   1_655 S
C1099  C1104   1.414   .     A
C1099  C1143   1.473   .     S
C1100  C1103   1.414   .     A
C1100  C1154   1.473   .     S
C1100  C1336   1.397   .     S
C1101  Cl1165  1.787   .     S
C1101  C1103   1.402   .     A
C1101  C1333   1.397   .     S
C1102  C1104   1.402   .     A
C1102  Cl1166  1.787   .     S
C1105  Cl1167  1.758   .     S
C1105  N1110   1.365   .     A
C1106  N1109   1.365   .     A
C1106  Cl1168  1.758   .     S
C1106  C1810   1.421   .     S
C1107  N1109   1.366   .     A
C1107  Cl1169  1.723   .     S
C1107  C1807   1.421   .     S
C1108  Cl1170  1.723   .     S
C1108  N1110   1.366   .     A
N1109  Zn1119  2.025   .     S
N1110  Zn1120  2.025   .     S
O1111  Zn1119  2.025   .     S
O1112  Zn1120  2.025   .     S
O1113  Zn1120  2.061   .     S
O1114  Zn1119  2.061   .     S
O1115  Zn1119  2.026   .     S
O1116  Zn1120  2.026   .     S
O1117  Zn1120  2.047   .     S
O1118  Zn1119  2.047   .     S
C1121  C1122   1.402   .     A
C1121  C1126   1.403   .     A
C1121  C941    1.483   1_655 S
C1122  C1123   1.397   .     A
C1122  H1127   1.083   .     S
C1123  C1124   1.394   .     A
C1124  H1129   1.082   .     S
C1124  C1125   1.400   .     A
C1125  C1126   1.393   .     A
C1125  H1130   1.081   .     S
C1126  H1131   1.083   .     S
H1128  C1825   1.081   .     S
C1132  C1137   1.402   .     A
C1132  C1133   1.403   .     A
C1133  C1134   1.393   .     A
C1133  H1138   1.083   .     S
C1134  C1135   1.400   .     A
C1134  H1139   1.081   .     S
C1135  H1140   1.082   .     S
C1135  C1136   1.394   .     A
C1136  C1137   1.397   .     A
C1136  H1843   1.081   .     S
C1137  H1142   1.083   .     S
C1143  C1148   1.401   .     A
C1143  C1144   1.400   .     A
C1144  C1145   1.397   .     A
C1144  H1149   1.082   .     S
C1146  H1151   1.082   .     S
C1146  C1847   1.396   .     S
C1146  C1849   1.392   .     S
C1147  C1148   1.394   .     A
C1148  H1153   1.071   .     S
H1150  C989    1.070   1_655 S
H1152  C1849   1.081   .     S
C1154  C1159   1.400   .     A
C1154  C1155   1.401   .     A
C1155  H1160   1.071   .     S
C1155  C1156   1.394   .     A
C1156  C1859   1.392   .     S
C1156  H1863   1.081   .     S
C1157  H1162   1.082   .     S
C1158  C1159   1.397   .     A
C1158  C1859   1.396   .     S
C1158  H1007   1.070   1_655 S
C1159  H1164   1.082   .     S
C1171  O1191   1.292   .     A
C1171  C1182   1.456   .     S
C1171  O1189   1.302   .     A
C1172  O1192   1.292   .     A
C1172  C1181   1.456   .     S
C1172  O1190   1.302   .     A
C1173  O1193   1.283   .     A
C1173  O1195   1.303   .     A
C1173  C1175   1.445   .     S
C1174  O1194   1.283   .     A
C1174  C1176   1.445   .     S
C1174  O1196   1.303   .     A
C1175  C1332   1.369   1_455 S
C1175  C1355   1.483   1_455 S
C1176  C1253   1.369   .     S
C1176  C1288   1.483   .     S
C1177  C1182   1.414   .     A
C1177  C1221   1.473   .     S
C1178  C1181   1.414   .     A
C1178  C1232   1.473   .     S
C1178  C712    1.397   1_565 S
C1179  Cl1243  1.787   .     S
C1179  C1181   1.402   .     A
C1179  C709    1.397   1_565 S
C1180  C1182   1.402   .     A
C1180  Cl1244  1.787   .     S
C1183  Cl1245  1.758   .     S
C1183  N1188   1.365   .     A
C1184  N1187   1.365   .     A
C1184  Cl1246  1.758   .     S
C1184  C1888   1.421   .     S
C1185  N1187   1.366   .     A
C1185  Cl1247  1.723   .     S
C1185  C1885   1.421   .     S
C1186  Cl1248  1.723   .     S
C1186  N1188   1.366   .     A
N1187  Zn1197  2.025   .     S
N1188  Zn1198  2.025   .     S
O1189  Zn1197  2.025   .     S
O1190  Zn1198  2.025   .     S
O1191  Zn1198  2.061   .     S
O1192  Zn1197  2.061   .     S
O1193  Zn1197  2.026   .     S
O1194  Zn1198  2.026   .     S
O1195  Zn1198  2.047   .     S
O1196  Zn1197  2.047   .     S
C1199  C1200   1.402   .     A
C1199  C1204   1.403   .     A
C1199  C1253   1.483   .     S
C1200  C1201   1.397   .     A
C1200  H1205   1.083   .     S
C1201  C1202   1.394   .     A
C1202  H1207   1.082   .     S
C1202  C1203   1.400   .     A
C1203  C1204   1.393   .     A
C1203  H1208   1.081   .     S
C1204  H1209   1.083   .     S
H1206  C1903   1.081   .     S
C1210  C1215   1.402   .     A
C1210  C1211   1.403   .     A
C1210  C1332   1.483   1_455 S
C1211  C1212   1.393   .     A
C1211  H1216   1.083   .     S
C1212  C1213   1.400   .     A
C1212  H1217   1.081   .     S
C1213  H1218   1.082   .     S
C1213  C1214   1.394   .     A
C1214  C1215   1.397   .     A
C1214  H1921   1.081   .     S
C1215  H1220   1.083   .     S
C1221  C1226   1.401   .     A
C1221  C1222   1.400   .     A
C1222  C1223   1.397   .     A
C1222  H1227   1.082   .     S
C1223  H1384   1.070   1_455 S
C1224  H1229   1.082   .     S
C1224  C1925   1.396   .     S
C1224  C1927   1.392   .     S
C1225  C1226   1.394   .     A
C1226  H1231   1.071   .     S
H1228  C1301   1.070   .     S
H1230  C1927   1.081   .     S
C1232  C1237   1.400   .     A
C1232  C1233   1.401   .     A
C1233  H1238   1.071   .     S
C1233  C1234   1.394   .     A
C1234  C1937   1.392   .     S
C1234  H1941   1.081   .     S
C1235  H1240   1.082   .     S
C1236  C1237   1.397   .     A
C1236  C1937   1.396   .     S
C1236  H1319   1.070   .     S
C1237  H1242   1.082   .     S
H1241  C1392   1.070   1_455 S
C1249  O1269   1.292   .     A
C1249  C1260   1.456   .     S
C1249  O1267   1.302   .     A
C1250  O1270   1.292   .     A
C1250  C1259   1.456   .     S
C1250  O1268   1.302   .     A
C1251  O1271   1.283   .     A
C1251  O1273   1.303   .     A
C1251  C1253   1.445   .     S
C1252  O1272   1.283   .     A
C1252  C1254   1.445   .     S
C1252  O1274   1.303   .     A
C1254  C1331   1.369   .     S
C1254  C1366   1.483   .     S
C1255  C1260   1.414   .     A
C1255  C1299   1.473   .     S
C1256  C1259   1.414   .     A
C1256  C1310   1.473   .     S
C1256  C790    1.397   1_565 S
C1257  Cl1321  1.787   .     S
C1257  C1259   1.402   .     A
C1257  C787    1.397   1_565 S
C1258  C1260   1.402   .     A
C1258  Cl1322  1.787   .     S
C1261  Cl1323  1.758   .     S
C1261  N1266   1.365   .     A
C1262  N1265   1.365   .     A
C1262  Cl1324  1.758   .     S
C1262  C1966   1.421   .     S
C1263  N1265   1.366   .     A
C1263  Cl1325  1.723   .     S
C1263  C1963   1.421   .     S
C1264  Cl1326  1.723   .     S
C1264  N1266   1.366   .     A
N1265  Zn1275  2.025   .     S
N1266  Zn1276  2.025   .     S
O1267  Zn1275  2.025   .     S
O1268  Zn1276  2.025   .     S
O1269  Zn1276  2.061   .     S
O1270  Zn1275  2.061   .     S
O1271  Zn1275  2.026   .     S
O1272  Zn1276  2.026   .     S
O1273  Zn1276  2.047   .     S
O1274  Zn1275  2.047   .     S
C1277  C1278   1.402   .     A
C1277  C1282   1.403   .     A
C1277  C1331   1.483   .     S
C1278  C1279   1.397   .     A
C1278  H1283   1.083   .     S
C1279  C1280   1.394   .     A
C1280  H1285   1.082   .     S
C1280  C1281   1.400   .     A
C1281  C1282   1.393   .     A
C1281  H1286   1.081   .     S
C1282  H1287   1.083   .     S
H1284  C1981   1.081   .     S
C1288  C1293   1.402   .     A
C1288  C1289   1.403   .     A
C1289  C1290   1.393   .     A
C1289  H1294   1.083   .     S
C1290  C1291   1.400   .     A
C1290  H1295   1.081   .     S
C1291  H1296   1.082   .     S
C1291  C1292   1.394   .     A
C1292  C1293   1.397   .     A
C1292  H1999   1.081   .     S
C1293  H1298   1.083   .     S
C1299  C1304   1.401   .     A
C1299  C1300   1.400   .     A
C1300  C1301   1.397   .     A
C1300  H1305   1.082   .     S
C1302  H1307   1.082   .     S
C1302  C2003   1.396   .     S
C1302  C2005   1.392   .     S
C1303  C1304   1.394   .     A
C1304  H1309   1.071   .     S
H1306  C1379   1.070   .     S
H1308  C2005   1.081   .     S
C1310  C1315   1.400   .     A
C1310  C1311   1.401   .     A
C1311  H1316   1.071   .     S
C1311  C1312   1.394   .     A
C1312  C2015   1.392   .     S
C1312  H2019   1.081   .     S
C1313  H1318   1.082   .     S
C1314  C1315   1.397   .     A
C1314  C2015   1.396   .     S
C1314  H1397   1.070   .     S
C1315  H1320   1.082   .     S
C1327  O1347   1.292   .     A
C1327  C1338   1.456   .     S
C1327  O1345   1.302   .     A
C1328  O1348   1.292   .     A
C1328  C1337   1.456   .     S
C1328  O1346   1.302   .     A
C1329  O1349   1.283   .     A
C1329  O1351   1.303   .     A
C1329  C1331   1.445   .     S
C1330  O1350   1.283   .     A
C1330  C1332   1.445   .     S
C1330  O1352   1.303   .     A
C1332  C1175   1.369   1_655 S
C1332  C1210   1.483   1_655 S
C1333  C1338   1.414   .     A
C1333  C1377   1.473   .     S
C1334  C1337   1.414   .     A
C1334  C1388   1.473   .     S
C1334  C868    1.397   1_565 S
C1335  Cl1399  1.787   .     S
C1335  C1337   1.402   .     A
C1335  C865    1.397   1_565 S
C1336  C1338   1.402   .     A
C1336  Cl1400  1.787   .     S
C1339  Cl1401  1.758   .     S
C1339  N1344   1.365   .     A
C1340  N1343   1.365   .     A
C1340  Cl1402  1.758   .     S
C1340  C2044   1.421   .     S
C1341  N1343   1.366   .     A
C1341  Cl1403  1.723   .     S
C1341  C2041   1.421   .     S
C1342  Cl1404  1.723   .     S
C1342  N1344   1.366   .     A
N1343  Zn1353  2.025   .     S
N1344  Zn1354  2.025   .     S
O1345  Zn1353  2.025   .     S
O1346  Zn1354  2.025   .     S
O1347  Zn1354  2.061   .     S
O1348  Zn1353  2.061   .     S
O1349  Zn1353  2.026   .     S
O1350  Zn1354  2.026   .     S
O1351  Zn1354  2.047   .     S
O1352  Zn1353  2.047   .     S
C1355  C1356   1.402   .     A
C1355  C1360   1.403   .     A
C1355  C1175   1.483   1_655 S
C1356  C1357   1.397   .     A
C1356  H1361   1.083   .     S
C1357  C1358   1.394   .     A
C1358  H1363   1.082   .     S
C1358  C1359   1.400   .     A
C1359  C1360   1.393   .     A
C1359  H1364   1.081   .     S
C1360  H1365   1.083   .     S
H1362  C2059   1.081   .     S
C1366  C1371   1.402   .     A
C1366  C1367   1.403   .     A
C1367  C1368   1.393   .     A
C1367  H1372   1.083   .     S
C1368  C1369   1.400   .     A
C1368  H1373   1.081   .     S
C1369  H1374   1.082   .     S
C1369  C1370   1.394   .     A
C1370  C1371   1.397   .     A
C1370  H2077   1.081   .     S
C1371  H1376   1.083   .     S
C1377  C1382   1.401   .     A
C1377  C1378   1.400   .     A
C1378  C1379   1.397   .     A
C1378  H1383   1.082   .     S
C1380  H1385   1.082   .     S
C1380  C2081   1.396   .     S
C1380  C2083   1.392   .     S
C1381  C1382   1.394   .     A
C1382  H1387   1.071   .     S
H1384  C1223   1.070   1_655 S
H1386  C2083   1.081   .     S
C1388  C1393   1.400   .     A
C1388  C1389   1.401   .     A
C1389  H1394   1.071   .     S
C1389  C1390   1.394   .     A
C1390  C2093   1.392   .     S
C1390  H2097   1.081   .     S
C1391  H1396   1.082   .     S
C1392  C1393   1.397   .     A
C1392  C2093   1.396   .     S
C1392  H1241   1.070   1_655 S
C1393  H1398   1.082   .     S
C1405  O1425   1.292   .     A
C1405  C1416   1.456   .     S
C1405  O1423   1.302   .     A
C1406  O1426   1.292   .     A
C1406  C1415   1.456   .     S
C1406  O1424   1.302   .     A
C1407  O1427   1.283   .     A
C1407  O1429   1.303   .     A
C1407  C1409   1.445   .     S
C1408  O1428   1.283   .     A
C1408  C1410   1.445   .     S
C1408  O1430   1.303   .     A
C1409  C1566   1.369   1_455 S
C1409  C1589   1.483   1_455 S
C1410  C1487   1.369   .     S
C1410  C1522   1.483   .     S
C1411  C1416   1.414   .     A
C1411  C1455   1.473   .     S
C1411  C1881   1.397   1_545 S
C1412  C1415   1.414   .     A
C1412  C1466   1.473   .     S
C1412  C1648   1.397   .     S
C1413  Cl1477  1.787   .     S
C1413  C1415   1.402   .     A
C1413  C1645   1.397   .     S
C1414  C1416   1.402   .     A
C1414  Cl1478  1.787   .     S
C1414  C1880   1.397   1_545 S
C1417  Cl1479  1.758   .     S
C1417  N1422   1.365   .     A
C1418  N1421   1.365   .     A
C1418  Cl1480  1.758   .     S
C1418  C16     1.421   1_556 S
C1419  N1421   1.366   .     A
C1419  Cl1481  1.723   .     S
C1419  C13     1.421   1_556 S
C1420  Cl1482  1.723   .     S
C1420  N1422   1.366   .     A
N1421  Zn1431  2.025   .     S
N1422  Zn1432  2.025   .     S
O1423  Zn1431  2.025   .     S
O1424  Zn1432  2.025   .     S
O1425  Zn1432  2.061   .     S
O1426  Zn1431  2.061   .     S
O1427  Zn1431  2.026   .     S
O1428  Zn1432  2.026   .     S
O1429  Zn1432  2.047   .     S
O1430  Zn1431  2.047   .     S
C1433  C1434   1.402   .     A
C1433  C1438   1.403   .     A
C1433  C1487   1.483   .     S
C1434  C1435   1.397   .     A
C1434  H1439   1.083   .     S
C1435  C1436   1.394   .     A
C1436  H1441   1.082   .     S
C1436  C1437   1.400   .     A
C1437  C1438   1.393   .     A
C1437  H1442   1.081   .     S
C1438  H1443   1.083   .     S
H1440  C31     1.081   1_556 S
C1444  C1449   1.402   .     A
C1444  C1445   1.403   .     A
C1444  C1566   1.483   1_455 S
C1445  C1446   1.393   .     A
C1445  H1450   1.083   .     S
C1446  C1447   1.400   .     A
C1446  H1451   1.081   .     S
C1447  H1452   1.082   .     S
C1447  C1448   1.394   .     A
C1448  C1449   1.397   .     A
C1448  H49     1.081   1_556 S
C1449  H1454   1.083   .     S
C1455  C1460   1.401   .     A
C1455  C1456   1.400   .     A
C1456  C1457   1.397   .     A
C1456  H1461   1.082   .     S
C1457  H1618   1.070   1_455 S
C1458  H1463   1.082   .     S
C1458  C53     1.396   1_556 S
C1458  C55     1.392   1_556 S
C1459  C1460   1.394   .     A
C1460  H1465   1.071   .     S
H1462  C1535   1.070   .     S
H1464  C55     1.081   1_556 S
C1466  C1471   1.400   .     A
C1466  C1467   1.401   .     A
C1467  H1472   1.071   .     S
C1467  C1468   1.394   .     A
C1468  C65     1.392   1_556 S
C1468  H69     1.081   1_556 S
C1469  H1474   1.082   .     S
C1470  C1471   1.397   .     A
C1470  C65     1.396   1_556 S
C1470  H1553   1.070   .     S
C1471  H1476   1.082   .     S
H1475  C1626   1.070   1_455 S
C1483  O1503   1.292   .     A
C1483  C1494   1.456   .     S
C1483  O1501   1.302   .     A
C1484  O1504   1.292   .     A
C1484  C1493   1.456   .     S
C1484  O1502   1.302   .     A
C1485  O1505   1.283   .     A
C1485  O1507   1.303   .     A
C1485  C1487   1.445   .     S
C1486  O1506   1.283   .     A
C1486  C1488   1.445   .     S
C1486  O1508   1.303   .     A
C1488  C1565   1.369   .     S
C1488  C1600   1.483   .     S
C1489  C1494   1.414   .     A
C1489  C1533   1.473   .     S
C1489  C1959   1.397   1_545 S
C1490  C1493   1.414   .     A
C1490  C1544   1.473   .     S
C1490  C1726   1.397   .     S
C1491  Cl1555  1.787   .     S
C1491  C1493   1.402   .     A
C1491  C1723   1.397   .     S
C1492  C1494   1.402   .     A
C1492  Cl1556  1.787   .     S
C1492  C1958   1.397   1_545 S
C1495  Cl1557  1.758   .     S
C1495  N1500   1.365   .     A
C1496  N1499   1.365   .     A
C1496  Cl1558  1.758   .     S
C1496  C94     1.421   1_556 S
C1497  N1499   1.366   .     A
C1497  Cl1559  1.723   .     S
C1497  C91     1.421   1_556 S
C1498  Cl1560  1.723   .     S
C1498  N1500   1.366   .     A
N1499  Zn1509  2.025   .     S
N1500  Zn1510  2.025   .     S
O1501  Zn1509  2.025   .     S
O1502  Zn1510  2.025   .     S
O1503  Zn1510  2.061   .     S
O1504  Zn1509  2.061   .     S
O1505  Zn1509  2.026   .     S
O1506  Zn1510  2.026   .     S
O1507  Zn1510  2.047   .     S
O1508  Zn1509  2.047   .     S
C1511  C1512   1.402   .     A
C1511  C1516   1.403   .     A
C1511  C1565   1.483   .     S
C1512  C1513   1.397   .     A
C1512  H1517   1.083   .     S
C1513  C1514   1.394   .     A
C1514  H1519   1.082   .     S
C1514  C1515   1.400   .     A
C1515  C1516   1.393   .     A
C1515  H1520   1.081   .     S
C1516  H1521   1.083   .     S
H1518  C109    1.081   1_556 S
C1522  C1527   1.402   .     A
C1522  C1523   1.403   .     A
C1523  C1524   1.393   .     A
C1523  H1528   1.083   .     S
C1524  C1525   1.400   .     A
C1524  H1529   1.081   .     S
C1525  H1530   1.082   .     S
C1525  C1526   1.394   .     A
C1526  C1527   1.397   .     A
C1526  H127    1.081   1_556 S
C1527  H1532   1.083   .     S
C1533  C1538   1.401   .     A
C1533  C1534   1.400   .     A
C1534  C1535   1.397   .     A
C1534  H1539   1.082   .     S
C1536  H1541   1.082   .     S
C1536  C131    1.396   1_556 S
C1536  C133    1.392   1_556 S
C1537  C1538   1.394   .     A
C1538  H1543   1.071   .     S
H1540  C1613   1.070   .     S
H1542  C133    1.081   1_556 S
C1544  C1549   1.400   .     A
C1544  C1545   1.401   .     A
C1545  H1550   1.071   .     S
C1545  C1546   1.394   .     A
C1546  C143    1.392   1_556 S
C1546  H147    1.081   1_556 S
C1547  H1552   1.082   .     S
C1548  C1549   1.397   .     A
C1548  C143    1.396   1_556 S
C1548  H1631   1.070   .     S
C1549  H1554   1.082   .     S
C1561  O1581   1.292   .     A
C1561  C1572   1.456   .     S
C1561  O1579   1.302   .     A
C1562  O1582   1.292   .     A
C1562  C1571   1.456   .     S
C1562  O1580   1.302   .     A
C1563  O1583   1.283   .     A
C1563  O1585   1.303   .     A
C1563  C1565   1.445   .     S
C1564  O1584   1.283   .     A
C1564  C1566   1.445   .     S
C1564  O1586   1.303   .     A
C1566  C1409   1.369   1_655 S
C1566  C1444   1.483   1_655 S
C1567  C1572   1.414   .     A
C1567  C1611   1.473   .     S
C1567  C2037   1.397   1_545 S
C1568  C1571   1.414   .     A
C1568  C1622   1.473   .     S
C1568  C1804   1.397   .     S
C1569  Cl1633  1.787   .     S
C1569  C1571   1.402   .     A
C1569  C1801   1.397   .     S
C1570  C1572   1.402   .     A
C1570  Cl1634  1.787   .     S
C1570  C2036   1.397   1_545 S
C1573  Cl1635  1.758   .     S
C1573  N1578   1.365   .     A
C1574  N1577   1.365   .     A
C1574  Cl1636  1.758   .     S
C1574  C172    1.421   1_556 S
C1575  N1577   1.366   .     A
C1575  Cl1637  1.723   .     S
C1575  C169    1.421   1_556 S
C1576  Cl1638  1.723   .     S
C1576  N1578   1.366   .     A
N1577  Zn1587  2.025   .     S
N1578  Zn1588  2.025   .     S
O1579  Zn1587  2.025   .     S
O1580  Zn1588  2.025   .     S
O1581  Zn1588  2.061   .     S
O1582  Zn1587  2.061   .     S
O1583  Zn1587  2.026   .     S
O1584  Zn1588  2.026   .     S
O1585  Zn1588  2.047   .     S
O1586  Zn1587  2.047   .     S
C1589  C1590   1.402   .     A
C1589  C1594   1.403   .     A
C1589  C1409   1.483   1_655 S
C1590  C1591   1.397   .     A
C1590  H1595   1.083   .     S
C1591  C1592   1.394   .     A
C1592  H1597   1.082   .     S
C1592  C1593   1.400   .     A
C1593  C1594   1.393   .     A
C1593  H1598   1.081   .     S
C1594  H1599   1.083   .     S
H1596  C187    1.081   1_556 S
C1600  C1605   1.402   .     A
C1600  C1601   1.403   .     A
C1601  C1602   1.393   .     A
C1601  H1606   1.083   .     S
C1602  C1603   1.400   .     A
C1602  H1607   1.081   .     S
C1603  H1608   1.082   .     S
C1603  C1604   1.394   .     A
C1604  C1605   1.397   .     A
C1604  H205    1.081   1_556 S
C1605  H1610   1.083   .     S
C1611  C1616   1.401   .     A
C1611  C1612   1.400   .     A
C1612  C1613   1.397   .     A
C1612  H1617   1.082   .     S
C1614  H1619   1.082   .     S
C1614  C209    1.396   1_556 S
C1614  C211    1.392   1_556 S
C1615  C1616   1.394   .     A
C1616  H1621   1.071   .     S
H1618  C1457   1.070   1_655 S
H1620  C211    1.081   1_556 S
C1622  C1627   1.400   .     A
C1622  C1623   1.401   .     A
C1623  H1628   1.071   .     S
C1623  C1624   1.394   .     A
C1624  C221    1.392   1_556 S
C1624  H225    1.081   1_556 S
C1625  H1630   1.082   .     S
C1626  C1627   1.397   .     A
C1626  C221    1.396   1_556 S
C1626  H1475   1.070   1_655 S
C1627  H1632   1.082   .     S
C1639  O1659   1.292   .     A
C1639  C1650   1.456   .     S
C1639  O1657   1.302   .     A
C1640  O1660   1.292   .     A
C1640  C1649   1.456   .     S
C1640  O1658   1.302   .     A
C1641  O1661   1.283   .     A
C1641  O1663   1.303   .     A
C1641  C1643   1.445   .     S
C1642  O1662   1.283   .     A
C1642  C1644   1.445   .     S
C1642  O1664   1.303   .     A
C1643  C1800   1.369   1_455 S
C1643  C1823   1.483   1_455 S
C1644  C1721   1.369   .     S
C1644  C1756   1.483   .     S
C1645  C1650   1.414   .     A
C1645  C1689   1.473   .     S
C1646  C1649   1.414   .     A
C1646  C1700   1.473   .     S
C1646  C1882   1.397   .     S
C1647  Cl1711  1.787   .     S
C1647  C1649   1.402   .     A
C1647  C1879   1.397   .     S
C1648  C1650   1.402   .     A
C1648  Cl1712  1.787   .     S
C1651  Cl1713  1.758   .     S
C1651  N1656   1.365   .     A
C1652  N1655   1.365   .     A
C1652  Cl1714  1.758   .     S
C1652  C250    1.421   1_556 S
C1653  N1655   1.366   .     A
C1653  Cl1715  1.723   .     S
C1653  C247    1.421   1_556 S
C1654  Cl1716  1.723   .     S
C1654  N1656   1.366   .     A
N1655  Zn1665  2.025   .     S
N1656  Zn1666  2.025   .     S
O1657  Zn1665  2.025   .     S
O1658  Zn1666  2.025   .     S
O1659  Zn1666  2.061   .     S
O1660  Zn1665  2.061   .     S
O1661  Zn1665  2.026   .     S
O1662  Zn1666  2.026   .     S
O1663  Zn1666  2.047   .     S
O1664  Zn1665  2.047   .     S
C1667  C1668   1.402   .     A
C1667  C1672   1.403   .     A
C1667  C1721   1.483   .     S
C1668  C1669   1.397   .     A
C1668  H1673   1.083   .     S
C1669  C1670   1.394   .     A
C1670  H1675   1.082   .     S
C1670  C1671   1.400   .     A
C1671  C1672   1.393   .     A
C1671  H1676   1.081   .     S
C1672  H1677   1.083   .     S
H1674  C265    1.081   1_556 S
C1678  C1683   1.402   .     A
C1678  C1679   1.403   .     A
C1678  C1800   1.483   1_455 S
C1679  C1680   1.393   .     A
C1679  H1684   1.083   .     S
C1680  C1681   1.400   .     A
C1680  H1685   1.081   .     S
C1681  H1686   1.082   .     S
C1681  C1682   1.394   .     A
C1682  C1683   1.397   .     A
C1682  H283    1.081   1_556 S
C1683  H1688   1.083   .     S
C1689  C1694   1.401   .     A
C1689  C1690   1.400   .     A
C1690  C1691   1.397   .     A
C1690  H1695   1.082   .     S
C1691  H1852   1.070   1_455 S
C1692  H1697   1.082   .     S
C1692  C287    1.396   1_556 S
C1692  C289    1.392   1_556 S
C1693  C1694   1.394   .     A
C1694  H1699   1.071   .     S
H1696  C1769   1.070   .     S
H1698  C289    1.081   1_556 S
C1700  C1705   1.400   .     A
C1700  C1701   1.401   .     A
C1701  H1706   1.071   .     S
C1701  C1702   1.394   .     A
C1702  C299    1.392   1_556 S
C1702  H303    1.081   1_556 S
C1703  H1708   1.082   .     S
C1704  C1705   1.397   .     A
C1704  C299    1.396   1_556 S
C1704  H1787   1.070   .     S
C1705  H1710   1.082   .     S
H1709  C1860   1.070   1_455 S
C1717  O1737   1.292   .     A
C1717  C1728   1.456   .     S
C1717  O1735   1.302   .     A
C1718  O1738   1.292   .     A
C1718  C1727   1.456   .     S
C1718  O1736   1.302   .     A
C1719  O1739   1.283   .     A
C1719  O1741   1.303   .     A
C1719  C1721   1.445   .     S
C1720  O1740   1.283   .     A
C1720  C1722   1.445   .     S
C1720  O1742   1.303   .     A
C1722  C1799   1.369   .     S
C1722  C1834   1.483   .     S
C1723  C1728   1.414   .     A
C1723  C1767   1.473   .     S
C1724  C1727   1.414   .     A
C1724  C1778   1.473   .     S
C1724  C1960   1.397   .     S
C1725  Cl1789  1.787   .     S
C1725  C1727   1.402   .     A
C1725  C1957   1.397   .     S
C1726  C1728   1.402   .     A
C1726  Cl1790  1.787   .     S
C1729  Cl1791  1.758   .     S
C1729  N1734   1.365   .     A
C1730  N1733   1.365   .     A
C1730  Cl1792  1.758   .     S
C1730  C328    1.421   1_556 S
C1731  N1733   1.366   .     A
C1731  Cl1793  1.723   .     S
C1731  C325    1.421   1_556 S
C1732  Cl1794  1.723   .     S
C1732  N1734   1.366   .     A
N1733  Zn1743  2.025   .     S
N1734  Zn1744  2.025   .     S
O1735  Zn1743  2.025   .     S
O1736  Zn1744  2.025   .     S
O1737  Zn1744  2.061   .     S
O1738  Zn1743  2.061   .     S
O1739  Zn1743  2.026   .     S
O1740  Zn1744  2.026   .     S
O1741  Zn1744  2.047   .     S
O1742  Zn1743  2.047   .     S
C1745  C1746   1.402   .     A
C1745  C1750   1.403   .     A
C1745  C1799   1.483   .     S
C1746  C1747   1.397   .     A
C1746  H1751   1.083   .     S
C1747  C1748   1.394   .     A
C1748  H1753   1.082   .     S
C1748  C1749   1.400   .     A
C1749  C1750   1.393   .     A
C1749  H1754   1.081   .     S
C1750  H1755   1.083   .     S
H1752  C343    1.081   1_556 S
C1756  C1761   1.402   .     A
C1756  C1757   1.403   .     A
C1757  C1758   1.393   .     A
C1757  H1762   1.083   .     S
C1758  C1759   1.400   .     A
C1758  H1763   1.081   .     S
C1759  H1764   1.082   .     S
C1759  C1760   1.394   .     A
C1760  C1761   1.397   .     A
C1760  H361    1.081   1_556 S
C1761  H1766   1.083   .     S
C1767  C1772   1.401   .     A
C1767  C1768   1.400   .     A
C1768  C1769   1.397   .     A
C1768  H1773   1.082   .     S
C1770  H1775   1.082   .     S
C1770  C365    1.396   1_556 S
C1770  C367    1.392   1_556 S
C1771  C1772   1.394   .     A
C1772  H1777   1.071   .     S
H1774  C1847   1.070   .     S
H1776  C367    1.081   1_556 S
C1778  C1783   1.400   .     A
C1778  C1779   1.401   .     A
C1779  H1784   1.071   .     S
C1779  C1780   1.394   .     A
C1780  C377    1.392   1_556 S
C1780  H381    1.081   1_556 S
C1781  H1786   1.082   .     S
C1782  C1783   1.397   .     A
C1782  C377    1.396   1_556 S
C1782  H1865   1.070   .     S
C1783  H1788   1.082   .     S
C1795  O1815   1.292   .     A
C1795  C1806   1.456   .     S
C1795  O1813   1.302   .     A
C1796  O1816   1.292   .     A
C1796  C1805   1.456   .     S
C1796  O1814   1.302   .     A
C1797  O1817   1.283   .     A
C1797  O1819   1.303   .     A
C1797  C1799   1.445   .     S
C1798  O1818   1.283   .     A
C1798  C1800   1.445   .     S
C1798  O1820   1.303   .     A
C1800  C1643   1.369   1_655 S
C1800  C1678   1.483   1_655 S
C1801  C1806   1.414   .     A
C1801  C1845   1.473   .     S
C1802  C1805   1.414   .     A
C1802  C1856   1.473   .     S
C1802  C2038   1.397   .     S
C1803  Cl1867  1.787   .     S
C1803  C1805   1.402   .     A
C1803  C2035   1.397   .     S
C1804  C1806   1.402   .     A
C1804  Cl1868  1.787   .     S
C1807  Cl1869  1.758   .     S
C1807  N1812   1.365   .     A
C1808  N1811   1.365   .     A
C1808  Cl1870  1.758   .     S
C1808  C406    1.421   1_556 S
C1809  N1811   1.366   .     A
C1809  Cl1871  1.723   .     S
C1809  C403    1.421   1_556 S
C1810  Cl1872  1.723   .     S
C1810  N1812   1.366   .     A
N1811  Zn1821  2.025   .     S
N1812  Zn1822  2.025   .     S
O1813  Zn1821  2.025   .     S
O1814  Zn1822  2.025   .     S
O1815  Zn1822  2.061   .     S
O1816  Zn1821  2.061   .     S
O1817  Zn1821  2.026   .     S
O1818  Zn1822  2.026   .     S
O1819  Zn1822  2.047   .     S
O1820  Zn1821  2.047   .     S
C1823  C1824   1.402   .     A
C1823  C1828   1.403   .     A
C1823  C1643   1.483   1_655 S
C1824  C1825   1.397   .     A
C1824  H1829   1.083   .     S
C1825  C1826   1.394   .     A
C1826  H1831   1.082   .     S
C1826  C1827   1.400   .     A
C1827  C1828   1.393   .     A
C1827  H1832   1.081   .     S
C1828  H1833   1.083   .     S
H1830  C421    1.081   1_556 S
C1834  C1839   1.402   .     A
C1834  C1835   1.403   .     A
C1835  C1836   1.393   .     A
C1835  H1840   1.083   .     S
C1836  C1837   1.400   .     A
C1836  H1841   1.081   .     S
C1837  H1842   1.082   .     S
C1837  C1838   1.394   .     A
C1838  C1839   1.397   .     A
C1838  H439    1.081   1_556 S
C1839  H1844   1.083   .     S
C1845  C1850   1.401   .     A
C1845  C1846   1.400   .     A
C1846  C1847   1.397   .     A
C1846  H1851   1.082   .     S
C1848  H1853   1.082   .     S
C1848  C443    1.396   1_556 S
C1848  C445    1.392   1_556 S
C1849  C1850   1.394   .     A
C1850  H1855   1.071   .     S
H1852  C1691   1.070   1_655 S
H1854  C445    1.081   1_556 S
C1856  C1861   1.400   .     A
C1856  C1857   1.401   .     A
C1857  H1862   1.071   .     S
C1857  C1858   1.394   .     A
C1858  C455    1.392   1_556 S
C1858  H459    1.081   1_556 S
C1859  H1864   1.082   .     S
C1860  C1861   1.397   .     A
C1860  C455    1.396   1_556 S
C1860  H1709   1.070   1_655 S
C1861  H1866   1.082   .     S
C1873  O1893   1.292   .     A
C1873  C1884   1.456   .     S
C1873  O1891   1.302   .     A
C1874  O1894   1.292   .     A
C1874  C1883   1.456   .     S
C1874  O1892   1.302   .     A
C1875  O1895   1.283   .     A
C1875  O1897   1.303   .     A
C1875  C1877   1.445   .     S
C1876  O1896   1.283   .     A
C1876  C1878   1.445   .     S
C1876  O1898   1.303   .     A
C1877  C2034   1.369   1_455 S
C1877  C2057   1.483   1_455 S
C1878  C1955   1.369   .     S
C1878  C1990   1.483   .     S
C1879  C1884   1.414   .     A
C1879  C1923   1.473   .     S
C1880  C1883   1.414   .     A
C1880  C1934   1.473   .     S
C1880  C1414   1.397   1_565 S
C1881  Cl1945  1.787   .     S
C1881  C1883   1.402   .     A
C1881  C1411   1.397   1_565 S
C1882  C1884   1.402   .     A
C1882  Cl1946  1.787   .     S
C1885  Cl1947  1.758   .     S
C1885  N1890   1.365   .     A
C1886  N1889   1.365   .     A
C1886  Cl1948  1.758   .     S
C1886  C484    1.421   1_556 S
C1887  N1889   1.366   .     A
C1887  Cl1949  1.723   .     S
C1887  C481    1.421   1_556 S
C1888  Cl1950  1.723   .     S
C1888  N1890   1.366   .     A
N1889  Zn1899  2.025   .     S
N1890  Zn1900  2.025   .     S
O1891  Zn1899  2.025   .     S
O1892  Zn1900  2.025   .     S
O1893  Zn1900  2.061   .     S
O1894  Zn1899  2.061   .     S
O1895  Zn1899  2.026   .     S
O1896  Zn1900  2.026   .     S
O1897  Zn1900  2.047   .     S
O1898  Zn1899  2.047   .     S
C1901  C1902   1.402   .     A
C1901  C1906   1.403   .     A
C1901  C1955   1.483   .     S
C1902  C1903   1.397   .     A
C1902  H1907   1.083   .     S
C1903  C1904   1.394   .     A
C1904  H1909   1.082   .     S
C1904  C1905   1.400   .     A
C1905  C1906   1.393   .     A
C1905  H1910   1.081   .     S
C1906  H1911   1.083   .     S
H1908  C499    1.081   1_556 S
C1912  C1917   1.402   .     A
C1912  C1913   1.403   .     A
C1912  C2034   1.483   1_455 S
C1913  C1914   1.393   .     A
C1913  H1918   1.083   .     S
C1914  C1915   1.400   .     A
C1914  H1919   1.081   .     S
C1915  H1920   1.082   .     S
C1915  C1916   1.394   .     A
C1916  C1917   1.397   .     A
C1916  H517    1.081   1_556 S
C1917  H1922   1.083   .     S
C1923  C1928   1.401   .     A
C1923  C1924   1.400   .     A
C1924  C1925   1.397   .     A
C1924  H1929   1.082   .     S
C1925  H2086   1.070   1_455 S
C1926  H1931   1.082   .     S
C1926  C521    1.396   1_556 S
C1926  C523    1.392   1_556 S
C1927  C1928   1.394   .     A
C1928  H1933   1.071   .     S
H1930  C2003   1.070   .     S
H1932  C523    1.081   1_556 S
C1934  C1939   1.400   .     A
C1934  C1935   1.401   .     A
C1935  H1940   1.071   .     S
C1935  C1936   1.394   .     A
C1936  C533    1.392   1_556 S
C1936  H537    1.081   1_556 S
C1937  H1942   1.082   .     S
C1938  C1939   1.397   .     A
C1938  C533    1.396   1_556 S
C1938  H2021   1.070   .     S
C1939  H1944   1.082   .     S
H1943  C2094   1.070   1_455 S
C1951  O1971   1.292   .     A
C1951  C1962   1.456   .     S
C1951  O1969   1.302   .     A
C1952  O1972   1.292   .     A
C1952  C1961   1.456   .     S
C1952  O1970   1.302   .     A
C1953  O1973   1.283   .     A
C1953  O1975   1.303   .     A
C1953  C1955   1.445   .     S
C1954  O1974   1.283   .     A
C1954  C1956   1.445   .     S
C1954  O1976   1.303   .     A
C1956  C2033   1.369   .     S
C1956  C2068   1.483   .     S
C1957  C1962   1.414   .     A
C1957  C2001   1.473   .     S
C1958  C1961   1.414   .     A
C1958  C2012   1.473   .     S
C1958  C1492   1.397   1_565 S
C1959  Cl2023  1.787   .     S
C1959  C1961   1.402   .     A
C1959  C1489   1.397   1_565 S
C1960  C1962   1.402   .     A
C1960  Cl2024  1.787   .     S
C1963  Cl2025  1.758   .     S
C1963  N1968   1.365   .     A
C1964  N1967   1.365   .     A
C1964  Cl2026  1.758   .     S
C1964  C562    1.421   1_556 S
C1965  N1967   1.366   .     A
C1965  Cl2027  1.723   .     S
C1965  C559    1.421   1_556 S
C1966  Cl2028  1.723   .     S
C1966  N1968   1.366   .     A
N1967  Zn1977  2.025   .     S
N1968  Zn1978  2.025   .     S
O1969  Zn1977  2.025   .     S
O1970  Zn1978  2.025   .     S
O1971  Zn1978  2.061   .     S
O1972  Zn1977  2.061   .     S
O1973  Zn1977  2.026   .     S
O1974  Zn1978  2.026   .     S
O1975  Zn1978  2.047   .     S
O1976  Zn1977  2.047   .     S
C1979  C1980   1.402   .     A
C1979  C1984   1.403   .     A
C1979  C2033   1.483   .     S
C1980  C1981   1.397   .     A
C1980  H1985   1.083   .     S
C1981  C1982   1.394   .     A
C1982  H1987   1.082   .     S
C1982  C1983   1.400   .     A
C1983  C1984   1.393   .     A
C1983  H1988   1.081   .     S
C1984  H1989   1.083   .     S
H1986  C577    1.081   1_556 S
C1990  C1995   1.402   .     A
C1990  C1991   1.403   .     A
C1991  C1992   1.393   .     A
C1991  H1996   1.083   .     S
C1992  C1993   1.400   .     A
C1992  H1997   1.081   .     S
C1993  H1998   1.082   .     S
C1993  C1994   1.394   .     A
C1994  C1995   1.397   .     A
C1994  H595    1.081   1_556 S
C1995  H2000   1.083   .     S
C2001  C2006   1.401   .     A
C2001  C2002   1.400   .     A
C2002  C2003   1.397   .     A
C2002  H2007   1.082   .     S
C2004  H2009   1.082   .     S
C2004  C599    1.396   1_556 S
C2004  C601    1.392   1_556 S
C2005  C2006   1.394   .     A
C2006  H2011   1.071   .     S
H2008  C2081   1.070   .     S
H2010  C601    1.081   1_556 S
C2012  C2017   1.400   .     A
C2012  C2013   1.401   .     A
C2013  H2018   1.071   .     S
C2013  C2014   1.394   .     A
C2014  C611    1.392   1_556 S
C2014  H615    1.081   1_556 S
C2015  H2020   1.082   .     S
C2016  C2017   1.397   .     A
C2016  C611    1.396   1_556 S
C2016  H2099   1.070   .     S
C2017  H2022   1.082   .     S
C2029  O2049   1.292   .     A
C2029  C2040   1.456   .     S
C2029  O2047   1.302   .     A
C2030  O2050   1.292   .     A
C2030  C2039   1.456   .     S
C2030  O2048   1.302   .     A
C2031  O2051   1.283   .     A
C2031  O2053   1.303   .     A
C2031  C2033   1.445   .     S
C2032  O2052   1.283   .     A
C2032  C2034   1.445   .     S
C2032  O2054   1.303   .     A
C2034  C1877   1.369   1_655 S
C2034  C1912   1.483   1_655 S
C2035  C2040   1.414   .     A
C2035  C2079   1.473   .     S
C2036  C2039   1.414   .     A
C2036  C2090   1.473   .     S
C2036  C1570   1.397   1_565 S
C2037  Cl2101  1.787   .     S
C2037  C2039   1.402   .     A
C2037  C1567   1.397   1_565 S
C2038  C2040   1.402   .     A
C2038  Cl2102  1.787   .     S
C2041  Cl2103  1.758   .     S
C2041  N2046   1.365   .     A
C2042  N2045   1.365   .     A
C2042  Cl2104  1.758   .     S
C2042  C640    1.421   1_556 S
C2043  N2045   1.366   .     A
C2043  Cl2105  1.723   .     S
C2043  C637    1.421   1_556 S
C2044  Cl2106  1.723   .     S
C2044  N2046   1.366   .     A
N2045  Zn2055  2.025   .     S
N2046  Zn2056  2.025   .     S
O2047  Zn2055  2.025   .     S
O2048  Zn2056  2.025   .     S
O2049  Zn2056  2.061   .     S
O2050  Zn2055  2.061   .     S
O2051  Zn2055  2.026   .     S
O2052  Zn2056  2.026   .     S
O2053  Zn2056  2.047   .     S
O2054  Zn2055  2.047   .     S
C2057  C2058   1.402   .     A
C2057  C2062   1.403   .     A
C2057  C1877   1.483   1_655 S
C2058  C2059   1.397   .     A
C2058  H2063   1.083   .     S
C2059  C2060   1.394   .     A
C2060  H2065   1.082   .     S
C2060  C2061   1.400   .     A
C2061  C2062   1.393   .     A
C2061  H2066   1.081   .     S
C2062  H2067   1.083   .     S
H2064  C655    1.081   1_556 S
C2068  C2073   1.402   .     A
C2068  C2069   1.403   .     A
C2069  C2070   1.393   .     A
C2069  H2074   1.083   .     S
C2070  C2071   1.400   .     A
C2070  H2075   1.081   .     S
C2071  H2076   1.082   .     S
C2071  C2072   1.394   .     A
C2072  C2073   1.397   .     A
C2072  H673    1.081   1_556 S
C2073  H2078   1.083   .     S
C2079  C2084   1.401   .     A
C2079  C2080   1.400   .     A
C2080  C2081   1.397   .     A
C2080  H2085   1.082   .     S
C2082  H2087   1.082   .     S
C2082  C677    1.396   1_556 S
C2082  C679    1.392   1_556 S
C2083  C2084   1.394   .     A
C2084  H2089   1.071   .     S
H2086  C1925   1.070   1_655 S
H2088  C679    1.081   1_556 S
C2090  C2095   1.400   .     A
C2090  C2091   1.401   .     A
C2091  H2096   1.071   .     S
C2091  C2092   1.394   .     A
C2092  C689    1.392   1_556 S
C2092  H693    1.081   1_556 S
C2093  H2098   1.082   .     S
C2094  C2095   1.397   .     A
C2094  C689    1.396   1_556 S
C2094  H1943   1.070   1_655 S
C2095  H2100   1.082   .     S
