data_str_m3_o1_o16_pcu_sym.132
_audit_creation_date              2020-01-03
_audit_creation_method            'Materials Studio'
_symmetry_space_group_name_H-M    'P1'
_symmetry_Int_Tables_number       1
_symmetry_cell_setting            triclinic
loop_
_symmetry_equiv_pos_as_xyz
  x,y,z
_cell_length_a                    29.6009
_cell_length_b                    32.1423
_cell_length_c                    25.8541
_cell_angle_alpha                 90.0250
_cell_angle_beta                  71.4312
_cell_angle_gamma                 90.0488
loop_
_atom_site_label
_atom_site_type_symbol
_atom_site_fract_x
_atom_site_fract_y
_atom_site_fract_z
_atom_site_U_iso_or_equiv
_atom_site_adp_type
_atom_site_occupancy
C1     C     0.16668   0.24668   0.25006   0.00000  Uiso   1.00
C2     C     0.14910   0.20582   0.48750   0.00000  Uiso   1.00
C3     C     0.16215   0.20398   0.43038   0.00000  Uiso   1.00
C4     C     0.18514   0.19913   0.01163   0.00000  Uiso   1.00
C5     C     0.23356   0.19784   0.47838   0.00000  Uiso   1.00
C6     C     0.24548   0.21115   0.42395   0.00000  Uiso   1.00
C7     C     0.20952   0.21451   0.40018   0.00000  Uiso   1.00
C8     C     0.17378   0.18911   0.06663   0.00000  Uiso   1.00
C9     C     0.25538   0.16829   0.05386   0.00000  Uiso   1.00
C10    C     0.12731   0.19141   0.40650   0.00000  Uiso   1.00
C11    C     0.20987   0.31205   0.23935   0.00000  Uiso   1.00
C12    C     0.14121   0.17362   0.35098   0.00000  Uiso   1.00
C13    C     0.20985   0.02133   0.23930   0.00000  Uiso   1.00
C14    C     0.16658   0.04248   0.25032   0.00000  Uiso   1.00
C15    C     0.12331   0.02126   0.26160   0.00000  Uiso   1.00
C16    C     0.12332   0.31197   0.26164   0.00000  Uiso   1.00
C17    C     0.16662   0.29083   0.25038   0.00000  Uiso   1.00
C18    C     0.30080   0.13867   0.28079   0.00000  Uiso   1.00
C19    C     0.01539   0.13864   0.28072   0.00000  Uiso   1.00
C20    C     0.03256   0.19455   0.21907   0.00000  Uiso   1.00
C21    C     0.31799   0.19454   0.21907   0.00000  Uiso   1.00
C22    C     0.16662   0.08665   0.25009   0.00000  Uiso   1.00
C23    C     0.19284   0.16686   0.14738   0.00000  Uiso   1.00
C24    C     0.26801   0.18171   0.49966   0.00000  Uiso   1.00
C25    C     0.20824   0.17412   0.08835   0.00000  Uiso   1.00
C26    C     0.07907   0.19530   0.43726   0.00000  Uiso   1.00
C27    C     0.06622   0.20919   0.49110   0.00000  Uiso   1.00
C28    C     0.10053   0.21187   0.01732   0.00000  Uiso   1.00
H29    H     0.24357   0.03759   0.23024   0.00000  Uiso   1.00
H30    H     0.08959   0.03747   0.27064   0.00000  Uiso   1.00
H31    H     0.08961   0.29569   0.27071   0.00000  Uiso   1.00
H32    H     0.27581   0.11635   0.30557   0.00000  Uiso   1.00
H33    H     0.02658   0.11630   0.30547   0.00000  Uiso   1.00
H34    H     0.05755   0.21688   0.19428   0.00000  Uiso   1.00
H35    H     0.30680   0.21685   0.19429   0.00000  Uiso   1.00
H36    H     0.30406   0.17675   0.47337   0.00000  Uiso   1.00
H37    H     0.13736   0.19104   0.09282   0.00000  Uiso   1.00
H38    H     0.05170   0.18810   0.41941   0.00000  Uiso   1.00
H39    H     0.08858   0.21987   0.06012   0.00000  Uiso   1.00
H40    H     0.24359   0.29585   0.23033   0.00000  Uiso   1.00
N41    N     0.04760   0.16668   0.25002   0.00000  Uiso   1.00
N42    N     0.28573   0.16665   0.25001   0.00000  Uiso   1.00
O43    O     0.12846   0.22775   0.25001   0.00000  Uiso   1.00
O44    O     0.20490   0.22774   0.25001   0.00000  Uiso   1.00
O45    O     0.10947   0.16666   0.32681   0.00000  Uiso   1.00
O46    O     0.18591   0.16665   0.32681   0.00000  Uiso   1.00
O47    O     0.12843   0.10559   0.25000   0.00000  Uiso   1.00
O48    O     0.20488   0.10558   0.25000   0.00000  Uiso   1.00
O49    O     0.14742   0.16668   0.17319   0.00000  Uiso   1.00
O50    O     0.22387   0.16667   0.17319   0.00000  Uiso   1.00
Zn51   Zn    0.11562   0.16667   0.25000   0.00000  Uiso   1.00
Zn52   Zn    0.21771   0.16666   0.25000   0.00000  Uiso   1.00
I53    I     0.30757   0.13492   0.07793   0.00000  Uiso   1.00
I54    I     0.31565   0.22845   0.37631   0.00000  Uiso   1.00
F55    F     0.02038   0.21890   0.01865   0.00000  Uiso   1.00
F56    F     0.22020   0.23122   0.34950   0.00000  Uiso   1.00
C57    C     0.50001   0.24668   0.25006   0.00000  Uiso   1.00
C58    C     0.48243   0.20582   0.48750   0.00000  Uiso   1.00
C59    C     0.49548   0.20398   0.43038   0.00000  Uiso   1.00
C60    C     0.51847   0.19913   0.01163   0.00000  Uiso   1.00
C61    C     0.56689   0.19784   0.47838   0.00000  Uiso   1.00
C62    C     0.57881   0.21115   0.42395   0.00000  Uiso   1.00
C63    C     0.54285   0.21451   0.40018   0.00000  Uiso   1.00
C64    C     0.50711   0.18911   0.06663   0.00000  Uiso   1.00
C65    C     0.58872   0.16829   0.05386   0.00000  Uiso   1.00
C66    C     0.46064   0.19141   0.40650   0.00000  Uiso   1.00
C67    C     0.54320   0.31205   0.23935   0.00000  Uiso   1.00
C68    C     0.47454   0.17362   0.35098   0.00000  Uiso   1.00
C69    C     0.54318   0.02133   0.23930   0.00000  Uiso   1.00
C70    C     0.49991   0.04248   0.25032   0.00000  Uiso   1.00
C71    C     0.45664   0.02126   0.26160   0.00000  Uiso   1.00
C72    C     0.45666   0.31197   0.26164   0.00000  Uiso   1.00
C73    C     0.49995   0.29083   0.25038   0.00000  Uiso   1.00
C74    C     0.63413   0.13867   0.28079   0.00000  Uiso   1.00
C75    C     0.34872   0.13864   0.28072   0.00000  Uiso   1.00
C76    C     0.36590   0.19455   0.21907   0.00000  Uiso   1.00
C77    C     0.65132   0.19454   0.21907   0.00000  Uiso   1.00
C78    C     0.49995   0.08665   0.25009   0.00000  Uiso   1.00
C79    C     0.52618   0.16686   0.14738   0.00000  Uiso   1.00
C80    C     0.60135   0.18171   0.49966   0.00000  Uiso   1.00
C81    C     0.54157   0.17412   0.08835   0.00000  Uiso   1.00
C82    C     0.41241   0.19530   0.43726   0.00000  Uiso   1.00
C83    C     0.39955   0.20919   0.49110   0.00000  Uiso   1.00
C84    C     0.43386   0.21187   0.01732   0.00000  Uiso   1.00
H85    H     0.57690   0.03759   0.23024   0.00000  Uiso   1.00
H86    H     0.42292   0.03747   0.27064   0.00000  Uiso   1.00
H87    H     0.42295   0.29569   0.27071   0.00000  Uiso   1.00
H88    H     0.60914   0.11635   0.30557   0.00000  Uiso   1.00
H89    H     0.35992   0.11630   0.30547   0.00000  Uiso   1.00
H90    H     0.39088   0.21688   0.19428   0.00000  Uiso   1.00
H91    H     0.64013   0.21685   0.19429   0.00000  Uiso   1.00
H92    H     0.63740   0.17675   0.47337   0.00000  Uiso   1.00
H93    H     0.47069   0.19104   0.09282   0.00000  Uiso   1.00
H94    H     0.38503   0.18810   0.41941   0.00000  Uiso   1.00
H95    H     0.42192   0.21987   0.06012   0.00000  Uiso   1.00
H96    H     0.57692   0.29585   0.23033   0.00000  Uiso   1.00
N97    N     0.38093   0.16668   0.25002   0.00000  Uiso   1.00
N98    N     0.61906   0.16665   0.25001   0.00000  Uiso   1.00
O99    O     0.46179   0.22775   0.25001   0.00000  Uiso   1.00
O100   O     0.53823   0.22774   0.25001   0.00000  Uiso   1.00
O101   O     0.44280   0.16666   0.32681   0.00000  Uiso   1.00
O102   O     0.51924   0.16665   0.32681   0.00000  Uiso   1.00
O103   O     0.46177   0.10559   0.25000   0.00000  Uiso   1.00
O104   O     0.53821   0.10558   0.25000   0.00000  Uiso   1.00
O105   O     0.48076   0.16668   0.17319   0.00000  Uiso   1.00
O106   O     0.55720   0.16667   0.17319   0.00000  Uiso   1.00
Zn107  Zn    0.44896   0.16667   0.25000   0.00000  Uiso   1.00
Zn108  Zn    0.55104   0.16666   0.25000   0.00000  Uiso   1.00
I109   I     0.64090   0.13492   0.07793   0.00000  Uiso   1.00
I110   I     0.64899   0.22845   0.37631   0.00000  Uiso   1.00
F111   F     0.35372   0.21890   0.01865   0.00000  Uiso   1.00
F112   F     0.55353   0.23122   0.34950   0.00000  Uiso   1.00
C113   C     0.83335   0.24668   0.25006   0.00000  Uiso   1.00
C114   C     0.81577   0.20582   0.48750   0.00000  Uiso   1.00
C115   C     0.82881   0.20398   0.43038   0.00000  Uiso   1.00
C116   C     0.85181   0.19913   0.01163   0.00000  Uiso   1.00
C117   C     0.90022   0.19784   0.47838   0.00000  Uiso   1.00
C118   C     0.91214   0.21115   0.42395   0.00000  Uiso   1.00
C119   C     0.87618   0.21451   0.40018   0.00000  Uiso   1.00
C120   C     0.84045   0.18911   0.06663   0.00000  Uiso   1.00
C121   C     0.92205   0.16829   0.05386   0.00000  Uiso   1.00
C122   C     0.79397   0.19141   0.40650   0.00000  Uiso   1.00
C123   C     0.87653   0.31205   0.23935   0.00000  Uiso   1.00
C124   C     0.80787   0.17362   0.35098   0.00000  Uiso   1.00
C125   C     0.87652   0.02133   0.23930   0.00000  Uiso   1.00
C126   C     0.83325   0.04248   0.25032   0.00000  Uiso   1.00
C127   C     0.78997   0.02126   0.26160   0.00000  Uiso   1.00
C128   C     0.78999   0.31197   0.26164   0.00000  Uiso   1.00
C129   C     0.83329   0.29083   0.25038   0.00000  Uiso   1.00
C130   C     0.96746   0.13867   0.28079   0.00000  Uiso   1.00
C131   C     0.68206   0.13864   0.28072   0.00000  Uiso   1.00
C132   C     0.69923   0.19455   0.21907   0.00000  Uiso   1.00
C133   C     0.98466   0.19454   0.21907   0.00000  Uiso   1.00
C134   C     0.83328   0.08665   0.25009   0.00000  Uiso   1.00
C135   C     0.85951   0.16686   0.14738   0.00000  Uiso   1.00
C136   C     0.93468   0.18171   0.49966   0.00000  Uiso   1.00
C137   C     0.87490   0.17412   0.08835   0.00000  Uiso   1.00
C138   C     0.74574   0.19530   0.43726   0.00000  Uiso   1.00
C139   C     0.73289   0.20919   0.49110   0.00000  Uiso   1.00
C140   C     0.76720   0.21187   0.01732   0.00000  Uiso   1.00
H141   H     0.91023   0.03759   0.23024   0.00000  Uiso   1.00
H142   H     0.75626   0.03747   0.27064   0.00000  Uiso   1.00
H143   H     0.75628   0.29569   0.27071   0.00000  Uiso   1.00
H144   H     0.94248   0.11635   0.30557   0.00000  Uiso   1.00
H145   H     0.69325   0.11630   0.30547   0.00000  Uiso   1.00
H146   H     0.72421   0.21688   0.19428   0.00000  Uiso   1.00
H147   H     0.97347   0.21685   0.19429   0.00000  Uiso   1.00
H148   H     0.97073   0.17675   0.47337   0.00000  Uiso   1.00
H149   H     0.80402   0.19104   0.09282   0.00000  Uiso   1.00
H150   H     0.71836   0.18810   0.41941   0.00000  Uiso   1.00
H151   H     0.75525   0.21987   0.06012   0.00000  Uiso   1.00
H152   H     0.91025   0.29585   0.23033   0.00000  Uiso   1.00
N153   N     0.71426   0.16668   0.25002   0.00000  Uiso   1.00
N154   N     0.95239   0.16665   0.25001   0.00000  Uiso   1.00
O155   O     0.79512   0.22775   0.25001   0.00000  Uiso   1.00
O156   O     0.87157   0.22774   0.25001   0.00000  Uiso   1.00
O157   O     0.77613   0.16666   0.32681   0.00000  Uiso   1.00
O158   O     0.85258   0.16665   0.32681   0.00000  Uiso   1.00
O159   O     0.79510   0.10559   0.25000   0.00000  Uiso   1.00
O160   O     0.87154   0.10558   0.25000   0.00000  Uiso   1.00
O161   O     0.81409   0.16668   0.17319   0.00000  Uiso   1.00
O162   O     0.89053   0.16667   0.17319   0.00000  Uiso   1.00
Zn163  Zn    0.78229   0.16667   0.25000   0.00000  Uiso   1.00
Zn164  Zn    0.88438   0.16666   0.25000   0.00000  Uiso   1.00
I165   I     0.97423   0.13492   0.07793   0.00000  Uiso   1.00
I166   I     0.98232   0.22845   0.37631   0.00000  Uiso   1.00
F167   F     0.68705   0.21890   0.01865   0.00000  Uiso   1.00
F168   F     0.88687   0.23122   0.34950   0.00000  Uiso   1.00
C169   C     0.16668   0.58002   0.25006   0.00000  Uiso   1.00
C170   C     0.14910   0.53916   0.48750   0.00000  Uiso   1.00
C171   C     0.16215   0.53732   0.43038   0.00000  Uiso   1.00
C172   C     0.18514   0.53247   0.01163   0.00000  Uiso   1.00
C173   C     0.23356   0.53117   0.47838   0.00000  Uiso   1.00
C174   C     0.24548   0.54448   0.42395   0.00000  Uiso   1.00
C175   C     0.20952   0.54784   0.40018   0.00000  Uiso   1.00
C176   C     0.17378   0.52244   0.06663   0.00000  Uiso   1.00
C177   C     0.25538   0.50163   0.05386   0.00000  Uiso   1.00
C178   C     0.12731   0.52475   0.40650   0.00000  Uiso   1.00
C179   C     0.20987   0.64538   0.23935   0.00000  Uiso   1.00
C180   C     0.14121   0.50695   0.35098   0.00000  Uiso   1.00
C181   C     0.20985   0.35467   0.23930   0.00000  Uiso   1.00
C182   C     0.16658   0.37581   0.25032   0.00000  Uiso   1.00
C183   C     0.12331   0.35460   0.26160   0.00000  Uiso   1.00
C184   C     0.12332   0.64530   0.26164   0.00000  Uiso   1.00
C185   C     0.16662   0.62417   0.25038   0.00000  Uiso   1.00
C186   C     0.30080   0.47200   0.28079   0.00000  Uiso   1.00
C187   C     0.01539   0.47197   0.28072   0.00000  Uiso   1.00
C188   C     0.03256   0.52789   0.21907   0.00000  Uiso   1.00
C189   C     0.31799   0.52788   0.21907   0.00000  Uiso   1.00
C190   C     0.16662   0.41998   0.25009   0.00000  Uiso   1.00
C191   C     0.19284   0.50020   0.14738   0.00000  Uiso   1.00
C192   C     0.26801   0.51504   0.49966   0.00000  Uiso   1.00
C193   C     0.20824   0.50746   0.08835   0.00000  Uiso   1.00
C194   C     0.07907   0.52863   0.43726   0.00000  Uiso   1.00
C195   C     0.06622   0.54253   0.49110   0.00000  Uiso   1.00
C196   C     0.10053   0.54521   0.01732   0.00000  Uiso   1.00
H197   H     0.24357   0.37092   0.23024   0.00000  Uiso   1.00
H198   H     0.08959   0.37081   0.27064   0.00000  Uiso   1.00
H199   H     0.08961   0.62903   0.27071   0.00000  Uiso   1.00
H200   H     0.27581   0.44968   0.30557   0.00000  Uiso   1.00
H201   H     0.02658   0.44964   0.30547   0.00000  Uiso   1.00
H202   H     0.05755   0.55022   0.19428   0.00000  Uiso   1.00
H203   H     0.30680   0.55018   0.19429   0.00000  Uiso   1.00
H204   H     0.30406   0.51009   0.47337   0.00000  Uiso   1.00
H205   H     0.13736   0.52437   0.09282   0.00000  Uiso   1.00
H206   H     0.05170   0.52143   0.41941   0.00000  Uiso   1.00
H207   H     0.08858   0.55320   0.06012   0.00000  Uiso   1.00
H208   H     0.24359   0.62918   0.23033   0.00000  Uiso   1.00
N209   N     0.04760   0.50001   0.25002   0.00000  Uiso   1.00
N210   N     0.28573   0.49998   0.25001   0.00000  Uiso   1.00
O211   O     0.12846   0.56108   0.25001   0.00000  Uiso   1.00
O212   O     0.20490   0.56107   0.25001   0.00000  Uiso   1.00
O213   O     0.10947   0.50000   0.32681   0.00000  Uiso   1.00
O214   O     0.18591   0.49999   0.32681   0.00000  Uiso   1.00
O215   O     0.12843   0.43893   0.25000   0.00000  Uiso   1.00
O216   O     0.20488   0.43892   0.25000   0.00000  Uiso   1.00
O217   O     0.14742   0.50001   0.17319   0.00000  Uiso   1.00
O218   O     0.22387   0.50000   0.17319   0.00000  Uiso   1.00
Zn219  Zn    0.11562   0.50001   0.25000   0.00000  Uiso   1.00
Zn220  Zn    0.21771   0.49999   0.25000   0.00000  Uiso   1.00
I221   I     0.30757   0.46826   0.07793   0.00000  Uiso   1.00
I222   I     0.31565   0.56179   0.37631   0.00000  Uiso   1.00
F223   F     0.02038   0.55223   0.01865   0.00000  Uiso   1.00
F224   F     0.22020   0.56456   0.34950   0.00000  Uiso   1.00
C225   C     0.50001   0.58002   0.25006   0.00000  Uiso   1.00
C226   C     0.48243   0.53916   0.48750   0.00000  Uiso   1.00
C227   C     0.49548   0.53732   0.43038   0.00000  Uiso   1.00
C228   C     0.51847   0.53247   0.01163   0.00000  Uiso   1.00
C229   C     0.56689   0.53117   0.47838   0.00000  Uiso   1.00
C230   C     0.57881   0.54448   0.42395   0.00000  Uiso   1.00
C231   C     0.54285   0.54784   0.40018   0.00000  Uiso   1.00
C232   C     0.50711   0.52244   0.06663   0.00000  Uiso   1.00
C233   C     0.58872   0.50163   0.05386   0.00000  Uiso   1.00
C234   C     0.46064   0.52475   0.40650   0.00000  Uiso   1.00
C235   C     0.54320   0.64538   0.23935   0.00000  Uiso   1.00
C236   C     0.47454   0.50695   0.35098   0.00000  Uiso   1.00
C237   C     0.54318   0.35467   0.23930   0.00000  Uiso   1.00
C238   C     0.49991   0.37581   0.25032   0.00000  Uiso   1.00
C239   C     0.45664   0.35460   0.26160   0.00000  Uiso   1.00
C240   C     0.45666   0.64530   0.26164   0.00000  Uiso   1.00
C241   C     0.49995   0.62417   0.25038   0.00000  Uiso   1.00
C242   C     0.63413   0.47200   0.28079   0.00000  Uiso   1.00
C243   C     0.34872   0.47197   0.28072   0.00000  Uiso   1.00
C244   C     0.36590   0.52789   0.21907   0.00000  Uiso   1.00
C245   C     0.65132   0.52788   0.21907   0.00000  Uiso   1.00
C246   C     0.49995   0.41998   0.25009   0.00000  Uiso   1.00
C247   C     0.52618   0.50020   0.14738   0.00000  Uiso   1.00
C248   C     0.60135   0.51504   0.49966   0.00000  Uiso   1.00
C249   C     0.54157   0.50746   0.08835   0.00000  Uiso   1.00
C250   C     0.41241   0.52863   0.43726   0.00000  Uiso   1.00
C251   C     0.39955   0.54253   0.49110   0.00000  Uiso   1.00
C252   C     0.43386   0.54521   0.01732   0.00000  Uiso   1.00
H253   H     0.57690   0.37092   0.23024   0.00000  Uiso   1.00
H254   H     0.42292   0.37081   0.27064   0.00000  Uiso   1.00
H255   H     0.42295   0.62903   0.27071   0.00000  Uiso   1.00
H256   H     0.60914   0.44968   0.30557   0.00000  Uiso   1.00
H257   H     0.35992   0.44964   0.30547   0.00000  Uiso   1.00
H258   H     0.39088   0.55022   0.19428   0.00000  Uiso   1.00
H259   H     0.64013   0.55018   0.19429   0.00000  Uiso   1.00
H260   H     0.63740   0.51009   0.47337   0.00000  Uiso   1.00
H261   H     0.47069   0.52437   0.09282   0.00000  Uiso   1.00
H262   H     0.38503   0.52143   0.41941   0.00000  Uiso   1.00
H263   H     0.42192   0.55320   0.06012   0.00000  Uiso   1.00
H264   H     0.57692   0.62918   0.23033   0.00000  Uiso   1.00
N265   N     0.38093   0.50001   0.25002   0.00000  Uiso   1.00
N266   N     0.61906   0.49998   0.25001   0.00000  Uiso   1.00
O267   O     0.46179   0.56108   0.25001   0.00000  Uiso   1.00
O268   O     0.53823   0.56107   0.25001   0.00000  Uiso   1.00
O269   O     0.44280   0.50000   0.32681   0.00000  Uiso   1.00
O270   O     0.51924   0.49999   0.32681   0.00000  Uiso   1.00
O271   O     0.46177   0.43893   0.25000   0.00000  Uiso   1.00
O272   O     0.53821   0.43892   0.25000   0.00000  Uiso   1.00
O273   O     0.48076   0.50001   0.17319   0.00000  Uiso   1.00
O274   O     0.55720   0.50000   0.17319   0.00000  Uiso   1.00
Zn275  Zn    0.44896   0.50001   0.25000   0.00000  Uiso   1.00
Zn276  Zn    0.55104   0.49999   0.25000   0.00000  Uiso   1.00
I277   I     0.64090   0.46826   0.07793   0.00000  Uiso   1.00
I278   I     0.64899   0.56179   0.37631   0.00000  Uiso   1.00
F279   F     0.35372   0.55223   0.01865   0.00000  Uiso   1.00
F280   F     0.55353   0.56456   0.34950   0.00000  Uiso   1.00
C281   C     0.83335   0.58002   0.25006   0.00000  Uiso   1.00
C282   C     0.81577   0.53916   0.48750   0.00000  Uiso   1.00
C283   C     0.82881   0.53732   0.43038   0.00000  Uiso   1.00
C284   C     0.85181   0.53247   0.01163   0.00000  Uiso   1.00
C285   C     0.90022   0.53117   0.47838   0.00000  Uiso   1.00
C286   C     0.91214   0.54448   0.42395   0.00000  Uiso   1.00
C287   C     0.87618   0.54784   0.40018   0.00000  Uiso   1.00
C288   C     0.84045   0.52244   0.06663   0.00000  Uiso   1.00
C289   C     0.92205   0.50163   0.05386   0.00000  Uiso   1.00
C290   C     0.79397   0.52475   0.40650   0.00000  Uiso   1.00
C291   C     0.87653   0.64538   0.23935   0.00000  Uiso   1.00
C292   C     0.80787   0.50695   0.35098   0.00000  Uiso   1.00
C293   C     0.87652   0.35467   0.23930   0.00000  Uiso   1.00
C294   C     0.83325   0.37581   0.25032   0.00000  Uiso   1.00
C295   C     0.78997   0.35460   0.26160   0.00000  Uiso   1.00
C296   C     0.78999   0.64530   0.26164   0.00000  Uiso   1.00
C297   C     0.83329   0.62417   0.25038   0.00000  Uiso   1.00
C298   C     0.96746   0.47200   0.28079   0.00000  Uiso   1.00
C299   C     0.68206   0.47197   0.28072   0.00000  Uiso   1.00
C300   C     0.69923   0.52789   0.21907   0.00000  Uiso   1.00
C301   C     0.98466   0.52788   0.21907   0.00000  Uiso   1.00
C302   C     0.83328   0.41998   0.25009   0.00000  Uiso   1.00
C303   C     0.85951   0.50020   0.14738   0.00000  Uiso   1.00
C304   C     0.93468   0.51504   0.49966   0.00000  Uiso   1.00
C305   C     0.87490   0.50746   0.08835   0.00000  Uiso   1.00
C306   C     0.74574   0.52863   0.43726   0.00000  Uiso   1.00
C307   C     0.73289   0.54253   0.49110   0.00000  Uiso   1.00
C308   C     0.76720   0.54521   0.01732   0.00000  Uiso   1.00
H309   H     0.91023   0.37092   0.23024   0.00000  Uiso   1.00
H310   H     0.75626   0.37081   0.27064   0.00000  Uiso   1.00
H311   H     0.75628   0.62903   0.27071   0.00000  Uiso   1.00
H312   H     0.94248   0.44968   0.30557   0.00000  Uiso   1.00
H313   H     0.69325   0.44964   0.30547   0.00000  Uiso   1.00
H314   H     0.72421   0.55022   0.19428   0.00000  Uiso   1.00
H315   H     0.97347   0.55018   0.19429   0.00000  Uiso   1.00
H316   H     0.97073   0.51009   0.47337   0.00000  Uiso   1.00
H317   H     0.80402   0.52437   0.09282   0.00000  Uiso   1.00
H318   H     0.71836   0.52143   0.41941   0.00000  Uiso   1.00
H319   H     0.75525   0.55320   0.06012   0.00000  Uiso   1.00
H320   H     0.91025   0.62918   0.23033   0.00000  Uiso   1.00
N321   N     0.71426   0.50001   0.25002   0.00000  Uiso   1.00
N322   N     0.95239   0.49998   0.25001   0.00000  Uiso   1.00
O323   O     0.79512   0.56108   0.25001   0.00000  Uiso   1.00
O324   O     0.87157   0.56107   0.25001   0.00000  Uiso   1.00
O325   O     0.77613   0.50000   0.32681   0.00000  Uiso   1.00
O326   O     0.85258   0.49999   0.32681   0.00000  Uiso   1.00
O327   O     0.79510   0.43893   0.25000   0.00000  Uiso   1.00
O328   O     0.87154   0.43892   0.25000   0.00000  Uiso   1.00
O329   O     0.81409   0.50001   0.17319   0.00000  Uiso   1.00
O330   O     0.89053   0.50000   0.17319   0.00000  Uiso   1.00
Zn331  Zn    0.78229   0.50001   0.25000   0.00000  Uiso   1.00
Zn332  Zn    0.88438   0.49999   0.25000   0.00000  Uiso   1.00
I333   I     0.97423   0.46826   0.07793   0.00000  Uiso   1.00
I334   I     0.98232   0.56179   0.37631   0.00000  Uiso   1.00
F335   F     0.68705   0.55223   0.01865   0.00000  Uiso   1.00
F336   F     0.88687   0.56456   0.34950   0.00000  Uiso   1.00
C337   C     0.16668   0.91335   0.25006   0.00000  Uiso   1.00
C338   C     0.14910   0.87249   0.48750   0.00000  Uiso   1.00
C339   C     0.16215   0.87065   0.43038   0.00000  Uiso   1.00
C340   C     0.18514   0.86580   0.01163   0.00000  Uiso   1.00
C341   C     0.23356   0.86451   0.47838   0.00000  Uiso   1.00
C342   C     0.24548   0.87782   0.42395   0.00000  Uiso   1.00
C343   C     0.20952   0.88118   0.40018   0.00000  Uiso   1.00
C344   C     0.17378   0.85577   0.06663   0.00000  Uiso   1.00
C345   C     0.25538   0.83496   0.05386   0.00000  Uiso   1.00
C346   C     0.12731   0.85808   0.40650   0.00000  Uiso   1.00
C347   C     0.20987   0.97871   0.23935   0.00000  Uiso   1.00
C348   C     0.14121   0.84028   0.35098   0.00000  Uiso   1.00
C349   C     0.20985   0.68800   0.23930   0.00000  Uiso   1.00
C350   C     0.16658   0.70915   0.25032   0.00000  Uiso   1.00
C351   C     0.12331   0.68793   0.26160   0.00000  Uiso   1.00
C352   C     0.12332   0.97863   0.26164   0.00000  Uiso   1.00
C353   C     0.16662   0.95750   0.25038   0.00000  Uiso   1.00
C354   C     0.30080   0.80534   0.28079   0.00000  Uiso   1.00
C355   C     0.01539   0.80530   0.28072   0.00000  Uiso   1.00
C356   C     0.03256   0.86122   0.21907   0.00000  Uiso   1.00
C357   C     0.31799   0.86121   0.21907   0.00000  Uiso   1.00
C358   C     0.16662   0.75332   0.25009   0.00000  Uiso   1.00
C359   C     0.19284   0.83353   0.14738   0.00000  Uiso   1.00
C360   C     0.26801   0.84838   0.49966   0.00000  Uiso   1.00
C361   C     0.20824   0.84079   0.08835   0.00000  Uiso   1.00
C362   C     0.07907   0.86196   0.43726   0.00000  Uiso   1.00
C363   C     0.06622   0.87586   0.49110   0.00000  Uiso   1.00
C364   C     0.10053   0.87854   0.01732   0.00000  Uiso   1.00
H365   H     0.24357   0.70425   0.23024   0.00000  Uiso   1.00
H366   H     0.08959   0.70414   0.27064   0.00000  Uiso   1.00
H367   H     0.08961   0.96236   0.27071   0.00000  Uiso   1.00
H368   H     0.27581   0.78301   0.30557   0.00000  Uiso   1.00
H369   H     0.02658   0.78297   0.30547   0.00000  Uiso   1.00
H370   H     0.05755   0.88355   0.19428   0.00000  Uiso   1.00
H371   H     0.30680   0.88351   0.19429   0.00000  Uiso   1.00
H372   H     0.30406   0.84342   0.47337   0.00000  Uiso   1.00
H373   H     0.13736   0.85771   0.09282   0.00000  Uiso   1.00
H374   H     0.05170   0.85476   0.41941   0.00000  Uiso   1.00
H375   H     0.08858   0.88653   0.06012   0.00000  Uiso   1.00
H376   H     0.24359   0.96251   0.23033   0.00000  Uiso   1.00
N377   N     0.04760   0.83334   0.25002   0.00000  Uiso   1.00
N378   N     0.28573   0.83331   0.25001   0.00000  Uiso   1.00
O379   O     0.12846   0.89442   0.25001   0.00000  Uiso   1.00
O380   O     0.20490   0.89441   0.25001   0.00000  Uiso   1.00
O381   O     0.10947   0.83333   0.32681   0.00000  Uiso   1.00
O382   O     0.18591   0.83332   0.32681   0.00000  Uiso   1.00
O383   O     0.12843   0.77226   0.25000   0.00000  Uiso   1.00
O384   O     0.20488   0.77225   0.25000   0.00000  Uiso   1.00
O385   O     0.14742   0.83335   0.17319   0.00000  Uiso   1.00
O386   O     0.22387   0.83334   0.17319   0.00000  Uiso   1.00
Zn387  Zn    0.11562   0.83334   0.25000   0.00000  Uiso   1.00
Zn388  Zn    0.21771   0.83333   0.25000   0.00000  Uiso   1.00
I389   I     0.30757   0.80159   0.07793   0.00000  Uiso   1.00
I390   I     0.31565   0.89512   0.37631   0.00000  Uiso   1.00
F391   F     0.02038   0.88557   0.01865   0.00000  Uiso   1.00
F392   F     0.22020   0.89789   0.34950   0.00000  Uiso   1.00
C393   C     0.50001   0.91335   0.25006   0.00000  Uiso   1.00
C394   C     0.48243   0.87249   0.48750   0.00000  Uiso   1.00
C395   C     0.49548   0.87065   0.43038   0.00000  Uiso   1.00
C396   C     0.51847   0.86580   0.01163   0.00000  Uiso   1.00
C397   C     0.56689   0.86451   0.47838   0.00000  Uiso   1.00
C398   C     0.57881   0.87782   0.42395   0.00000  Uiso   1.00
C399   C     0.54285   0.88118   0.40018   0.00000  Uiso   1.00
C400   C     0.50711   0.85577   0.06663   0.00000  Uiso   1.00
C401   C     0.58872   0.83496   0.05386   0.00000  Uiso   1.00
C402   C     0.46064   0.85808   0.40650   0.00000  Uiso   1.00
C403   C     0.54320   0.97871   0.23935   0.00000  Uiso   1.00
C404   C     0.47454   0.84028   0.35098   0.00000  Uiso   1.00
C405   C     0.54318   0.68800   0.23930   0.00000  Uiso   1.00
C406   C     0.49991   0.70915   0.25032   0.00000  Uiso   1.00
C407   C     0.45664   0.68793   0.26160   0.00000  Uiso   1.00
C408   C     0.45666   0.97863   0.26164   0.00000  Uiso   1.00
C409   C     0.49995   0.95750   0.25038   0.00000  Uiso   1.00
C410   C     0.63413   0.80534   0.28079   0.00000  Uiso   1.00
C411   C     0.34872   0.80530   0.28072   0.00000  Uiso   1.00
C412   C     0.36590   0.86122   0.21907   0.00000  Uiso   1.00
C413   C     0.65132   0.86121   0.21907   0.00000  Uiso   1.00
C414   C     0.49995   0.75332   0.25009   0.00000  Uiso   1.00
C415   C     0.52618   0.83353   0.14738   0.00000  Uiso   1.00
C416   C     0.60135   0.84838   0.49966   0.00000  Uiso   1.00
C417   C     0.54157   0.84079   0.08835   0.00000  Uiso   1.00
C418   C     0.41241   0.86196   0.43726   0.00000  Uiso   1.00
C419   C     0.39955   0.87586   0.49110   0.00000  Uiso   1.00
C420   C     0.43386   0.87854   0.01732   0.00000  Uiso   1.00
H421   H     0.57690   0.70425   0.23024   0.00000  Uiso   1.00
H422   H     0.42292   0.70414   0.27064   0.00000  Uiso   1.00
H423   H     0.42295   0.96236   0.27071   0.00000  Uiso   1.00
H424   H     0.60914   0.78301   0.30557   0.00000  Uiso   1.00
H425   H     0.35992   0.78297   0.30547   0.00000  Uiso   1.00
H426   H     0.39088   0.88355   0.19428   0.00000  Uiso   1.00
H427   H     0.64013   0.88351   0.19429   0.00000  Uiso   1.00
H428   H     0.63740   0.84342   0.47337   0.00000  Uiso   1.00
H429   H     0.47069   0.85771   0.09282   0.00000  Uiso   1.00
H430   H     0.38503   0.85476   0.41941   0.00000  Uiso   1.00
H431   H     0.42192   0.88653   0.06012   0.00000  Uiso   1.00
H432   H     0.57692   0.96251   0.23033   0.00000  Uiso   1.00
N433   N     0.38093   0.83334   0.25002   0.00000  Uiso   1.00
N434   N     0.61906   0.83331   0.25001   0.00000  Uiso   1.00
O435   O     0.46179   0.89442   0.25001   0.00000  Uiso   1.00
O436   O     0.53823   0.89441   0.25001   0.00000  Uiso   1.00
O437   O     0.44280   0.83333   0.32681   0.00000  Uiso   1.00
O438   O     0.51924   0.83332   0.32681   0.00000  Uiso   1.00
O439   O     0.46177   0.77226   0.25000   0.00000  Uiso   1.00
O440   O     0.53821   0.77225   0.25000   0.00000  Uiso   1.00
O441   O     0.48076   0.83335   0.17319   0.00000  Uiso   1.00
O442   O     0.55720   0.83334   0.17319   0.00000  Uiso   1.00
Zn443  Zn    0.44896   0.83334   0.25000   0.00000  Uiso   1.00
Zn444  Zn    0.55104   0.83333   0.25000   0.00000  Uiso   1.00
I445   I     0.64090   0.80159   0.07793   0.00000  Uiso   1.00
I446   I     0.64899   0.89512   0.37631   0.00000  Uiso   1.00
F447   F     0.35372   0.88557   0.01865   0.00000  Uiso   1.00
F448   F     0.55353   0.89789   0.34950   0.00000  Uiso   1.00
C449   C     0.83335   0.91335   0.25006   0.00000  Uiso   1.00
C450   C     0.81577   0.87249   0.48750   0.00000  Uiso   1.00
C451   C     0.82881   0.87065   0.43038   0.00000  Uiso   1.00
C452   C     0.85181   0.86580   0.01163   0.00000  Uiso   1.00
C453   C     0.90022   0.86451   0.47838   0.00000  Uiso   1.00
C454   C     0.91214   0.87782   0.42395   0.00000  Uiso   1.00
C455   C     0.87618   0.88118   0.40018   0.00000  Uiso   1.00
C456   C     0.84045   0.85577   0.06663   0.00000  Uiso   1.00
C457   C     0.92205   0.83496   0.05386   0.00000  Uiso   1.00
C458   C     0.79397   0.85808   0.40650   0.00000  Uiso   1.00
C459   C     0.87653   0.97871   0.23935   0.00000  Uiso   1.00
C460   C     0.80787   0.84028   0.35098   0.00000  Uiso   1.00
C461   C     0.87652   0.68800   0.23930   0.00000  Uiso   1.00
C462   C     0.83325   0.70915   0.25032   0.00000  Uiso   1.00
C463   C     0.78997   0.68793   0.26160   0.00000  Uiso   1.00
C464   C     0.78999   0.97863   0.26164   0.00000  Uiso   1.00
C465   C     0.83329   0.95750   0.25038   0.00000  Uiso   1.00
C466   C     0.96746   0.80534   0.28079   0.00000  Uiso   1.00
C467   C     0.68206   0.80530   0.28072   0.00000  Uiso   1.00
C468   C     0.69923   0.86122   0.21907   0.00000  Uiso   1.00
C469   C     0.98466   0.86121   0.21907   0.00000  Uiso   1.00
C470   C     0.83328   0.75332   0.25009   0.00000  Uiso   1.00
C471   C     0.85951   0.83353   0.14738   0.00000  Uiso   1.00
C472   C     0.93468   0.84838   0.49966   0.00000  Uiso   1.00
C473   C     0.87490   0.84079   0.08835   0.00000  Uiso   1.00
C474   C     0.74574   0.86196   0.43726   0.00000  Uiso   1.00
C475   C     0.73289   0.87586   0.49110   0.00000  Uiso   1.00
C476   C     0.76720   0.87854   0.01732   0.00000  Uiso   1.00
H477   H     0.91023   0.70425   0.23024   0.00000  Uiso   1.00
H478   H     0.75626   0.70414   0.27064   0.00000  Uiso   1.00
H479   H     0.75628   0.96236   0.27071   0.00000  Uiso   1.00
H480   H     0.94248   0.78301   0.30557   0.00000  Uiso   1.00
H481   H     0.69325   0.78297   0.30547   0.00000  Uiso   1.00
H482   H     0.72421   0.88355   0.19428   0.00000  Uiso   1.00
H483   H     0.97347   0.88351   0.19429   0.00000  Uiso   1.00
H484   H     0.97073   0.84342   0.47337   0.00000  Uiso   1.00
H485   H     0.80402   0.85771   0.09282   0.00000  Uiso   1.00
H486   H     0.71836   0.85476   0.41941   0.00000  Uiso   1.00
H487   H     0.75525   0.88653   0.06012   0.00000  Uiso   1.00
H488   H     0.91025   0.96251   0.23033   0.00000  Uiso   1.00
N489   N     0.71426   0.83334   0.25002   0.00000  Uiso   1.00
N490   N     0.95239   0.83331   0.25001   0.00000  Uiso   1.00
O491   O     0.79512   0.89442   0.25001   0.00000  Uiso   1.00
O492   O     0.87157   0.89441   0.25001   0.00000  Uiso   1.00
O493   O     0.77613   0.83333   0.32681   0.00000  Uiso   1.00
O494   O     0.85258   0.83332   0.32681   0.00000  Uiso   1.00
O495   O     0.79510   0.77226   0.25000   0.00000  Uiso   1.00
O496   O     0.87154   0.77225   0.25000   0.00000  Uiso   1.00
O497   O     0.81409   0.83335   0.17319   0.00000  Uiso   1.00
O498   O     0.89053   0.83334   0.17319   0.00000  Uiso   1.00
Zn499  Zn    0.78229   0.83334   0.25000   0.00000  Uiso   1.00
Zn500  Zn    0.88438   0.83333   0.25000   0.00000  Uiso   1.00
I501   I     0.97423   0.80159   0.07793   0.00000  Uiso   1.00
I502   I     0.98232   0.89512   0.37631   0.00000  Uiso   1.00
F503   F     0.68705   0.88557   0.01865   0.00000  Uiso   1.00
F504   F     0.88687   0.89789   0.34950   0.00000  Uiso   1.00
C505   C     0.16668   0.24668   0.75006   0.00000  Uiso   1.00
C506   C     0.14910   0.20582   0.98750   0.00000  Uiso   1.00
C507   C     0.16215   0.20398   0.93038   0.00000  Uiso   1.00
C508   C     0.18514   0.19913   0.51163   0.00000  Uiso   1.00
C509   C     0.23356   0.19784   0.97838   0.00000  Uiso   1.00
C510   C     0.24548   0.21115   0.92395   0.00000  Uiso   1.00
C511   C     0.20952   0.21451   0.90018   0.00000  Uiso   1.00
C512   C     0.17378   0.18911   0.56663   0.00000  Uiso   1.00
C513   C     0.25538   0.16829   0.55386   0.00000  Uiso   1.00
C514   C     0.12731   0.19141   0.90650   0.00000  Uiso   1.00
C515   C     0.20987   0.31205   0.73935   0.00000  Uiso   1.00
C516   C     0.14121   0.17362   0.85098   0.00000  Uiso   1.00
C517   C     0.20985   0.02133   0.73930   0.00000  Uiso   1.00
C518   C     0.16658   0.04248   0.75032   0.00000  Uiso   1.00
C519   C     0.12331   0.02126   0.76160   0.00000  Uiso   1.00
C520   C     0.12332   0.31197   0.76164   0.00000  Uiso   1.00
C521   C     0.16662   0.29083   0.75038   0.00000  Uiso   1.00
C522   C     0.30080   0.13867   0.78079   0.00000  Uiso   1.00
C523   C     0.01539   0.13864   0.78072   0.00000  Uiso   1.00
C524   C     0.03256   0.19455   0.71907   0.00000  Uiso   1.00
C525   C     0.31799   0.19454   0.71907   0.00000  Uiso   1.00
C526   C     0.16662   0.08665   0.75009   0.00000  Uiso   1.00
C527   C     0.19284   0.16686   0.64738   0.00000  Uiso   1.00
C528   C     0.26801   0.18171   0.99966   0.00000  Uiso   1.00
C529   C     0.20824   0.17412   0.58835   0.00000  Uiso   1.00
C530   C     0.07907   0.19530   0.93726   0.00000  Uiso   1.00
C531   C     0.06622   0.20919   0.99110   0.00000  Uiso   1.00
C532   C     0.10053   0.21187   0.51732   0.00000  Uiso   1.00
H533   H     0.24357   0.03759   0.73024   0.00000  Uiso   1.00
H534   H     0.08959   0.03747   0.77064   0.00000  Uiso   1.00
H535   H     0.08961   0.29569   0.77071   0.00000  Uiso   1.00
H536   H     0.27581   0.11635   0.80557   0.00000  Uiso   1.00
H537   H     0.02658   0.11630   0.80547   0.00000  Uiso   1.00
H538   H     0.05755   0.21688   0.69428   0.00000  Uiso   1.00
H539   H     0.30680   0.21685   0.69429   0.00000  Uiso   1.00
H540   H     0.30406   0.17675   0.97337   0.00000  Uiso   1.00
H541   H     0.13736   0.19104   0.59282   0.00000  Uiso   1.00
H542   H     0.05170   0.18810   0.91941   0.00000  Uiso   1.00
H543   H     0.08858   0.21987   0.56012   0.00000  Uiso   1.00
H544   H     0.24359   0.29585   0.73033   0.00000  Uiso   1.00
N545   N     0.04760   0.16668   0.75002   0.00000  Uiso   1.00
N546   N     0.28573   0.16665   0.75001   0.00000  Uiso   1.00
O547   O     0.12846   0.22775   0.75001   0.00000  Uiso   1.00
O548   O     0.20490   0.22774   0.75001   0.00000  Uiso   1.00
O549   O     0.10947   0.16666   0.82681   0.00000  Uiso   1.00
O550   O     0.18591   0.16665   0.82681   0.00000  Uiso   1.00
O551   O     0.12843   0.10559   0.75000   0.00000  Uiso   1.00
O552   O     0.20488   0.10558   0.75000   0.00000  Uiso   1.00
O553   O     0.14742   0.16668   0.67319   0.00000  Uiso   1.00
O554   O     0.22387   0.16667   0.67319   0.00000  Uiso   1.00
Zn555  Zn    0.11562   0.16667   0.75000   0.00000  Uiso   1.00
Zn556  Zn    0.21771   0.16666   0.75000   0.00000  Uiso   1.00
I557   I     0.30757   0.13492   0.57793   0.00000  Uiso   1.00
I558   I     0.31565   0.22845   0.87631   0.00000  Uiso   1.00
F559   F     0.02038   0.21890   0.51865   0.00000  Uiso   1.00
F560   F     0.22020   0.23122   0.84950   0.00000  Uiso   1.00
C561   C     0.50001   0.24668   0.75006   0.00000  Uiso   1.00
C562   C     0.48243   0.20582   0.98750   0.00000  Uiso   1.00
C563   C     0.49548   0.20398   0.93038   0.00000  Uiso   1.00
C564   C     0.51847   0.19913   0.51163   0.00000  Uiso   1.00
C565   C     0.56689   0.19784   0.97838   0.00000  Uiso   1.00
C566   C     0.57881   0.21115   0.92395   0.00000  Uiso   1.00
C567   C     0.54285   0.21451   0.90018   0.00000  Uiso   1.00
C568   C     0.50711   0.18911   0.56663   0.00000  Uiso   1.00
C569   C     0.58872   0.16829   0.55386   0.00000  Uiso   1.00
C570   C     0.46064   0.19141   0.90650   0.00000  Uiso   1.00
C571   C     0.54320   0.31205   0.73935   0.00000  Uiso   1.00
C572   C     0.47454   0.17362   0.85098   0.00000  Uiso   1.00
C573   C     0.54318   0.02133   0.73930   0.00000  Uiso   1.00
C574   C     0.49991   0.04248   0.75032   0.00000  Uiso   1.00
C575   C     0.45664   0.02126   0.76160   0.00000  Uiso   1.00
C576   C     0.45666   0.31197   0.76164   0.00000  Uiso   1.00
C577   C     0.49995   0.29083   0.75038   0.00000  Uiso   1.00
C578   C     0.63413   0.13867   0.78079   0.00000  Uiso   1.00
C579   C     0.34872   0.13864   0.78072   0.00000  Uiso   1.00
C580   C     0.36590   0.19455   0.71907   0.00000  Uiso   1.00
C581   C     0.65132   0.19454   0.71907   0.00000  Uiso   1.00
C582   C     0.49995   0.08665   0.75009   0.00000  Uiso   1.00
C583   C     0.52618   0.16686   0.64738   0.00000  Uiso   1.00
C584   C     0.60135   0.18171   0.99966   0.00000  Uiso   1.00
C585   C     0.54157   0.17412   0.58835   0.00000  Uiso   1.00
C586   C     0.41241   0.19530   0.93726   0.00000  Uiso   1.00
C587   C     0.39955   0.20919   0.99110   0.00000  Uiso   1.00
C588   C     0.43386   0.21187   0.51732   0.00000  Uiso   1.00
H589   H     0.57690   0.03759   0.73024   0.00000  Uiso   1.00
H590   H     0.42292   0.03747   0.77064   0.00000  Uiso   1.00
H591   H     0.42295   0.29569   0.77071   0.00000  Uiso   1.00
H592   H     0.60914   0.11635   0.80557   0.00000  Uiso   1.00
H593   H     0.35992   0.11630   0.80547   0.00000  Uiso   1.00
H594   H     0.39088   0.21688   0.69428   0.00000  Uiso   1.00
H595   H     0.64013   0.21685   0.69429   0.00000  Uiso   1.00
H596   H     0.63740   0.17675   0.97337   0.00000  Uiso   1.00
H597   H     0.47069   0.19104   0.59282   0.00000  Uiso   1.00
H598   H     0.38503   0.18810   0.91941   0.00000  Uiso   1.00
H599   H     0.42192   0.21987   0.56012   0.00000  Uiso   1.00
H600   H     0.57692   0.29585   0.73033   0.00000  Uiso   1.00
N601   N     0.38093   0.16668   0.75002   0.00000  Uiso   1.00
N602   N     0.61906   0.16665   0.75001   0.00000  Uiso   1.00
O603   O     0.46179   0.22775   0.75001   0.00000  Uiso   1.00
O604   O     0.53823   0.22774   0.75001   0.00000  Uiso   1.00
O605   O     0.44280   0.16666   0.82681   0.00000  Uiso   1.00
O606   O     0.51924   0.16665   0.82681   0.00000  Uiso   1.00
O607   O     0.46177   0.10559   0.75000   0.00000  Uiso   1.00
O608   O     0.53821   0.10558   0.75000   0.00000  Uiso   1.00
O609   O     0.48076   0.16668   0.67319   0.00000  Uiso   1.00
O610   O     0.55720   0.16667   0.67319   0.00000  Uiso   1.00
Zn611  Zn    0.44896   0.16667   0.75000   0.00000  Uiso   1.00
Zn612  Zn    0.55104   0.16666   0.75000   0.00000  Uiso   1.00
I613   I     0.64090   0.13492   0.57793   0.00000  Uiso   1.00
I614   I     0.64899   0.22845   0.87631   0.00000  Uiso   1.00
F615   F     0.35372   0.21890   0.51865   0.00000  Uiso   1.00
F616   F     0.55353   0.23122   0.84950   0.00000  Uiso   1.00
C617   C     0.83335   0.24668   0.75006   0.00000  Uiso   1.00
C618   C     0.81577   0.20582   0.98750   0.00000  Uiso   1.00
C619   C     0.82881   0.20398   0.93038   0.00000  Uiso   1.00
C620   C     0.85181   0.19913   0.51163   0.00000  Uiso   1.00
C621   C     0.90022   0.19784   0.97838   0.00000  Uiso   1.00
C622   C     0.91214   0.21115   0.92395   0.00000  Uiso   1.00
C623   C     0.87618   0.21451   0.90018   0.00000  Uiso   1.00
C624   C     0.84045   0.18911   0.56663   0.00000  Uiso   1.00
C625   C     0.92205   0.16829   0.55386   0.00000  Uiso   1.00
C626   C     0.79397   0.19141   0.90650   0.00000  Uiso   1.00
C627   C     0.87653   0.31205   0.73935   0.00000  Uiso   1.00
C628   C     0.80787   0.17362   0.85098   0.00000  Uiso   1.00
C629   C     0.87652   0.02133   0.73930   0.00000  Uiso   1.00
C630   C     0.83325   0.04248   0.75032   0.00000  Uiso   1.00
C631   C     0.78997   0.02126   0.76160   0.00000  Uiso   1.00
C632   C     0.78999   0.31197   0.76164   0.00000  Uiso   1.00
C633   C     0.83329   0.29083   0.75038   0.00000  Uiso   1.00
C634   C     0.96746   0.13867   0.78079   0.00000  Uiso   1.00
C635   C     0.68206   0.13864   0.78072   0.00000  Uiso   1.00
C636   C     0.69923   0.19455   0.71907   0.00000  Uiso   1.00
C637   C     0.98466   0.19454   0.71907   0.00000  Uiso   1.00
C638   C     0.83328   0.08665   0.75009   0.00000  Uiso   1.00
C639   C     0.85951   0.16686   0.64738   0.00000  Uiso   1.00
C640   C     0.93468   0.18171   0.99966   0.00000  Uiso   1.00
C641   C     0.87490   0.17412   0.58835   0.00000  Uiso   1.00
C642   C     0.74574   0.19530   0.93726   0.00000  Uiso   1.00
C643   C     0.73289   0.20919   0.99110   0.00000  Uiso   1.00
C644   C     0.76720   0.21187   0.51732   0.00000  Uiso   1.00
H645   H     0.91023   0.03759   0.73024   0.00000  Uiso   1.00
H646   H     0.75626   0.03747   0.77064   0.00000  Uiso   1.00
H647   H     0.75628   0.29569   0.77071   0.00000  Uiso   1.00
H648   H     0.94248   0.11635   0.80557   0.00000  Uiso   1.00
H649   H     0.69325   0.11630   0.80547   0.00000  Uiso   1.00
H650   H     0.72421   0.21688   0.69428   0.00000  Uiso   1.00
H651   H     0.97347   0.21685   0.69429   0.00000  Uiso   1.00
H652   H     0.97073   0.17675   0.97337   0.00000  Uiso   1.00
H653   H     0.80402   0.19104   0.59282   0.00000  Uiso   1.00
H654   H     0.71836   0.18810   0.91941   0.00000  Uiso   1.00
H655   H     0.75525   0.21987   0.56012   0.00000  Uiso   1.00
H656   H     0.91025   0.29585   0.73033   0.00000  Uiso   1.00
N657   N     0.71426   0.16668   0.75002   0.00000  Uiso   1.00
N658   N     0.95239   0.16665   0.75001   0.00000  Uiso   1.00
O659   O     0.79512   0.22775   0.75001   0.00000  Uiso   1.00
O660   O     0.87157   0.22774   0.75001   0.00000  Uiso   1.00
O661   O     0.77613   0.16666   0.82681   0.00000  Uiso   1.00
O662   O     0.85258   0.16665   0.82681   0.00000  Uiso   1.00
O663   O     0.79510   0.10559   0.75000   0.00000  Uiso   1.00
O664   O     0.87154   0.10558   0.75000   0.00000  Uiso   1.00
O665   O     0.81409   0.16668   0.67319   0.00000  Uiso   1.00
O666   O     0.89053   0.16667   0.67319   0.00000  Uiso   1.00
Zn667  Zn    0.78229   0.16667   0.75000   0.00000  Uiso   1.00
Zn668  Zn    0.88438   0.16666   0.75000   0.00000  Uiso   1.00
I669   I     0.97423   0.13492   0.57793   0.00000  Uiso   1.00
I670   I     0.98232   0.22845   0.87631   0.00000  Uiso   1.00
F671   F     0.68705   0.21890   0.51865   0.00000  Uiso   1.00
F672   F     0.88687   0.23122   0.84950   0.00000  Uiso   1.00
C673   C     0.16668   0.58002   0.75006   0.00000  Uiso   1.00
C674   C     0.14910   0.53916   0.98750   0.00000  Uiso   1.00
C675   C     0.16215   0.53732   0.93038   0.00000  Uiso   1.00
C676   C     0.18514   0.53247   0.51163   0.00000  Uiso   1.00
C677   C     0.23356   0.53117   0.97838   0.00000  Uiso   1.00
C678   C     0.24548   0.54448   0.92395   0.00000  Uiso   1.00
C679   C     0.20952   0.54784   0.90018   0.00000  Uiso   1.00
C680   C     0.17378   0.52244   0.56663   0.00000  Uiso   1.00
C681   C     0.25538   0.50163   0.55386   0.00000  Uiso   1.00
C682   C     0.12731   0.52475   0.90650   0.00000  Uiso   1.00
C683   C     0.20987   0.64538   0.73935   0.00000  Uiso   1.00
C684   C     0.14121   0.50695   0.85098   0.00000  Uiso   1.00
C685   C     0.20985   0.35467   0.73930   0.00000  Uiso   1.00
C686   C     0.16658   0.37581   0.75032   0.00000  Uiso   1.00
C687   C     0.12331   0.35460   0.76160   0.00000  Uiso   1.00
C688   C     0.12332   0.64530   0.76164   0.00000  Uiso   1.00
C689   C     0.16662   0.62417   0.75038   0.00000  Uiso   1.00
C690   C     0.30080   0.47200   0.78079   0.00000  Uiso   1.00
C691   C     0.01539   0.47197   0.78072   0.00000  Uiso   1.00
C692   C     0.03256   0.52789   0.71907   0.00000  Uiso   1.00
C693   C     0.31799   0.52788   0.71907   0.00000  Uiso   1.00
C694   C     0.16662   0.41998   0.75009   0.00000  Uiso   1.00
C695   C     0.19284   0.50020   0.64738   0.00000  Uiso   1.00
C696   C     0.26801   0.51504   0.99966   0.00000  Uiso   1.00
C697   C     0.20824   0.50746   0.58835   0.00000  Uiso   1.00
C698   C     0.07907   0.52863   0.93726   0.00000  Uiso   1.00
C699   C     0.06622   0.54253   0.99110   0.00000  Uiso   1.00
C700   C     0.10053   0.54521   0.51732   0.00000  Uiso   1.00
H701   H     0.24357   0.37092   0.73024   0.00000  Uiso   1.00
H702   H     0.08959   0.37081   0.77064   0.00000  Uiso   1.00
H703   H     0.08961   0.62903   0.77071   0.00000  Uiso   1.00
H704   H     0.27581   0.44968   0.80557   0.00000  Uiso   1.00
H705   H     0.02658   0.44964   0.80547   0.00000  Uiso   1.00
H706   H     0.05755   0.55022   0.69428   0.00000  Uiso   1.00
H707   H     0.30680   0.55018   0.69429   0.00000  Uiso   1.00
H708   H     0.30406   0.51009   0.97337   0.00000  Uiso   1.00
H709   H     0.13736   0.52437   0.59282   0.00000  Uiso   1.00
H710   H     0.05170   0.52143   0.91941   0.00000  Uiso   1.00
H711   H     0.08858   0.55320   0.56012   0.00000  Uiso   1.00
H712   H     0.24359   0.62918   0.73033   0.00000  Uiso   1.00
N713   N     0.04760   0.50001   0.75002   0.00000  Uiso   1.00
N714   N     0.28573   0.49998   0.75001   0.00000  Uiso   1.00
O715   O     0.12846   0.56108   0.75001   0.00000  Uiso   1.00
O716   O     0.20490   0.56107   0.75001   0.00000  Uiso   1.00
O717   O     0.10947   0.50000   0.82681   0.00000  Uiso   1.00
O718   O     0.18591   0.49999   0.82681   0.00000  Uiso   1.00
O719   O     0.12843   0.43893   0.75000   0.00000  Uiso   1.00
O720   O     0.20488   0.43892   0.75000   0.00000  Uiso   1.00
O721   O     0.14742   0.50001   0.67319   0.00000  Uiso   1.00
O722   O     0.22387   0.50000   0.67319   0.00000  Uiso   1.00
Zn723  Zn    0.11562   0.50001   0.75000   0.00000  Uiso   1.00
Zn724  Zn    0.21771   0.49999   0.75000   0.00000  Uiso   1.00
I725   I     0.30757   0.46826   0.57793   0.00000  Uiso   1.00
I726   I     0.31565   0.56179   0.87631   0.00000  Uiso   1.00
F727   F     0.02038   0.55223   0.51865   0.00000  Uiso   1.00
F728   F     0.22020   0.56456   0.84950   0.00000  Uiso   1.00
C729   C     0.50001   0.58002   0.75006   0.00000  Uiso   1.00
C730   C     0.48243   0.53916   0.98750   0.00000  Uiso   1.00
C731   C     0.49548   0.53732   0.93038   0.00000  Uiso   1.00
C732   C     0.51847   0.53247   0.51163   0.00000  Uiso   1.00
C733   C     0.56689   0.53117   0.97838   0.00000  Uiso   1.00
C734   C     0.57881   0.54448   0.92395   0.00000  Uiso   1.00
C735   C     0.54285   0.54784   0.90018   0.00000  Uiso   1.00
C736   C     0.50711   0.52244   0.56663   0.00000  Uiso   1.00
C737   C     0.58872   0.50163   0.55386   0.00000  Uiso   1.00
C738   C     0.46064   0.52475   0.90650   0.00000  Uiso   1.00
C739   C     0.54320   0.64538   0.73935   0.00000  Uiso   1.00
C740   C     0.47454   0.50695   0.85098   0.00000  Uiso   1.00
C741   C     0.54318   0.35467   0.73930   0.00000  Uiso   1.00
C742   C     0.49991   0.37581   0.75032   0.00000  Uiso   1.00
C743   C     0.45664   0.35460   0.76160   0.00000  Uiso   1.00
C744   C     0.45666   0.64530   0.76164   0.00000  Uiso   1.00
C745   C     0.49995   0.62417   0.75038   0.00000  Uiso   1.00
C746   C     0.63413   0.47200   0.78079   0.00000  Uiso   1.00
C747   C     0.34872   0.47197   0.78072   0.00000  Uiso   1.00
C748   C     0.36590   0.52789   0.71907   0.00000  Uiso   1.00
C749   C     0.65132   0.52788   0.71907   0.00000  Uiso   1.00
C750   C     0.49995   0.41998   0.75009   0.00000  Uiso   1.00
C751   C     0.52618   0.50020   0.64738   0.00000  Uiso   1.00
C752   C     0.60135   0.51504   0.99966   0.00000  Uiso   1.00
C753   C     0.54157   0.50746   0.58835   0.00000  Uiso   1.00
C754   C     0.41241   0.52863   0.93726   0.00000  Uiso   1.00
C755   C     0.39955   0.54253   0.99110   0.00000  Uiso   1.00
C756   C     0.43386   0.54521   0.51732   0.00000  Uiso   1.00
H757   H     0.57690   0.37092   0.73024   0.00000  Uiso   1.00
H758   H     0.42292   0.37081   0.77064   0.00000  Uiso   1.00
H759   H     0.42295   0.62903   0.77071   0.00000  Uiso   1.00
H760   H     0.60914   0.44968   0.80557   0.00000  Uiso   1.00
H761   H     0.35992   0.44964   0.80547   0.00000  Uiso   1.00
H762   H     0.39088   0.55022   0.69428   0.00000  Uiso   1.00
H763   H     0.64013   0.55018   0.69429   0.00000  Uiso   1.00
H764   H     0.63740   0.51009   0.97337   0.00000  Uiso   1.00
H765   H     0.47069   0.52437   0.59282   0.00000  Uiso   1.00
H766   H     0.38503   0.52143   0.91941   0.00000  Uiso   1.00
H767   H     0.42192   0.55320   0.56012   0.00000  Uiso   1.00
H768   H     0.57692   0.62918   0.73033   0.00000  Uiso   1.00
N769   N     0.38093   0.50001   0.75002   0.00000  Uiso   1.00
N770   N     0.61906   0.49998   0.75001   0.00000  Uiso   1.00
O771   O     0.46179   0.56108   0.75001   0.00000  Uiso   1.00
O772   O     0.53823   0.56107   0.75001   0.00000  Uiso   1.00
O773   O     0.44280   0.50000   0.82681   0.00000  Uiso   1.00
O774   O     0.51924   0.49999   0.82681   0.00000  Uiso   1.00
O775   O     0.46177   0.43893   0.75000   0.00000  Uiso   1.00
O776   O     0.53821   0.43892   0.75000   0.00000  Uiso   1.00
O777   O     0.48076   0.50001   0.67319   0.00000  Uiso   1.00
O778   O     0.55720   0.50000   0.67319   0.00000  Uiso   1.00
Zn779  Zn    0.44896   0.50001   0.75000   0.00000  Uiso   1.00
Zn780  Zn    0.55104   0.49999   0.75000   0.00000  Uiso   1.00
I781   I     0.64090   0.46826   0.57793   0.00000  Uiso   1.00
I782   I     0.64899   0.56179   0.87631   0.00000  Uiso   1.00
F783   F     0.35372   0.55223   0.51865   0.00000  Uiso   1.00
F784   F     0.55353   0.56456   0.84950   0.00000  Uiso   1.00
C785   C     0.83335   0.58002   0.75006   0.00000  Uiso   1.00
C786   C     0.81577   0.53916   0.98750   0.00000  Uiso   1.00
C787   C     0.82881   0.53732   0.93038   0.00000  Uiso   1.00
C788   C     0.85181   0.53247   0.51163   0.00000  Uiso   1.00
C789   C     0.90022   0.53117   0.97838   0.00000  Uiso   1.00
C790   C     0.91214   0.54448   0.92395   0.00000  Uiso   1.00
C791   C     0.87618   0.54784   0.90018   0.00000  Uiso   1.00
C792   C     0.84045   0.52244   0.56663   0.00000  Uiso   1.00
C793   C     0.92205   0.50163   0.55386   0.00000  Uiso   1.00
C794   C     0.79397   0.52475   0.90650   0.00000  Uiso   1.00
C795   C     0.87653   0.64538   0.73935   0.00000  Uiso   1.00
C796   C     0.80787   0.50695   0.85098   0.00000  Uiso   1.00
C797   C     0.87652   0.35467   0.73930   0.00000  Uiso   1.00
C798   C     0.83325   0.37581   0.75032   0.00000  Uiso   1.00
C799   C     0.78997   0.35460   0.76160   0.00000  Uiso   1.00
C800   C     0.78999   0.64530   0.76164   0.00000  Uiso   1.00
C801   C     0.83329   0.62417   0.75038   0.00000  Uiso   1.00
C802   C     0.96746   0.47200   0.78079   0.00000  Uiso   1.00
C803   C     0.68206   0.47197   0.78072   0.00000  Uiso   1.00
C804   C     0.69923   0.52789   0.71907   0.00000  Uiso   1.00
C805   C     0.98466   0.52788   0.71907   0.00000  Uiso   1.00
C806   C     0.83328   0.41998   0.75009   0.00000  Uiso   1.00
C807   C     0.85951   0.50020   0.64738   0.00000  Uiso   1.00
C808   C     0.93468   0.51504   0.99966   0.00000  Uiso   1.00
C809   C     0.87490   0.50746   0.58835   0.00000  Uiso   1.00
C810   C     0.74574   0.52863   0.93726   0.00000  Uiso   1.00
C811   C     0.73289   0.54253   0.99110   0.00000  Uiso   1.00
C812   C     0.76720   0.54521   0.51732   0.00000  Uiso   1.00
H813   H     0.91023   0.37092   0.73024   0.00000  Uiso   1.00
H814   H     0.75626   0.37081   0.77064   0.00000  Uiso   1.00
H815   H     0.75628   0.62903   0.77071   0.00000  Uiso   1.00
H816   H     0.94248   0.44968   0.80557   0.00000  Uiso   1.00
H817   H     0.69325   0.44964   0.80547   0.00000  Uiso   1.00
H818   H     0.72421   0.55022   0.69428   0.00000  Uiso   1.00
H819   H     0.97347   0.55018   0.69429   0.00000  Uiso   1.00
H820   H     0.97073   0.51009   0.97337   0.00000  Uiso   1.00
H821   H     0.80402   0.52437   0.59282   0.00000  Uiso   1.00
H822   H     0.71836   0.52143   0.91941   0.00000  Uiso   1.00
H823   H     0.75525   0.55320   0.56012   0.00000  Uiso   1.00
H824   H     0.91025   0.62918   0.73033   0.00000  Uiso   1.00
N825   N     0.71426   0.50001   0.75002   0.00000  Uiso   1.00
N826   N     0.95239   0.49998   0.75001   0.00000  Uiso   1.00
O827   O     0.79512   0.56108   0.75001   0.00000  Uiso   1.00
O828   O     0.87157   0.56107   0.75001   0.00000  Uiso   1.00
O829   O     0.77613   0.50000   0.82681   0.00000  Uiso   1.00
O830   O     0.85258   0.49999   0.82681   0.00000  Uiso   1.00
O831   O     0.79510   0.43893   0.75000   0.00000  Uiso   1.00
O832   O     0.87154   0.43892   0.75000   0.00000  Uiso   1.00
O833   O     0.81409   0.50001   0.67319   0.00000  Uiso   1.00
O834   O     0.89053   0.50000   0.67319   0.00000  Uiso   1.00
Zn835  Zn    0.78229   0.50001   0.75000   0.00000  Uiso   1.00
Zn836  Zn    0.88438   0.49999   0.75000   0.00000  Uiso   1.00
I837   I     0.97423   0.46826   0.57793   0.00000  Uiso   1.00
I838   I     0.98232   0.56179   0.87631   0.00000  Uiso   1.00
F839   F     0.68705   0.55223   0.51865   0.00000  Uiso   1.00
F840   F     0.88687   0.56456   0.84950   0.00000  Uiso   1.00
C841   C     0.16668   0.91335   0.75006   0.00000  Uiso   1.00
C842   C     0.14910   0.87249   0.98750   0.00000  Uiso   1.00
C843   C     0.16215   0.87065   0.93038   0.00000  Uiso   1.00
C844   C     0.18514   0.86580   0.51163   0.00000  Uiso   1.00
C845   C     0.23356   0.86451   0.97838   0.00000  Uiso   1.00
C846   C     0.24548   0.87782   0.92395   0.00000  Uiso   1.00
C847   C     0.20952   0.88118   0.90018   0.00000  Uiso   1.00
C848   C     0.17378   0.85577   0.56663   0.00000  Uiso   1.00
C849   C     0.25538   0.83496   0.55386   0.00000  Uiso   1.00
C850   C     0.12731   0.85808   0.90650   0.00000  Uiso   1.00
C851   C     0.20987   0.97871   0.73935   0.00000  Uiso   1.00
C852   C     0.14121   0.84028   0.85098   0.00000  Uiso   1.00
C853   C     0.20985   0.68800   0.73930   0.00000  Uiso   1.00
C854   C     0.16658   0.70915   0.75032   0.00000  Uiso   1.00
C855   C     0.12331   0.68793   0.76160   0.00000  Uiso   1.00
C856   C     0.12332   0.97863   0.76164   0.00000  Uiso   1.00
C857   C     0.16662   0.95750   0.75038   0.00000  Uiso   1.00
C858   C     0.30080   0.80534   0.78079   0.00000  Uiso   1.00
C859   C     0.01539   0.80530   0.78072   0.00000  Uiso   1.00
C860   C     0.03256   0.86122   0.71907   0.00000  Uiso   1.00
C861   C     0.31799   0.86121   0.71907   0.00000  Uiso   1.00
C862   C     0.16662   0.75332   0.75009   0.00000  Uiso   1.00
C863   C     0.19284   0.83353   0.64738   0.00000  Uiso   1.00
C864   C     0.26801   0.84838   0.99966   0.00000  Uiso   1.00
C865   C     0.20824   0.84079   0.58835   0.00000  Uiso   1.00
C866   C     0.07907   0.86196   0.93726   0.00000  Uiso   1.00
C867   C     0.06622   0.87586   0.99110   0.00000  Uiso   1.00
C868   C     0.10053   0.87854   0.51732   0.00000  Uiso   1.00
H869   H     0.24357   0.70425   0.73024   0.00000  Uiso   1.00
H870   H     0.08959   0.70414   0.77064   0.00000  Uiso   1.00
H871   H     0.08961   0.96236   0.77071   0.00000  Uiso   1.00
H872   H     0.27581   0.78301   0.80557   0.00000  Uiso   1.00
H873   H     0.02658   0.78297   0.80547   0.00000  Uiso   1.00
H874   H     0.05755   0.88355   0.69428   0.00000  Uiso   1.00
H875   H     0.30680   0.88351   0.69429   0.00000  Uiso   1.00
H876   H     0.30406   0.84342   0.97337   0.00000  Uiso   1.00
H877   H     0.13736   0.85771   0.59282   0.00000  Uiso   1.00
H878   H     0.05170   0.85476   0.91941   0.00000  Uiso   1.00
H879   H     0.08858   0.88653   0.56012   0.00000  Uiso   1.00
H880   H     0.24359   0.96251   0.73033   0.00000  Uiso   1.00
N881   N     0.04760   0.83334   0.75002   0.00000  Uiso   1.00
N882   N     0.28573   0.83331   0.75001   0.00000  Uiso   1.00
O883   O     0.12846   0.89442   0.75001   0.00000  Uiso   1.00
O884   O     0.20490   0.89441   0.75001   0.00000  Uiso   1.00
O885   O     0.10947   0.83333   0.82681   0.00000  Uiso   1.00
O886   O     0.18591   0.83332   0.82681   0.00000  Uiso   1.00
O887   O     0.12843   0.77226   0.75000   0.00000  Uiso   1.00
O888   O     0.20488   0.77225   0.75000   0.00000  Uiso   1.00
O889   O     0.14742   0.83335   0.67319   0.00000  Uiso   1.00
O890   O     0.22387   0.83334   0.67319   0.00000  Uiso   1.00
Zn891  Zn    0.11562   0.83334   0.75000   0.00000  Uiso   1.00
Zn892  Zn    0.21771   0.83333   0.75000   0.00000  Uiso   1.00
I893   I     0.30757   0.80159   0.57793   0.00000  Uiso   1.00
I894   I     0.31565   0.89512   0.87631   0.00000  Uiso   1.00
F895   F     0.02038   0.88557   0.51865   0.00000  Uiso   1.00
F896   F     0.22020   0.89789   0.84950   0.00000  Uiso   1.00
C897   C     0.50001   0.91335   0.75006   0.00000  Uiso   1.00
C898   C     0.48243   0.87249   0.98750   0.00000  Uiso   1.00
C899   C     0.49548   0.87065   0.93038   0.00000  Uiso   1.00
C900   C     0.51847   0.86580   0.51163   0.00000  Uiso   1.00
C901   C     0.56689   0.86451   0.97838   0.00000  Uiso   1.00
C902   C     0.57881   0.87782   0.92395   0.00000  Uiso   1.00
C903   C     0.54285   0.88118   0.90018   0.00000  Uiso   1.00
C904   C     0.50711   0.85577   0.56663   0.00000  Uiso   1.00
C905   C     0.58872   0.83496   0.55386   0.00000  Uiso   1.00
C906   C     0.46064   0.85808   0.90650   0.00000  Uiso   1.00
C907   C     0.54320   0.97871   0.73935   0.00000  Uiso   1.00
C908   C     0.47454   0.84028   0.85098   0.00000  Uiso   1.00
C909   C     0.54318   0.68800   0.73930   0.00000  Uiso   1.00
C910   C     0.49991   0.70915   0.75032   0.00000  Uiso   1.00
C911   C     0.45664   0.68793   0.76160   0.00000  Uiso   1.00
C912   C     0.45666   0.97863   0.76164   0.00000  Uiso   1.00
C913   C     0.49995   0.95750   0.75038   0.00000  Uiso   1.00
C914   C     0.63413   0.80534   0.78079   0.00000  Uiso   1.00
C915   C     0.34872   0.80530   0.78072   0.00000  Uiso   1.00
C916   C     0.36590   0.86122   0.71907   0.00000  Uiso   1.00
C917   C     0.65132   0.86121   0.71907   0.00000  Uiso   1.00
C918   C     0.49995   0.75332   0.75009   0.00000  Uiso   1.00
C919   C     0.52618   0.83353   0.64738   0.00000  Uiso   1.00
C920   C     0.60135   0.84838   0.99966   0.00000  Uiso   1.00
C921   C     0.54157   0.84079   0.58835   0.00000  Uiso   1.00
C922   C     0.41241   0.86196   0.93726   0.00000  Uiso   1.00
C923   C     0.39955   0.87586   0.99110   0.00000  Uiso   1.00
C924   C     0.43386   0.87854   0.51732   0.00000  Uiso   1.00
H925   H     0.57690   0.70425   0.73024   0.00000  Uiso   1.00
H926   H     0.42292   0.70414   0.77064   0.00000  Uiso   1.00
H927   H     0.42295   0.96236   0.77071   0.00000  Uiso   1.00
H928   H     0.60914   0.78301   0.80557   0.00000  Uiso   1.00
H929   H     0.35992   0.78297   0.80547   0.00000  Uiso   1.00
H930   H     0.39088   0.88355   0.69428   0.00000  Uiso   1.00
H931   H     0.64013   0.88351   0.69429   0.00000  Uiso   1.00
H932   H     0.63740   0.84342   0.97337   0.00000  Uiso   1.00
H933   H     0.47069   0.85771   0.59282   0.00000  Uiso   1.00
H934   H     0.38503   0.85476   0.91941   0.00000  Uiso   1.00
H935   H     0.42192   0.88653   0.56012   0.00000  Uiso   1.00
H936   H     0.57692   0.96251   0.73033   0.00000  Uiso   1.00
N937   N     0.38093   0.83334   0.75002   0.00000  Uiso   1.00
N938   N     0.61906   0.83331   0.75001   0.00000  Uiso   1.00
O939   O     0.46179   0.89442   0.75001   0.00000  Uiso   1.00
O940   O     0.53823   0.89441   0.75001   0.00000  Uiso   1.00
O941   O     0.44280   0.83333   0.82681   0.00000  Uiso   1.00
O942   O     0.51924   0.83332   0.82681   0.00000  Uiso   1.00
O943   O     0.46177   0.77226   0.75000   0.00000  Uiso   1.00
O944   O     0.53821   0.77225   0.75000   0.00000  Uiso   1.00
O945   O     0.48076   0.83335   0.67319   0.00000  Uiso   1.00
O946   O     0.55720   0.83334   0.67319   0.00000  Uiso   1.00
Zn947  Zn    0.44896   0.83334   0.75000   0.00000  Uiso   1.00
Zn948  Zn    0.55104   0.83333   0.75000   0.00000  Uiso   1.00
I949   I     0.64090   0.80159   0.57793   0.00000  Uiso   1.00
I950   I     0.64899   0.89512   0.87631   0.00000  Uiso   1.00
F951   F     0.35372   0.88557   0.51865   0.00000  Uiso   1.00
F952   F     0.55353   0.89789   0.84950   0.00000  Uiso   1.00
C953   C     0.83335   0.91335   0.75006   0.00000  Uiso   1.00
C954   C     0.81577   0.87249   0.98750   0.00000  Uiso   1.00
C955   C     0.82881   0.87065   0.93038   0.00000  Uiso   1.00
C956   C     0.85181   0.86580   0.51163   0.00000  Uiso   1.00
C957   C     0.90022   0.86451   0.97838   0.00000  Uiso   1.00
C958   C     0.91214   0.87782   0.92395   0.00000  Uiso   1.00
C959   C     0.87618   0.88118   0.90018   0.00000  Uiso   1.00
C960   C     0.84045   0.85577   0.56663   0.00000  Uiso   1.00
C961   C     0.92205   0.83496   0.55386   0.00000  Uiso   1.00
C962   C     0.79397   0.85808   0.90650   0.00000  Uiso   1.00
C963   C     0.87653   0.97871   0.73935   0.00000  Uiso   1.00
C964   C     0.80787   0.84028   0.85098   0.00000  Uiso   1.00
C965   C     0.87652   0.68800   0.73930   0.00000  Uiso   1.00
C966   C     0.83325   0.70915   0.75032   0.00000  Uiso   1.00
C967   C     0.78997   0.68793   0.76160   0.00000  Uiso   1.00
C968   C     0.78999   0.97863   0.76164   0.00000  Uiso   1.00
C969   C     0.83329   0.95750   0.75038   0.00000  Uiso   1.00
C970   C     0.96746   0.80534   0.78079   0.00000  Uiso   1.00
C971   C     0.68206   0.80530   0.78072   0.00000  Uiso   1.00
C972   C     0.69923   0.86122   0.71907   0.00000  Uiso   1.00
C973   C     0.98466   0.86121   0.71907   0.00000  Uiso   1.00
C974   C     0.83328   0.75332   0.75009   0.00000  Uiso   1.00
C975   C     0.85951   0.83353   0.64738   0.00000  Uiso   1.00
C976   C     0.93468   0.84838   0.99966   0.00000  Uiso   1.00
C977   C     0.87490   0.84079   0.58835   0.00000  Uiso   1.00
C978   C     0.74574   0.86196   0.93726   0.00000  Uiso   1.00
C979   C     0.73289   0.87586   0.99110   0.00000  Uiso   1.00
C980   C     0.76720   0.87854   0.51732   0.00000  Uiso   1.00
H981   H     0.91023   0.70425   0.73024   0.00000  Uiso   1.00
H982   H     0.75626   0.70414   0.77064   0.00000  Uiso   1.00
H983   H     0.75628   0.96236   0.77071   0.00000  Uiso   1.00
H984   H     0.94248   0.78301   0.80557   0.00000  Uiso   1.00
H985   H     0.69325   0.78297   0.80547   0.00000  Uiso   1.00
H986   H     0.72421   0.88355   0.69428   0.00000  Uiso   1.00
H987   H     0.97347   0.88351   0.69429   0.00000  Uiso   1.00
H988   H     0.97073   0.84342   0.97337   0.00000  Uiso   1.00
H989   H     0.80402   0.85771   0.59282   0.00000  Uiso   1.00
H990   H     0.71836   0.85476   0.91941   0.00000  Uiso   1.00
H991   H     0.75525   0.88653   0.56012   0.00000  Uiso   1.00
H992   H     0.91025   0.96251   0.73033   0.00000  Uiso   1.00
N993   N     0.71426   0.83334   0.75002   0.00000  Uiso   1.00
N994   N     0.95239   0.83331   0.75001   0.00000  Uiso   1.00
O995   O     0.79512   0.89442   0.75001   0.00000  Uiso   1.00
O996   O     0.87157   0.89441   0.75001   0.00000  Uiso   1.00
O997   O     0.77613   0.83333   0.82681   0.00000  Uiso   1.00
O998   O     0.85258   0.83332   0.82681   0.00000  Uiso   1.00
O999   O     0.79510   0.77226   0.75000   0.00000  Uiso   1.00
O1000  O     0.87154   0.77225   0.75000   0.00000  Uiso   1.00
O1001  O     0.81409   0.83335   0.67319   0.00000  Uiso   1.00
O1002  O     0.89053   0.83334   0.67319   0.00000  Uiso   1.00
Zn1003 Zn    0.78229   0.83334   0.75000   0.00000  Uiso   1.00
Zn1004 Zn    0.88438   0.83333   0.75000   0.00000  Uiso   1.00
I1005  I     0.97423   0.80159   0.57793   0.00000  Uiso   1.00
I1006  I     0.98232   0.89512   0.87631   0.00000  Uiso   1.00
F1007  F     0.68705   0.88557   0.51865   0.00000  Uiso   1.00
F1008  F     0.88687   0.89789   0.84950   0.00000  Uiso   1.00
loop_
_geom_bond_atom_site_label_1
_geom_bond_atom_site_label_2
_geom_bond_distance
_geom_bond_site_symmetry_2
_ccdc_geom_bond_type
C1     O44     1.285   .     A
C1     C17     1.419   .     S
C1     O43     1.285   .     A
C2     C3      1.404   .     A
C2     C508    1.414   .     S
C2     C532    1.412   .     S
C3     C10     1.419   .     A
C3     C7      1.412   .     A
C4     C8      1.391   .     A
C4     C506    1.414   1_554 S
C4     C509    1.418   1_554 S
C5     C24     1.404   .     A
C5     C6      1.404   .     A
C5     C508    1.418   .     S
C6     C7      1.393   .     A
C6     I54     2.124   .     S
C7     F56     1.357   .     S
C8     C25     1.398   .     A
C8     H37     1.077   .     S
C9     C25     1.409   .     A
C9     I53     2.131   .     S
C9     C528    1.399   1_554 S
C10    C26     1.401   .     A
C10    C12     1.477   .     S
C11    H40     1.084   .     S
C11    C17     1.397   .     A
C11    C181    1.370   .     S
C12    O46     1.290   .     A
C12    O45     1.303   .     A
C13    C14     1.397   .     A
C13    H29     1.084   .     S
C13    C347    1.370   1_545 S
C14    C22     1.420   .     S
C14    C15     1.397   .     A
C15    H30     1.084   .     S
C15    C352    1.370   1_545 S
C16    H31     1.084   .     S
C16    C17     1.397   .     A
C16    C183    1.370   .     S
C18    N42     1.367   .     A
C18    H32     1.082   .     S
C18    C75     1.418   .     S
C19    H33     1.082   .     S
C19    N41     1.367   .     A
C19    C130    1.418   1_455 S
C20    H34     1.082   .     S
C20    N41     1.367   .     A
C20    C133    1.418   1_455 S
C21    H35     1.082   .     S
C21    N42     1.367   .     A
C21    C76     1.418   .     S
C22    O48     1.285   .     A
C22    O47     1.285   .     A
C23    C25     1.466   .     S
C23    O49     1.297   .     A
C23    O50     1.296   .     A
C24    H36     1.079   .     S
C24    C513    1.399   .     S
C26    C27     1.394   .     A
C26    H38     1.077   .     S
C27    C532    1.392   .     S
C27    F559    1.353   .     S
C28    H39     1.080   .     S
C28    C531    1.392   1_554 S
C28    C506    1.412   1_554 S
N41    Zn51    2.014   .     S
N42    Zn52    2.013   .     S
O43    Zn51    1.999   .     S
O44    Zn52    2.000   .     S
O45    Zn51    1.936   .     S
O46    Zn52    1.908   .     S
O47    Zn51    2.000   .     S
O48    Zn52    1.999   .     S
O49    Zn51    1.908   .     S
O50    Zn52    1.936   .     S
F55    C531    1.353   1_554 S
C57    O100    1.285   .     A
C57    C73     1.419   .     S
C57    O99     1.285   .     A
C58    C59     1.404   .     A
C58    C564    1.414   .     S
C58    C588    1.412   .     S
C59    C66     1.419   .     A
C59    C63     1.412   .     A
C60    C64     1.391   .     A
C60    C562    1.414   1_554 S
C60    C565    1.418   1_554 S
C61    C80     1.404   .     A
C61    C62     1.404   .     A
C61    C564    1.418   .     S
C62    C63     1.393   .     A
C62    I110    2.124   .     S
C63    F112    1.357   .     S
C64    C81     1.398   .     A
C64    H93     1.077   .     S
C65    C81     1.409   .     A
C65    I109    2.131   .     S
C65    C584    1.399   1_554 S
C66    C82     1.401   .     A
C66    C68     1.477   .     S
C67    H96     1.084   .     S
C67    C73     1.397   .     A
C67    C237    1.370   .     S
C68    O102    1.290   .     A
C68    O101    1.303   .     A
C69    C70     1.397   .     A
C69    H85     1.084   .     S
C69    C403    1.370   1_545 S
C70    C78     1.420   .     S
C70    C71     1.397   .     A
C71    H86     1.084   .     S
C71    C408    1.370   1_545 S
C72    H87     1.084   .     S
C72    C73     1.397   .     A
C72    C239    1.370   .     S
C74    N98     1.367   .     A
C74    H88     1.082   .     S
C74    C131    1.418   .     S
C75    H89     1.082   .     S
C75    N97     1.367   .     A
C76    H90     1.082   .     S
C76    N97     1.367   .     A
C77    H91     1.082   .     S
C77    N98     1.367   .     A
C77    C132    1.418   .     S
C78    O104    1.285   .     A
C78    O103    1.285   .     A
C79    C81     1.466   .     S
C79    O105    1.297   .     A
C79    O106    1.296   .     A
C80    H92     1.079   .     S
C80    C569    1.399   .     S
C82    C83     1.394   .     A
C82    H94     1.077   .     S
C83    C588    1.392   .     S
C83    F615    1.353   .     S
C84    H95     1.080   .     S
C84    C587    1.392   1_554 S
C84    C562    1.412   1_554 S
N97    Zn107   2.014   .     S
N98    Zn108   2.013   .     S
O99    Zn107   1.999   .     S
O100   Zn108   2.000   .     S
O101   Zn107   1.936   .     S
O102   Zn108   1.908   .     S
O103   Zn107   2.000   .     S
O104   Zn108   1.999   .     S
O105   Zn107   1.908   .     S
O106   Zn108   1.936   .     S
F111   C587    1.353   1_554 S
C113   O156    1.285   .     A
C113   C129    1.419   .     S
C113   O155    1.285   .     A
C114   C115    1.404   .     A
C114   C620    1.414   .     S
C114   C644    1.412   .     S
C115   C122    1.419   .     A
C115   C119    1.412   .     A
C116   C120    1.391   .     A
C116   C618    1.414   1_554 S
C116   C621    1.418   1_554 S
C117   C136    1.404   .     A
C117   C118    1.404   .     A
C117   C620    1.418   .     S
C118   C119    1.393   .     A
C118   I166    2.124   .     S
C119   F168    1.357   .     S
C120   C137    1.398   .     A
C120   H149    1.077   .     S
C121   C137    1.409   .     A
C121   I165    2.131   .     S
C121   C640    1.399   1_554 S
C122   C138    1.401   .     A
C122   C124    1.477   .     S
C123   H152    1.084   .     S
C123   C129    1.397   .     A
C123   C293    1.370   .     S
C124   O158    1.290   .     A
C124   O157    1.303   .     A
C125   C126    1.397   .     A
C125   H141    1.084   .     S
C125   C459    1.370   1_545 S
C126   C134    1.420   .     S
C126   C127    1.397   .     A
C127   H142    1.084   .     S
C127   C464    1.370   1_545 S
C128   H143    1.084   .     S
C128   C129    1.397   .     A
C128   C295    1.370   .     S
C130   N154    1.367   .     A
C130   H144    1.082   .     S
C130   C19     1.418   1_655 S
C131   H145    1.082   .     S
C131   N153    1.367   .     A
C132   H146    1.082   .     S
C132   N153    1.367   .     A
C133   H147    1.082   .     S
C133   N154    1.367   .     A
C133   C20     1.418   1_655 S
C134   O160    1.285   .     A
C134   O159    1.285   .     A
C135   C137    1.466   .     S
C135   O161    1.297   .     A
C135   O162    1.296   .     A
C136   H148    1.079   .     S
C136   C625    1.399   .     S
C138   C139    1.394   .     A
C138   H150    1.077   .     S
C139   C644    1.392   .     S
C139   F671    1.353   .     S
C140   H151    1.080   .     S
C140   C643    1.392   1_554 S
C140   C618    1.412   1_554 S
N153   Zn163   2.014   .     S
N154   Zn164   2.013   .     S
O155   Zn163   1.999   .     S
O156   Zn164   2.000   .     S
O157   Zn163   1.936   .     S
O158   Zn164   1.908   .     S
O159   Zn163   2.000   .     S
O160   Zn164   1.999   .     S
O161   Zn163   1.908   .     S
O162   Zn164   1.936   .     S
F167   C643    1.353   1_554 S
C169   O212    1.285   .     A
C169   C185    1.419   .     S
C169   O211    1.285   .     A
C170   C171    1.404   .     A
C170   C676    1.414   .     S
C170   C700    1.412   .     S
C171   C178    1.419   .     A
C171   C175    1.412   .     A
C172   C176    1.391   .     A
C172   C674    1.414   1_554 S
C172   C677    1.418   1_554 S
C173   C192    1.404   .     A
C173   C174    1.404   .     A
C173   C676    1.418   .     S
C174   C175    1.393   .     A
C174   I222    2.124   .     S
C175   F224    1.357   .     S
C176   C193    1.398   .     A
C176   H205    1.077   .     S
C177   C193    1.409   .     A
C177   I221    2.131   .     S
C177   C696    1.399   1_554 S
C178   C194    1.401   .     A
C178   C180    1.477   .     S
C179   H208    1.084   .     S
C179   C185    1.397   .     A
C179   C349    1.370   .     S
C180   O214    1.290   .     A
C180   O213    1.303   .     A
C181   C182    1.397   .     A
C181   H197    1.084   .     S
C182   C190    1.420   .     S
C182   C183    1.397   .     A
C183   H198    1.084   .     S
C184   H199    1.084   .     S
C184   C185    1.397   .     A
C184   C351    1.370   .     S
C186   N210    1.367   .     A
C186   H200    1.082   .     S
C186   C243    1.418   .     S
C187   H201    1.082   .     S
C187   N209    1.367   .     A
C187   C298    1.418   1_455 S
C188   H202    1.082   .     S
C188   N209    1.367   .     A
C188   C301    1.418   1_455 S
C189   H203    1.082   .     S
C189   N210    1.367   .     A
C189   C244    1.418   .     S
C190   O216    1.285   .     A
C190   O215    1.285   .     A
C191   C193    1.466   .     S
C191   O217    1.297   .     A
C191   O218    1.296   .     A
C192   H204    1.079   .     S
C192   C681    1.399   .     S
C194   C195    1.394   .     A
C194   H206    1.077   .     S
C195   C700    1.392   .     S
C195   F727    1.353   .     S
C196   H207    1.080   .     S
C196   C699    1.392   1_554 S
C196   C674    1.412   1_554 S
N209   Zn219   2.014   .     S
N210   Zn220   2.013   .     S
O211   Zn219   1.999   .     S
O212   Zn220   2.000   .     S
O213   Zn219   1.936   .     S
O214   Zn220   1.908   .     S
O215   Zn219   2.000   .     S
O216   Zn220   1.999   .     S
O217   Zn219   1.908   .     S
O218   Zn220   1.936   .     S
F223   C699    1.353   1_554 S
C225   O268    1.285   .     A
C225   C241    1.419   .     S
C225   O267    1.285   .     A
C226   C227    1.404   .     A
C226   C732    1.414   .     S
C226   C756    1.412   .     S
C227   C234    1.419   .     A
C227   C231    1.412   .     A
C228   C232    1.391   .     A
C228   C730    1.414   1_554 S
C228   C733    1.418   1_554 S
C229   C248    1.404   .     A
C229   C230    1.404   .     A
C229   C732    1.418   .     S
C230   C231    1.393   .     A
C230   I278    2.124   .     S
C231   F280    1.357   .     S
C232   C249    1.398   .     A
C232   H261    1.077   .     S
C233   C249    1.409   .     A
C233   I277    2.131   .     S
C233   C752    1.399   1_554 S
C234   C250    1.401   .     A
C234   C236    1.477   .     S
C235   H264    1.084   .     S
C235   C241    1.397   .     A
C235   C405    1.370   .     S
C236   O270    1.290   .     A
C236   O269    1.303   .     A
C237   C238    1.397   .     A
C237   H253    1.084   .     S
C238   C246    1.420   .     S
C238   C239    1.397   .     A
C239   H254    1.084   .     S
C240   H255    1.084   .     S
C240   C241    1.397   .     A
C240   C407    1.370   .     S
C242   N266    1.367   .     A
C242   H256    1.082   .     S
C242   C299    1.418   .     S
C243   H257    1.082   .     S
C243   N265    1.367   .     A
C244   H258    1.082   .     S
C244   N265    1.367   .     A
C245   H259    1.082   .     S
C245   N266    1.367   .     A
C245   C300    1.418   .     S
C246   O272    1.285   .     A
C246   O271    1.285   .     A
C247   C249    1.466   .     S
C247   O273    1.297   .     A
C247   O274    1.296   .     A
C248   H260    1.079   .     S
C248   C737    1.399   .     S
C250   C251    1.394   .     A
C250   H262    1.077   .     S
C251   C756    1.392   .     S
C251   F783    1.353   .     S
C252   H263    1.080   .     S
C252   C755    1.392   1_554 S
C252   C730    1.412   1_554 S
N265   Zn275   2.014   .     S
N266   Zn276   2.013   .     S
O267   Zn275   1.999   .     S
O268   Zn276   2.000   .     S
O269   Zn275   1.936   .     S
O270   Zn276   1.908   .     S
O271   Zn275   2.000   .     S
O272   Zn276   1.999   .     S
O273   Zn275   1.908   .     S
O274   Zn276   1.936   .     S
F279   C755    1.353   1_554 S
C281   O324    1.285   .     A
C281   C297    1.419   .     S
C281   O323    1.285   .     A
C282   C283    1.404   .     A
C282   C788    1.414   .     S
C282   C812    1.412   .     S
C283   C290    1.419   .     A
C283   C287    1.412   .     A
C284   C288    1.391   .     A
C284   C786    1.414   1_554 S
C284   C789    1.418   1_554 S
C285   C304    1.404   .     A
C285   C286    1.404   .     A
C285   C788    1.418   .     S
C286   C287    1.393   .     A
C286   I334    2.124   .     S
C287   F336    1.357   .     S
C288   C305    1.398   .     A
C288   H317    1.077   .     S
C289   C305    1.409   .     A
C289   I333    2.131   .     S
C289   C808    1.399   1_554 S
C290   C306    1.401   .     A
C290   C292    1.477   .     S
C291   H320    1.084   .     S
C291   C297    1.397   .     A
C291   C461    1.370   .     S
C292   O326    1.290   .     A
C292   O325    1.303   .     A
C293   C294    1.397   .     A
C293   H309    1.084   .     S
C294   C302    1.420   .     S
C294   C295    1.397   .     A
C295   H310    1.084   .     S
C296   H311    1.084   .     S
C296   C297    1.397   .     A
C296   C463    1.370   .     S
C298   N322    1.367   .     A
C298   H312    1.082   .     S
C298   C187    1.418   1_655 S
C299   H313    1.082   .     S
C299   N321    1.367   .     A
C300   H314    1.082   .     S
C300   N321    1.367   .     A
C301   H315    1.082   .     S
C301   N322    1.367   .     A
C301   C188    1.418   1_655 S
C302   O328    1.285   .     A
C302   O327    1.285   .     A
C303   C305    1.466   .     S
C303   O329    1.297   .     A
C303   O330    1.296   .     A
C304   H316    1.079   .     S
C304   C793    1.399   .     S
C306   C307    1.394   .     A
C306   H318    1.077   .     S
C307   C812    1.392   .     S
C307   F839    1.353   .     S
C308   H319    1.080   .     S
C308   C811    1.392   1_554 S
C308   C786    1.412   1_554 S
N321   Zn331   2.014   .     S
N322   Zn332   2.013   .     S
O323   Zn331   1.999   .     S
O324   Zn332   2.000   .     S
O325   Zn331   1.936   .     S
O326   Zn332   1.908   .     S
O327   Zn331   2.000   .     S
O328   Zn332   1.999   .     S
O329   Zn331   1.908   .     S
O330   Zn332   1.936   .     S
F335   C811    1.353   1_554 S
C337   O380    1.285   .     A
C337   C353    1.419   .     S
C337   O379    1.285   .     A
C338   C339    1.404   .     A
C338   C844    1.414   .     S
C338   C868    1.412   .     S
C339   C346    1.419   .     A
C339   C343    1.412   .     A
C340   C344    1.391   .     A
C340   C842    1.414   1_554 S
C340   C845    1.418   1_554 S
C341   C360    1.404   .     A
C341   C342    1.404   .     A
C341   C844    1.418   .     S
C342   C343    1.393   .     A
C342   I390    2.124   .     S
C343   F392    1.357   .     S
C344   C361    1.398   .     A
C344   H373    1.077   .     S
C345   C361    1.409   .     A
C345   I389    2.131   .     S
C345   C864    1.399   1_554 S
C346   C362    1.401   .     A
C346   C348    1.477   .     S
C347   H376    1.084   .     S
C347   C353    1.397   .     A
C347   C13     1.370   1_565 S
C348   O382    1.290   .     A
C348   O381    1.303   .     A
C349   C350    1.397   .     A
C349   H365    1.084   .     S
C350   C358    1.420   .     S
C350   C351    1.397   .     A
C351   H366    1.084   .     S
C352   H367    1.084   .     S
C352   C353    1.397   .     A
C352   C15     1.370   1_565 S
C354   N378    1.367   .     A
C354   H368    1.082   .     S
C354   C411    1.418   .     S
C355   H369    1.082   .     S
C355   N377    1.367   .     A
C355   C466    1.418   1_455 S
C356   H370    1.082   .     S
C356   N377    1.367   .     A
C356   C469    1.418   1_455 S
C357   H371    1.082   .     S
C357   N378    1.367   .     A
C357   C412    1.418   .     S
C358   O384    1.285   .     A
C358   O383    1.285   .     A
C359   C361    1.466   .     S
C359   O385    1.297   .     A
C359   O386    1.296   .     A
C360   H372    1.079   .     S
C360   C849    1.399   .     S
C362   C363    1.394   .     A
C362   H374    1.077   .     S
C363   C868    1.392   .     S
C363   F895    1.353   .     S
C364   H375    1.080   .     S
C364   C867    1.392   1_554 S
C364   C842    1.412   1_554 S
N377   Zn387   2.014   .     S
N378   Zn388   2.013   .     S
O379   Zn387   1.999   .     S
O380   Zn388   2.000   .     S
O381   Zn387   1.936   .     S
O382   Zn388   1.908   .     S
O383   Zn387   2.000   .     S
O384   Zn388   1.999   .     S
O385   Zn387   1.908   .     S
O386   Zn388   1.936   .     S
F391   C867    1.353   1_554 S
C393   O436    1.285   .     A
C393   C409    1.419   .     S
C393   O435    1.285   .     A
C394   C395    1.404   .     A
C394   C900    1.414   .     S
C394   C924    1.412   .     S
C395   C402    1.419   .     A
C395   C399    1.412   .     A
C396   C400    1.391   .     A
C396   C898    1.414   1_554 S
C396   C901    1.418   1_554 S
C397   C416    1.404   .     A
C397   C398    1.404   .     A
C397   C900    1.418   .     S
C398   C399    1.393   .     A
C398   I446    2.124   .     S
C399   F448    1.357   .     S
C400   C417    1.398   .     A
C400   H429    1.077   .     S
C401   C417    1.409   .     A
C401   I445    2.131   .     S
C401   C920    1.399   1_554 S
C402   C418    1.401   .     A
C402   C404    1.477   .     S
C403   H432    1.084   .     S
C403   C409    1.397   .     A
C403   C69     1.370   1_565 S
C404   O438    1.290   .     A
C404   O437    1.303   .     A
C405   C406    1.397   .     A
C405   H421    1.084   .     S
C406   C414    1.420   .     S
C406   C407    1.397   .     A
C407   H422    1.084   .     S
C408   H423    1.084   .     S
C408   C409    1.397   .     A
C408   C71     1.370   1_565 S
C410   N434    1.367   .     A
C410   H424    1.082   .     S
C410   C467    1.418   .     S
C411   H425    1.082   .     S
C411   N433    1.367   .     A
C412   H426    1.082   .     S
C412   N433    1.367   .     A
C413   H427    1.082   .     S
C413   N434    1.367   .     A
C413   C468    1.418   .     S
C414   O440    1.285   .     A
C414   O439    1.285   .     A
C415   C417    1.466   .     S
C415   O441    1.297   .     A
C415   O442    1.296   .     A
C416   H428    1.079   .     S
C416   C905    1.399   .     S
C418   C419    1.394   .     A
C418   H430    1.077   .     S
C419   C924    1.392   .     S
C419   F951    1.353   .     S
C420   H431    1.080   .     S
C420   C923    1.392   1_554 S
C420   C898    1.412   1_554 S
N433   Zn443   2.014   .     S
N434   Zn444   2.013   .     S
O435   Zn443   1.999   .     S
O436   Zn444   2.000   .     S
O437   Zn443   1.936   .     S
O438   Zn444   1.908   .     S
O439   Zn443   2.000   .     S
O440   Zn444   1.999   .     S
O441   Zn443   1.908   .     S
O442   Zn444   1.936   .     S
F447   C923    1.353   1_554 S
C449   O492    1.285   .     A
C449   C465    1.419   .     S
C449   O491    1.285   .     A
C450   C451    1.404   .     A
C450   C956    1.414   .     S
C450   C980    1.412   .     S
C451   C458    1.419   .     A
C451   C455    1.412   .     A
C452   C456    1.391   .     A
C452   C954    1.414   1_554 S
C452   C957    1.418   1_554 S
C453   C472    1.404   .     A
C453   C454    1.404   .     A
C453   C956    1.418   .     S
C454   C455    1.393   .     A
C454   I502    2.124   .     S
C455   F504    1.357   .     S
C456   C473    1.398   .     A
C456   H485    1.077   .     S
C457   C473    1.409   .     A
C457   I501    2.131   .     S
C457   C976    1.399   1_554 S
C458   C474    1.401   .     A
C458   C460    1.477   .     S
C459   H488    1.084   .     S
C459   C465    1.397   .     A
C459   C125    1.370   1_565 S
C460   O494    1.290   .     A
C460   O493    1.303   .     A
C461   C462    1.397   .     A
C461   H477    1.084   .     S
C462   C470    1.420   .     S
C462   C463    1.397   .     A
C463   H478    1.084   .     S
C464   H479    1.084   .     S
C464   C465    1.397   .     A
C464   C127    1.370   1_565 S
C466   N490    1.367   .     A
C466   H480    1.082   .     S
C466   C355    1.418   1_655 S
C467   H481    1.082   .     S
C467   N489    1.367   .     A
C468   H482    1.082   .     S
C468   N489    1.367   .     A
C469   H483    1.082   .     S
C469   N490    1.367   .     A
C469   C356    1.418   1_655 S
C470   O496    1.285   .     A
C470   O495    1.285   .     A
C471   C473    1.466   .     S
C471   O497    1.297   .     A
C471   O498    1.296   .     A
C472   H484    1.079   .     S
C472   C961    1.399   .     S
C474   C475    1.394   .     A
C474   H486    1.077   .     S
C475   C980    1.392   .     S
C475   F1007   1.353   .     S
C476   H487    1.080   .     S
C476   C979    1.392   1_554 S
C476   C954    1.412   1_554 S
N489   Zn499   2.014   .     S
N490   Zn500   2.013   .     S
O491   Zn499   1.999   .     S
O492   Zn500   2.000   .     S
O493   Zn499   1.936   .     S
O494   Zn500   1.908   .     S
O495   Zn499   2.000   .     S
O496   Zn500   1.999   .     S
O497   Zn499   1.908   .     S
O498   Zn500   1.936   .     S
F503   C979    1.353   1_554 S
C505   O548    1.285   .     A
C505   C521    1.419   .     S
C505   O547    1.285   .     A
C506   C507    1.404   .     A
C506   C4      1.414   1_556 S
C506   C28     1.412   1_556 S
C507   C514    1.419   .     A
C507   C511    1.412   .     A
C508   C512    1.391   .     A
C509   C528    1.404   .     A
C509   C510    1.404   .     A
C509   C4      1.418   1_556 S
C510   C511    1.393   .     A
C510   I558    2.124   .     S
C511   F560    1.357   .     S
C512   C529    1.398   .     A
C512   H541    1.077   .     S
C513   C529    1.409   .     A
C513   I557    2.131   .     S
C514   C530    1.401   .     A
C514   C516    1.477   .     S
C515   H544    1.084   .     S
C515   C521    1.397   .     A
C515   C685    1.370   .     S
C516   O550    1.290   .     A
C516   O549    1.303   .     A
C517   C518    1.397   .     A
C517   H533    1.084   .     S
C517   C851    1.370   1_545 S
C518   C526    1.420   .     S
C518   C519    1.397   .     A
C519   H534    1.084   .     S
C519   C856    1.370   1_545 S
C520   H535    1.084   .     S
C520   C521    1.397   .     A
C520   C687    1.370   .     S
C522   N546    1.367   .     A
C522   H536    1.082   .     S
C522   C579    1.418   .     S
C523   H537    1.082   .     S
C523   N545    1.367   .     A
C523   C634    1.418   1_455 S
C524   H538    1.082   .     S
C524   N545    1.367   .     A
C524   C637    1.418   1_455 S
C525   H539    1.082   .     S
C525   N546    1.367   .     A
C525   C580    1.418   .     S
C526   O552    1.285   .     A
C526   O551    1.285   .     A
C527   C529    1.466   .     S
C527   O553    1.297   .     A
C527   O554    1.296   .     A
C528   H540    1.079   .     S
C528   C9      1.399   1_556 S
C530   C531    1.394   .     A
C530   H542    1.077   .     S
C531   C28     1.392   1_556 S
C531   F55     1.353   1_556 S
C532   H543    1.080   .     S
N545   Zn555   2.014   .     S
N546   Zn556   2.013   .     S
O547   Zn555   1.999   .     S
O548   Zn556   2.000   .     S
O549   Zn555   1.936   .     S
O550   Zn556   1.908   .     S
O551   Zn555   2.000   .     S
O552   Zn556   1.999   .     S
O553   Zn555   1.908   .     S
O554   Zn556   1.936   .     S
C561   O604    1.285   .     A
C561   C577    1.419   .     S
C561   O603    1.285   .     A
C562   C563    1.404   .     A
C562   C60     1.414   1_556 S
C562   C84     1.412   1_556 S
C563   C570    1.419   .     A
C563   C567    1.412   .     A
C564   C568    1.391   .     A
C565   C584    1.404   .     A
C565   C566    1.404   .     A
C565   C60     1.418   1_556 S
C566   C567    1.393   .     A
C566   I614    2.124   .     S
C567   F616    1.357   .     S
C568   C585    1.398   .     A
C568   H597    1.077   .     S
C569   C585    1.409   .     A
C569   I613    2.131   .     S
C570   C586    1.401   .     A
C570   C572    1.477   .     S
C571   H600    1.084   .     S
C571   C577    1.397   .     A
C571   C741    1.370   .     S
C572   O606    1.290   .     A
C572   O605    1.303   .     A
C573   C574    1.397   .     A
C573   H589    1.084   .     S
C573   C907    1.370   1_545 S
C574   C582    1.420   .     S
C574   C575    1.397   .     A
C575   H590    1.084   .     S
C575   C912    1.370   1_545 S
C576   H591    1.084   .     S
C576   C577    1.397   .     A
C576   C743    1.370   .     S
C578   N602    1.367   .     A
C578   H592    1.082   .     S
C578   C635    1.418   .     S
C579   H593    1.082   .     S
C579   N601    1.367   .     A
C580   H594    1.082   .     S
C580   N601    1.367   .     A
C581   H595    1.082   .     S
C581   N602    1.367   .     A
C581   C636    1.418   .     S
C582   O608    1.285   .     A
C582   O607    1.285   .     A
C583   C585    1.466   .     S
C583   O609    1.297   .     A
C583   O610    1.296   .     A
C584   H596    1.079   .     S
C584   C65     1.399   1_556 S
C586   C587    1.394   .     A
C586   H598    1.077   .     S
C587   C84     1.392   1_556 S
C587   F111    1.353   1_556 S
C588   H599    1.080   .     S
N601   Zn611   2.014   .     S
N602   Zn612   2.013   .     S
O603   Zn611   1.999   .     S
O604   Zn612   2.000   .     S
O605   Zn611   1.936   .     S
O606   Zn612   1.908   .     S
O607   Zn611   2.000   .     S
O608   Zn612   1.999   .     S
O609   Zn611   1.908   .     S
O610   Zn612   1.936   .     S
C617   O660    1.285   .     A
C617   C633    1.419   .     S
C617   O659    1.285   .     A
C618   C619    1.404   .     A
C618   C116    1.414   1_556 S
C618   C140    1.412   1_556 S
C619   C626    1.419   .     A
C619   C623    1.412   .     A
C620   C624    1.391   .     A
C621   C640    1.404   .     A
C621   C622    1.404   .     A
C621   C116    1.418   1_556 S
C622   C623    1.393   .     A
C622   I670    2.124   .     S
C623   F672    1.357   .     S
C624   C641    1.398   .     A
C624   H653    1.077   .     S
C625   C641    1.409   .     A
C625   I669    2.131   .     S
C626   C642    1.401   .     A
C626   C628    1.477   .     S
C627   H656    1.084   .     S
C627   C633    1.397   .     A
C627   C797    1.370   .     S
C628   O662    1.290   .     A
C628   O661    1.303   .     A
C629   C630    1.397   .     A
C629   H645    1.084   .     S
C629   C963    1.370   1_545 S
C630   C638    1.420   .     S
C630   C631    1.397   .     A
C631   H646    1.084   .     S
C631   C968    1.370   1_545 S
C632   H647    1.084   .     S
C632   C633    1.397   .     A
C632   C799    1.370   .     S
C634   N658    1.367   .     A
C634   H648    1.082   .     S
C634   C523    1.418   1_655 S
C635   H649    1.082   .     S
C635   N657    1.367   .     A
C636   H650    1.082   .     S
C636   N657    1.367   .     A
C637   H651    1.082   .     S
C637   N658    1.367   .     A
C637   C524    1.418   1_655 S
C638   O664    1.285   .     A
C638   O663    1.285   .     A
C639   C641    1.466   .     S
C639   O665    1.297   .     A
C639   O666    1.296   .     A
C640   H652    1.079   .     S
C640   C121    1.399   1_556 S
C642   C643    1.394   .     A
C642   H654    1.077   .     S
C643   C140    1.392   1_556 S
C643   F167    1.353   1_556 S
C644   H655    1.080   .     S
N657   Zn667   2.014   .     S
N658   Zn668   2.013   .     S
O659   Zn667   1.999   .     S
O660   Zn668   2.000   .     S
O661   Zn667   1.936   .     S
O662   Zn668   1.908   .     S
O663   Zn667   2.000   .     S
O664   Zn668   1.999   .     S
O665   Zn667   1.908   .     S
O666   Zn668   1.936   .     S
C673   O716    1.285   .     A
C673   C689    1.419   .     S
C673   O715    1.285   .     A
C674   C675    1.404   .     A
C674   C172    1.414   1_556 S
C674   C196    1.412   1_556 S
C675   C682    1.419   .     A
C675   C679    1.412   .     A
C676   C680    1.391   .     A
C677   C696    1.404   .     A
C677   C678    1.404   .     A
C677   C172    1.418   1_556 S
C678   C679    1.393   .     A
C678   I726    2.124   .     S
C679   F728    1.357   .     S
C680   C697    1.398   .     A
C680   H709    1.077   .     S
C681   C697    1.409   .     A
C681   I725    2.131   .     S
C682   C698    1.401   .     A
C682   C684    1.477   .     S
C683   H712    1.084   .     S
C683   C689    1.397   .     A
C683   C853    1.370   .     S
C684   O718    1.290   .     A
C684   O717    1.303   .     A
C685   C686    1.397   .     A
C685   H701    1.084   .     S
C686   C694    1.420   .     S
C686   C687    1.397   .     A
C687   H702    1.084   .     S
C688   H703    1.084   .     S
C688   C689    1.397   .     A
C688   C855    1.370   .     S
C690   N714    1.367   .     A
C690   H704    1.082   .     S
C690   C747    1.418   .     S
C691   H705    1.082   .     S
C691   N713    1.367   .     A
C691   C802    1.418   1_455 S
C692   H706    1.082   .     S
C692   N713    1.367   .     A
C692   C805    1.418   1_455 S
C693   H707    1.082   .     S
C693   N714    1.367   .     A
C693   C748    1.418   .     S
C694   O720    1.285   .     A
C694   O719    1.285   .     A
C695   C697    1.466   .     S
C695   O721    1.297   .     A
C695   O722    1.296   .     A
C696   H708    1.079   .     S
C696   C177    1.399   1_556 S
C698   C699    1.394   .     A
C698   H710    1.077   .     S
C699   C196    1.392   1_556 S
C699   F223    1.353   1_556 S
C700   H711    1.080   .     S
N713   Zn723   2.014   .     S
N714   Zn724   2.013   .     S
O715   Zn723   1.999   .     S
O716   Zn724   2.000   .     S
O717   Zn723   1.936   .     S
O718   Zn724   1.908   .     S
O719   Zn723   2.000   .     S
O720   Zn724   1.999   .     S
O721   Zn723   1.908   .     S
O722   Zn724   1.936   .     S
C729   O772    1.285   .     A
C729   C745    1.419   .     S
C729   O771    1.285   .     A
C730   C731    1.404   .     A
C730   C228    1.414   1_556 S
C730   C252    1.412   1_556 S
C731   C738    1.419   .     A
C731   C735    1.412   .     A
C732   C736    1.391   .     A
C733   C752    1.404   .     A
C733   C734    1.404   .     A
C733   C228    1.418   1_556 S
C734   C735    1.393   .     A
C734   I782    2.124   .     S
C735   F784    1.357   .     S
C736   C753    1.398   .     A
C736   H765    1.077   .     S
C737   C753    1.409   .     A
C737   I781    2.131   .     S
C738   C754    1.401   .     A
C738   C740    1.477   .     S
C739   H768    1.084   .     S
C739   C745    1.397   .     A
C739   C909    1.370   .     S
C740   O774    1.290   .     A
C740   O773    1.303   .     A
C741   C742    1.397   .     A
C741   H757    1.084   .     S
C742   C750    1.420   .     S
C742   C743    1.397   .     A
C743   H758    1.084   .     S
C744   H759    1.084   .     S
C744   C745    1.397   .     A
C744   C911    1.370   .     S
C746   N770    1.367   .     A
C746   H760    1.082   .     S
C746   C803    1.418   .     S
C747   H761    1.082   .     S
C747   N769    1.367   .     A
C748   H762    1.082   .     S
C748   N769    1.367   .     A
C749   H763    1.082   .     S
C749   N770    1.367   .     A
C749   C804    1.418   .     S
C750   O776    1.285   .     A
C750   O775    1.285   .     A
C751   C753    1.466   .     S
C751   O777    1.297   .     A
C751   O778    1.296   .     A
C752   H764    1.079   .     S
C752   C233    1.399   1_556 S
C754   C755    1.394   .     A
C754   H766    1.077   .     S
C755   C252    1.392   1_556 S
C755   F279    1.353   1_556 S
C756   H767    1.080   .     S
N769   Zn779   2.014   .     S
N770   Zn780   2.013   .     S
O771   Zn779   1.999   .     S
O772   Zn780   2.000   .     S
O773   Zn779   1.936   .     S
O774   Zn780   1.908   .     S
O775   Zn779   2.000   .     S
O776   Zn780   1.999   .     S
O777   Zn779   1.908   .     S
O778   Zn780   1.936   .     S
C785   O828    1.285   .     A
C785   C801    1.419   .     S
C785   O827    1.285   .     A
C786   C787    1.404   .     A
C786   C284    1.414   1_556 S
C786   C308    1.412   1_556 S
C787   C794    1.419   .     A
C787   C791    1.412   .     A
C788   C792    1.391   .     A
C789   C808    1.404   .     A
C789   C790    1.404   .     A
C789   C284    1.418   1_556 S
C790   C791    1.393   .     A
C790   I838    2.124   .     S
C791   F840    1.357   .     S
C792   C809    1.398   .     A
C792   H821    1.077   .     S
C793   C809    1.409   .     A
C793   I837    2.131   .     S
C794   C810    1.401   .     A
C794   C796    1.477   .     S
C795   H824    1.084   .     S
C795   C801    1.397   .     A
C795   C965    1.370   .     S
C796   O830    1.290   .     A
C796   O829    1.303   .     A
C797   C798    1.397   .     A
C797   H813    1.084   .     S
C798   C806    1.420   .     S
C798   C799    1.397   .     A
C799   H814    1.084   .     S
C800   H815    1.084   .     S
C800   C801    1.397   .     A
C800   C967    1.370   .     S
C802   N826    1.367   .     A
C802   H816    1.082   .     S
C802   C691    1.418   1_655 S
C803   H817    1.082   .     S
C803   N825    1.367   .     A
C804   H818    1.082   .     S
C804   N825    1.367   .     A
C805   H819    1.082   .     S
C805   N826    1.367   .     A
C805   C692    1.418   1_655 S
C806   O832    1.285   .     A
C806   O831    1.285   .     A
C807   C809    1.466   .     S
C807   O833    1.297   .     A
C807   O834    1.296   .     A
C808   H820    1.079   .     S
C808   C289    1.399   1_556 S
C810   C811    1.394   .     A
C810   H822    1.077   .     S
C811   C308    1.392   1_556 S
C811   F335    1.353   1_556 S
C812   H823    1.080   .     S
N825   Zn835   2.014   .     S
N826   Zn836   2.013   .     S
O827   Zn835   1.999   .     S
O828   Zn836   2.000   .     S
O829   Zn835   1.936   .     S
O830   Zn836   1.908   .     S
O831   Zn835   2.000   .     S
O832   Zn836   1.999   .     S
O833   Zn835   1.908   .     S
O834   Zn836   1.936   .     S
C841   O884    1.285   .     A
C841   C857    1.419   .     S
C841   O883    1.285   .     A
C842   C843    1.404   .     A
C842   C340    1.414   1_556 S
C842   C364    1.412   1_556 S
C843   C850    1.419   .     A
C843   C847    1.412   .     A
C844   C848    1.391   .     A
C845   C864    1.404   .     A
C845   C846    1.404   .     A
C845   C340    1.418   1_556 S
C846   C847    1.393   .     A
C846   I894    2.124   .     S
C847   F896    1.357   .     S
C848   C865    1.398   .     A
C848   H877    1.077   .     S
C849   C865    1.409   .     A
C849   I893    2.131   .     S
C850   C866    1.401   .     A
C850   C852    1.477   .     S
C851   H880    1.084   .     S
C851   C857    1.397   .     A
C851   C517    1.370   1_565 S
C852   O886    1.290   .     A
C852   O885    1.303   .     A
C853   C854    1.397   .     A
C853   H869    1.084   .     S
C854   C862    1.420   .     S
C854   C855    1.397   .     A
C855   H870    1.084   .     S
C856   H871    1.084   .     S
C856   C857    1.397   .     A
C856   C519    1.370   1_565 S
C858   N882    1.367   .     A
C858   H872    1.082   .     S
C858   C915    1.418   .     S
C859   H873    1.082   .     S
C859   N881    1.367   .     A
C859   C970    1.418   1_455 S
C860   H874    1.082   .     S
C860   N881    1.367   .     A
C860   C973    1.418   1_455 S
C861   H875    1.082   .     S
C861   N882    1.367   .     A
C861   C916    1.418   .     S
C862   O888    1.285   .     A
C862   O887    1.285   .     A
C863   C865    1.466   .     S
C863   O889    1.297   .     A
C863   O890    1.296   .     A
C864   H876    1.079   .     S
C864   C345    1.399   1_556 S
C866   C867    1.394   .     A
C866   H878    1.077   .     S
C867   C364    1.392   1_556 S
C867   F391    1.353   1_556 S
C868   H879    1.080   .     S
N881   Zn891   2.014   .     S
N882   Zn892   2.013   .     S
O883   Zn891   1.999   .     S
O884   Zn892   2.000   .     S
O885   Zn891   1.936   .     S
O886   Zn892   1.908   .     S
O887   Zn891   2.000   .     S
O888   Zn892   1.999   .     S
O889   Zn891   1.908   .     S
O890   Zn892   1.936   .     S
C897   O940    1.285   .     A
C897   C913    1.419   .     S
C897   O939    1.285   .     A
C898   C899    1.404   .     A
C898   C396    1.414   1_556 S
C898   C420    1.412   1_556 S
C899   C906    1.419   .     A
C899   C903    1.412   .     A
C900   C904    1.391   .     A
C901   C920    1.404   .     A
C901   C902    1.404   .     A
C901   C396    1.418   1_556 S
C902   C903    1.393   .     A
C902   I950    2.124   .     S
C903   F952    1.357   .     S
C904   C921    1.398   .     A
C904   H933    1.077   .     S
C905   C921    1.409   .     A
C905   I949    2.131   .     S
C906   C922    1.401   .     A
C906   C908    1.477   .     S
C907   H936    1.084   .     S
C907   C913    1.397   .     A
C907   C573    1.370   1_565 S
C908   O942    1.290   .     A
C908   O941    1.303   .     A
C909   C910    1.397   .     A
C909   H925    1.084   .     S
C910   C918    1.420   .     S
C910   C911    1.397   .     A
C911   H926    1.084   .     S
C912   H927    1.084   .     S
C912   C913    1.397   .     A
C912   C575    1.370   1_565 S
C914   N938    1.367   .     A
C914   H928    1.082   .     S
C914   C971    1.418   .     S
C915   H929    1.082   .     S
C915   N937    1.367   .     A
C916   H930    1.082   .     S
C916   N937    1.367   .     A
C917   H931    1.082   .     S
C917   N938    1.367   .     A
C917   C972    1.418   .     S
C918   O944    1.285   .     A
C918   O943    1.285   .     A
C919   C921    1.466   .     S
C919   O945    1.297   .     A
C919   O946    1.296   .     A
C920   H932    1.079   .     S
C920   C401    1.399   1_556 S
C922   C923    1.394   .     A
C922   H934    1.077   .     S
C923   C420    1.392   1_556 S
C923   F447    1.353   1_556 S
C924   H935    1.080   .     S
N937   Zn947   2.014   .     S
N938   Zn948   2.013   .     S
O939   Zn947   1.999   .     S
O940   Zn948   2.000   .     S
O941   Zn947   1.936   .     S
O942   Zn948   1.908   .     S
O943   Zn947   2.000   .     S
O944   Zn948   1.999   .     S
O945   Zn947   1.908   .     S
O946   Zn948   1.936   .     S
C953   O996    1.285   .     A
C953   C969    1.419   .     S
C953   O995    1.285   .     A
C954   C955    1.404   .     A
C954   C452    1.414   1_556 S
C954   C476    1.412   1_556 S
C955   C962    1.419   .     A
C955   C959    1.412   .     A
C956   C960    1.391   .     A
C957   C976    1.404   .     A
C957   C958    1.404   .     A
C957   C452    1.418   1_556 S
C958   C959    1.393   .     A
C958   I1006   2.124   .     S
C959   F1008   1.357   .     S
C960   C977    1.398   .     A
C960   H989    1.077   .     S
C961   C977    1.409   .     A
C961   I1005   2.131   .     S
C962   C978    1.401   .     A
C962   C964    1.477   .     S
C963   H992    1.084   .     S
C963   C969    1.397   .     A
C963   C629    1.370   1_565 S
C964   O998    1.290   .     A
C964   O997    1.303   .     A
C965   C966    1.397   .     A
C965   H981    1.084   .     S
C966   C974    1.420   .     S
C966   C967    1.397   .     A
C967   H982    1.084   .     S
C968   H983    1.084   .     S
C968   C969    1.397   .     A
C968   C631    1.370   1_565 S
C970   N994    1.367   .     A
C970   H984    1.082   .     S
C970   C859    1.418   1_655 S
C971   H985    1.082   .     S
C971   N993    1.367   .     A
C972   H986    1.082   .     S
C972   N993    1.367   .     A
C973   H987    1.082   .     S
C973   N994    1.367   .     A
C973   C860    1.418   1_655 S
C974   O1000   1.285   .     A
C974   O999    1.285   .     A
C975   C977    1.466   .     S
C975   O1001   1.297   .     A
C975   O1002   1.296   .     A
C976   H988    1.079   .     S
C976   C457    1.399   1_556 S
C978   C979    1.394   .     A
C978   H990    1.077   .     S
C979   C476    1.392   1_556 S
C979   F503    1.353   1_556 S
C980   H991    1.080   .     S
N993   Zn1003  2.014   .     S
N994   Zn1004  2.013   .     S
O995   Zn1003  1.999   .     S
O996   Zn1004  2.000   .     S
O997   Zn1003  1.936   .     S
O998   Zn1004  1.908   .     S
O999   Zn1003  2.000   .     S
O1000  Zn1004  1.999   .     S
O1001  Zn1003  1.908   .     S
O1002  Zn1004  1.936   .     S
