data_str_m3_o2_o10_pcu_sym.106
_audit_creation_date              2020-01-03
_audit_creation_method            'Materials Studio'
_symmetry_space_group_name_H-M    'P1'
_symmetry_Int_Tables_number       1
_symmetry_cell_setting            triclinic
loop_
_symmetry_equiv_pos_as_xyz
  x,y,z
_cell_length_a                    25.8723
_cell_length_b                    30.0258
_cell_length_c                    28.3224
_cell_angle_alpha                 89.7482
_cell_angle_beta                  97.4225
_cell_angle_gamma                 89.8637
loop_
_atom_site_label
_atom_site_type_symbol
_atom_site_fract_x
_atom_site_fract_y
_atom_site_fract_z
_atom_site_U_iso_or_equiv
_atom_site_adp_type
_atom_site_occupancy
O1     O     0.16667   0.18454   0.28974   0.00000  Uiso   1.00
O2     O     0.16666   0.31547   0.21026   0.00000  Uiso   1.00
O3     O     0.16667   0.18453   0.21026   0.00000  Uiso   1.00
O4     O     0.16666   0.31547   0.28974   0.00000  Uiso   1.00
C5     C     0.16878   0.16394   0.25035   0.00000  Uiso   1.00
C6     C     0.16711   0.33586   0.24995   0.00000  Uiso   1.00
O7     O     0.09058   0.25000   0.28045   0.00000  Uiso   1.00
O8     O     0.24275   0.25000   0.21956   0.00000  Uiso   1.00
O9     O     0.09058   0.25000   0.20097   0.00000  Uiso   1.00
O10    O     0.24275   0.25001   0.29903   0.00000  Uiso   1.00
C11    C     0.06726   0.24942   0.23809   0.00000  Uiso   1.00
C12    C     0.26608   0.25034   0.26194   0.00000  Uiso   1.00
Zn13   Zn    0.16667   0.25001   0.30307   0.00000  Uiso   1.00
Zn14   Zn    0.16667   0.25000   0.19693   0.00000  Uiso   1.00
C15    C     0.01351   0.24184   0.23319   0.00000  Uiso   1.00
C16    C     0.31989   0.25741   0.26708   0.00000  Uiso   1.00
C17    C     0.19484   0.04642   0.29126   0.00000  Uiso   1.00
C18    C     0.12829   0.45354   0.22458   0.00000  Uiso   1.00
H19    H     0.21087   0.02816   0.32286   0.00000  Uiso   1.00
H20    H     0.09610   0.47210   0.20555   0.00000  Uiso   1.00
C21    C     0.19764   0.09266   0.29134   0.00000  Uiso   1.00
C22    C     0.12735   0.40749   0.22281   0.00000  Uiso   1.00
C23    C     0.17347   0.11605   0.25087   0.00000  Uiso   1.00
C24    C     0.16758   0.38343   0.24967   0.00000  Uiso   1.00
C25    C     0.15253   0.09323   0.20990   0.00000  Uiso   1.00
C26    C     0.20929   0.40484   0.27614   0.00000  Uiso   1.00
H27    H     0.13507   0.11083   0.17829   0.00000  Uiso   1.00
H28    H     0.24070   0.38596   0.29603   0.00000  Uiso   1.00
C29    C     0.15324   0.04742   0.20931   0.00000  Uiso   1.00
C30    C     0.21163   0.45071   0.27557   0.00000  Uiso   1.00
H31    H     0.13807   0.03064   0.17671   0.00000  Uiso   1.00
H32    H     0.24565   0.46670   0.29436   0.00000  Uiso   1.00
C33    C     0.17280   0.02376   0.25042   0.00000  Uiso   1.00
C34    C     0.17080   0.47535   0.25039   0.00000  Uiso   1.00
C35    C     0.12329   0.23299   0.04805   0.00000  Uiso   1.00
C36    C     0.17204   0.28878   0.44827   0.00000  Uiso   1.00
H37    H     0.08958   0.21923   0.02649   0.00000  Uiso   1.00
H38    H     0.17701   0.32010   0.46706   0.00000  Uiso   1.00
C39    C     0.12507   0.23276   0.09781   0.00000  Uiso   1.00
C40    C     0.17388   0.28846   0.39900   0.00000  Uiso   1.00
H41    H     0.09285   0.21884   0.11371   0.00000  Uiso   1.00
H42    H     0.18074   0.31925   0.38096   0.00000  Uiso   1.00
N43    N     0.16667   0.24999   0.12624   0.00000  Uiso   1.00
N44    N     0.16667   0.25001   0.37376   0.00000  Uiso   1.00
C45    C     0.20713   0.26822   0.10658   0.00000  Uiso   1.00
C46    C     0.15680   0.21127   0.39621   0.00000  Uiso   1.00
H47    H     0.23916   0.28227   0.12991   0.00000  Uiso   1.00
H48    H     0.15019   0.18130   0.37536   0.00000  Uiso   1.00
C49    C     0.20789   0.26825   0.05676   0.00000  Uiso   1.00
C50    C     0.15547   0.20946   0.44597   0.00000  Uiso   1.00
C51    C     0.16509   0.25024   0.02653   0.00000  Uiso   1.00
C52    C     0.16395   0.24914   0.47303   0.00000  Uiso   1.00
Cl53   Cl    0.32242   0.20462   0.18688   0.00000  Uiso   1.00
Cl54   Cl    0.01088   0.29486   0.31324   0.00000  Uiso   1.00
C55    C     0.22938   0.11481   0.33218   0.00000  Uiso   1.00
C56    C     0.26918   0.14473   0.32414   0.00000  Uiso   1.00
C57    C     0.29983   0.16484   0.36242   0.00000  Uiso   1.00
C58    C     0.29203   0.15442   0.40907   0.00000  Uiso   1.00
C59    C     0.25382   0.12367   0.41748   0.00000  Uiso   1.00
C60    C     0.22227   0.10420   0.37933   0.00000  Uiso   1.00
H61    H     0.27656   0.15240   0.28821   0.00000  Uiso   1.00
H62    H     0.32995   0.18820   0.35591   0.00000  Uiso   1.00
H63    H     0.31595   0.16978   0.43872   0.00000  Uiso   1.00
H64    H     0.24880   0.11478   0.45361   0.00000  Uiso   1.00
H65    H     0.19235   0.08090   0.38658   0.00000  Uiso   1.00
C66    C     0.08522   0.38463   0.19226   0.00000  Uiso   1.00
C67    C     0.09434   0.36946   0.14725   0.00000  Uiso   1.00
C68    C     0.05924   0.34039   0.12184   0.00000  Uiso   1.00
C69    C     0.01429   0.32739   0.14064   0.00000  Uiso   1.00
C70    C     0.00338   0.34453   0.18410   0.00000  Uiso   1.00
C71    C     0.03912   0.37274   0.21028   0.00000  Uiso   1.00
H72    H     0.13008   0.37806   0.13322   0.00000  Uiso   1.00
H73    H     0.06764   0.32700   0.08823   0.00000  Uiso   1.00
H74    H     0.32188   0.30339   0.12185   0.00000  Uiso   1.00
H75    H     0.30155   0.33464   0.19830   0.00000  Uiso   1.00
H76    H     0.03186   0.38393   0.24514   0.00000  Uiso   1.00
C77    C     0.25383   0.28627   0.03709   0.00000  Uiso   1.00
C78    C     0.28540   0.25819   0.01330   0.00000  Uiso   1.00
C79    C     0.32674   0.27583   0.49202   0.00000  Uiso   1.00
C80    C     0.00369   0.32147   0.49456   0.00000  Uiso   1.00
C81    C     0.30587   0.34959   0.01827   0.00000  Uiso   1.00
C82    C     0.26437   0.33211   0.03950   0.00000  Uiso   1.00
H83    H     0.27761   0.22283   0.01070   0.00000  Uiso   1.00
H84    H     0.01723   0.25417   0.47325   0.00000  Uiso   1.00
H85    H     0.03578   0.33505   0.47814   0.00000  Uiso   1.00
H86    H     0.31387   0.38494   0.02020   0.00000  Uiso   1.00
H87    H     0.24016   0.35426   0.05735   0.00000  Uiso   1.00
C88    C     0.14493   0.16591   0.46790   0.00000  Uiso   1.00
C89    C     0.17769   0.14925   0.00760   0.00000  Uiso   1.00
C90    C     0.16693   0.10836   0.02797   0.00000  Uiso   1.00
C91    C     0.12372   0.08357   0.00874   0.00000  Uiso   1.00
C92    C     0.09127   0.09954   0.46899   0.00000  Uiso   1.00
C93    C     0.10187   0.14042   0.44854   0.00000  Uiso   1.00
H94    H     0.21177   0.16762   0.02259   0.00000  Uiso   1.00
H95    H     0.19223   0.09583   0.05859   0.00000  Uiso   1.00
H96    H     0.11546   0.05192   0.02455   0.00000  Uiso   1.00
H97    H     0.05783   0.08030   0.45403   0.00000  Uiso   1.00
H98    H     0.07625   0.15239   0.41785   0.00000  Uiso   1.00
O99    O     0.50000   0.18454   0.28974   0.00000  Uiso   1.00
O100   O     0.50000   0.31547   0.21026   0.00000  Uiso   1.00
O101   O     0.50000   0.18453   0.21026   0.00000  Uiso   1.00
O102   O     0.50000   0.31547   0.28974   0.00000  Uiso   1.00
C103   C     0.50212   0.16394   0.25035   0.00000  Uiso   1.00
C104   C     0.50045   0.33586   0.24995   0.00000  Uiso   1.00
O105   O     0.42392   0.25000   0.28045   0.00000  Uiso   1.00
O106   O     0.57608   0.25000   0.21956   0.00000  Uiso   1.00
O107   O     0.42392   0.25000   0.20097   0.00000  Uiso   1.00
O108   O     0.57608   0.25001   0.29903   0.00000  Uiso   1.00
C109   C     0.40059   0.24942   0.23809   0.00000  Uiso   1.00
C110   C     0.59941   0.25034   0.26194   0.00000  Uiso   1.00
Zn111  Zn    0.50000   0.25001   0.30307   0.00000  Uiso   1.00
Zn112  Zn    0.50000   0.25000   0.19693   0.00000  Uiso   1.00
C113   C     0.34685   0.24184   0.23319   0.00000  Uiso   1.00
C114   C     0.65322   0.25741   0.26708   0.00000  Uiso   1.00
C115   C     0.52817   0.04642   0.29126   0.00000  Uiso   1.00
C116   C     0.46162   0.45354   0.22458   0.00000  Uiso   1.00
H117   H     0.54420   0.02816   0.32286   0.00000  Uiso   1.00
H118   H     0.42943   0.47210   0.20555   0.00000  Uiso   1.00
C119   C     0.53097   0.09266   0.29134   0.00000  Uiso   1.00
C120   C     0.46068   0.40749   0.22281   0.00000  Uiso   1.00
C121   C     0.50681   0.11605   0.25087   0.00000  Uiso   1.00
C122   C     0.50091   0.38343   0.24967   0.00000  Uiso   1.00
C123   C     0.48586   0.09323   0.20990   0.00000  Uiso   1.00
C124   C     0.54262   0.40484   0.27614   0.00000  Uiso   1.00
H125   H     0.46841   0.11083   0.17829   0.00000  Uiso   1.00
H126   H     0.57404   0.38596   0.29603   0.00000  Uiso   1.00
C127   C     0.48658   0.04742   0.20931   0.00000  Uiso   1.00
C128   C     0.54496   0.45071   0.27557   0.00000  Uiso   1.00
H129   H     0.47141   0.03064   0.17671   0.00000  Uiso   1.00
H130   H     0.57898   0.46670   0.29436   0.00000  Uiso   1.00
C131   C     0.50613   0.02376   0.25042   0.00000  Uiso   1.00
C132   C     0.50413   0.47535   0.25039   0.00000  Uiso   1.00
C133   C     0.45662   0.23299   0.04805   0.00000  Uiso   1.00
C134   C     0.50537   0.28878   0.44827   0.00000  Uiso   1.00
H135   H     0.42291   0.21923   0.02649   0.00000  Uiso   1.00
H136   H     0.51035   0.32010   0.46706   0.00000  Uiso   1.00
C137   C     0.45840   0.23276   0.09781   0.00000  Uiso   1.00
C138   C     0.50721   0.28846   0.39900   0.00000  Uiso   1.00
H139   H     0.42618   0.21884   0.11371   0.00000  Uiso   1.00
H140   H     0.51408   0.31925   0.38096   0.00000  Uiso   1.00
N141   N     0.50000   0.24999   0.12624   0.00000  Uiso   1.00
N142   N     0.50000   0.25001   0.37376   0.00000  Uiso   1.00
C143   C     0.54046   0.26822   0.10658   0.00000  Uiso   1.00
C144   C     0.49013   0.21127   0.39621   0.00000  Uiso   1.00
H145   H     0.57250   0.28227   0.12991   0.00000  Uiso   1.00
H146   H     0.48352   0.18130   0.37536   0.00000  Uiso   1.00
C147   C     0.54122   0.26825   0.05676   0.00000  Uiso   1.00
C148   C     0.48881   0.20946   0.44597   0.00000  Uiso   1.00
C149   C     0.49842   0.25024   0.02653   0.00000  Uiso   1.00
C150   C     0.49728   0.24914   0.47303   0.00000  Uiso   1.00
Cl151  Cl    0.65575   0.20462   0.18688   0.00000  Uiso   1.00
Cl152  Cl    0.34421   0.29486   0.31324   0.00000  Uiso   1.00
C153   C     0.56271   0.11481   0.33218   0.00000  Uiso   1.00
C154   C     0.60251   0.14473   0.32414   0.00000  Uiso   1.00
C155   C     0.63316   0.16484   0.36242   0.00000  Uiso   1.00
C156   C     0.62536   0.15442   0.40907   0.00000  Uiso   1.00
C157   C     0.58716   0.12367   0.41748   0.00000  Uiso   1.00
C158   C     0.55560   0.10420   0.37933   0.00000  Uiso   1.00
H159   H     0.60989   0.15240   0.28821   0.00000  Uiso   1.00
H160   H     0.66328   0.18820   0.35591   0.00000  Uiso   1.00
H161   H     0.64929   0.16978   0.43872   0.00000  Uiso   1.00
H162   H     0.58213   0.11478   0.45361   0.00000  Uiso   1.00
H163   H     0.52568   0.08090   0.38658   0.00000  Uiso   1.00
C164   C     0.41856   0.38463   0.19226   0.00000  Uiso   1.00
C165   C     0.42767   0.36946   0.14725   0.00000  Uiso   1.00
C166   C     0.39257   0.34039   0.12184   0.00000  Uiso   1.00
C167   C     0.34762   0.32739   0.14064   0.00000  Uiso   1.00
C168   C     0.33671   0.34453   0.18410   0.00000  Uiso   1.00
C169   C     0.37245   0.37274   0.21028   0.00000  Uiso   1.00
H170   H     0.46341   0.37806   0.13322   0.00000  Uiso   1.00
H171   H     0.40097   0.32700   0.08823   0.00000  Uiso   1.00
H172   H     0.65521   0.30339   0.12185   0.00000  Uiso   1.00
H173   H     0.63489   0.33464   0.19830   0.00000  Uiso   1.00
H174   H     0.36519   0.38393   0.24514   0.00000  Uiso   1.00
C175   C     0.58716   0.28627   0.03709   0.00000  Uiso   1.00
C176   C     0.61874   0.25819   0.01330   0.00000  Uiso   1.00
C177   C     0.66007   0.27583   0.49202   0.00000  Uiso   1.00
C178   C     0.33702   0.32147   0.49456   0.00000  Uiso   1.00
C179   C     0.63920   0.34959   0.01827   0.00000  Uiso   1.00
C180   C     0.59771   0.33211   0.03950   0.00000  Uiso   1.00
H181   H     0.61095   0.22283   0.01070   0.00000  Uiso   1.00
H182   H     0.35056   0.25417   0.47325   0.00000  Uiso   1.00
H183   H     0.36911   0.33505   0.47814   0.00000  Uiso   1.00
H184   H     0.64721   0.38494   0.02020   0.00000  Uiso   1.00
H185   H     0.57349   0.35426   0.05735   0.00000  Uiso   1.00
C186   C     0.47827   0.16591   0.46790   0.00000  Uiso   1.00
C187   C     0.51102   0.14925   0.00760   0.00000  Uiso   1.00
C188   C     0.50027   0.10836   0.02797   0.00000  Uiso   1.00
C189   C     0.45705   0.08357   0.00874   0.00000  Uiso   1.00
C190   C     0.42460   0.09954   0.46899   0.00000  Uiso   1.00
C191   C     0.43521   0.14042   0.44854   0.00000  Uiso   1.00
H192   H     0.54510   0.16762   0.02259   0.00000  Uiso   1.00
H193   H     0.52557   0.09583   0.05859   0.00000  Uiso   1.00
H194   H     0.44879   0.05192   0.02455   0.00000  Uiso   1.00
H195   H     0.39116   0.08030   0.45403   0.00000  Uiso   1.00
H196   H     0.40958   0.15239   0.41785   0.00000  Uiso   1.00
O197   O     0.83334   0.18454   0.28974   0.00000  Uiso   1.00
O198   O     0.83333   0.31547   0.21026   0.00000  Uiso   1.00
O199   O     0.83334   0.18453   0.21026   0.00000  Uiso   1.00
O200   O     0.83333   0.31547   0.28974   0.00000  Uiso   1.00
C201   C     0.83545   0.16394   0.25035   0.00000  Uiso   1.00
C202   C     0.83378   0.33586   0.24995   0.00000  Uiso   1.00
O203   O     0.75725   0.25000   0.28045   0.00000  Uiso   1.00
O204   O     0.90942   0.25000   0.21956   0.00000  Uiso   1.00
O205   O     0.75725   0.25000   0.20097   0.00000  Uiso   1.00
O206   O     0.90942   0.25001   0.29903   0.00000  Uiso   1.00
C207   C     0.73393   0.24942   0.23809   0.00000  Uiso   1.00
C208   C     0.93275   0.25034   0.26194   0.00000  Uiso   1.00
Zn209  Zn    0.83333   0.25001   0.30307   0.00000  Uiso   1.00
Zn210  Zn    0.83333   0.25000   0.19693   0.00000  Uiso   1.00
C211   C     0.68018   0.24184   0.23319   0.00000  Uiso   1.00
C212   C     0.98656   0.25741   0.26708   0.00000  Uiso   1.00
C213   C     0.86151   0.04642   0.29126   0.00000  Uiso   1.00
C214   C     0.79495   0.45354   0.22458   0.00000  Uiso   1.00
H215   H     0.87754   0.02816   0.32286   0.00000  Uiso   1.00
H216   H     0.76276   0.47210   0.20555   0.00000  Uiso   1.00
C217   C     0.86430   0.09266   0.29134   0.00000  Uiso   1.00
C218   C     0.79401   0.40749   0.22281   0.00000  Uiso   1.00
C219   C     0.84014   0.11605   0.25087   0.00000  Uiso   1.00
C220   C     0.83425   0.38343   0.24967   0.00000  Uiso   1.00
C221   C     0.81920   0.09323   0.20990   0.00000  Uiso   1.00
C222   C     0.87595   0.40484   0.27614   0.00000  Uiso   1.00
H223   H     0.80174   0.11083   0.17829   0.00000  Uiso   1.00
H224   H     0.90737   0.38596   0.29603   0.00000  Uiso   1.00
C225   C     0.81991   0.04742   0.20931   0.00000  Uiso   1.00
C226   C     0.87830   0.45071   0.27557   0.00000  Uiso   1.00
H227   H     0.80474   0.03064   0.17671   0.00000  Uiso   1.00
H228   H     0.91231   0.46670   0.29436   0.00000  Uiso   1.00
C229   C     0.83946   0.02376   0.25042   0.00000  Uiso   1.00
C230   C     0.83746   0.47535   0.25039   0.00000  Uiso   1.00
C231   C     0.78995   0.23299   0.04805   0.00000  Uiso   1.00
C232   C     0.83870   0.28878   0.44827   0.00000  Uiso   1.00
H233   H     0.75625   0.21923   0.02649   0.00000  Uiso   1.00
H234   H     0.84368   0.32010   0.46706   0.00000  Uiso   1.00
C235   C     0.79173   0.23276   0.09781   0.00000  Uiso   1.00
C236   C     0.84055   0.28846   0.39900   0.00000  Uiso   1.00
H237   H     0.75952   0.21884   0.11371   0.00000  Uiso   1.00
H238   H     0.84741   0.31925   0.38096   0.00000  Uiso   1.00
N239   N     0.83333   0.24999   0.12624   0.00000  Uiso   1.00
N240   N     0.83333   0.25001   0.37376   0.00000  Uiso   1.00
C241   C     0.87379   0.26822   0.10658   0.00000  Uiso   1.00
C242   C     0.82347   0.21127   0.39621   0.00000  Uiso   1.00
H243   H     0.90583   0.28227   0.12991   0.00000  Uiso   1.00
H244   H     0.81685   0.18130   0.37536   0.00000  Uiso   1.00
C245   C     0.87455   0.26825   0.05676   0.00000  Uiso   1.00
C246   C     0.82214   0.20946   0.44597   0.00000  Uiso   1.00
C247   C     0.83176   0.25024   0.02653   0.00000  Uiso   1.00
C248   C     0.83062   0.24914   0.47303   0.00000  Uiso   1.00
Cl249  Cl    0.98909   0.20462   0.18688   0.00000  Uiso   1.00
Cl250  Cl    0.67754   0.29486   0.31324   0.00000  Uiso   1.00
C251   C     0.89605   0.11481   0.33218   0.00000  Uiso   1.00
C252   C     0.93585   0.14473   0.32414   0.00000  Uiso   1.00
C253   C     0.96649   0.16484   0.36242   0.00000  Uiso   1.00
C254   C     0.95870   0.15442   0.40907   0.00000  Uiso   1.00
C255   C     0.92049   0.12367   0.41748   0.00000  Uiso   1.00
C256   C     0.88893   0.10420   0.37933   0.00000  Uiso   1.00
H257   H     0.94322   0.15240   0.28821   0.00000  Uiso   1.00
H258   H     0.99662   0.18820   0.35591   0.00000  Uiso   1.00
H259   H     0.98262   0.16978   0.43872   0.00000  Uiso   1.00
H260   H     0.91546   0.11478   0.45361   0.00000  Uiso   1.00
H261   H     0.85902   0.08090   0.38658   0.00000  Uiso   1.00
C262   C     0.75189   0.38463   0.19226   0.00000  Uiso   1.00
C263   C     0.76101   0.36946   0.14725   0.00000  Uiso   1.00
C264   C     0.72591   0.34039   0.12184   0.00000  Uiso   1.00
C265   C     0.68095   0.32739   0.14064   0.00000  Uiso   1.00
C266   C     0.67005   0.34453   0.18410   0.00000  Uiso   1.00
C267   C     0.70579   0.37274   0.21028   0.00000  Uiso   1.00
H268   H     0.79674   0.37806   0.13322   0.00000  Uiso   1.00
H269   H     0.73430   0.32700   0.08823   0.00000  Uiso   1.00
H270   H     0.98855   0.30339   0.12185   0.00000  Uiso   1.00
H271   H     0.96822   0.33464   0.19830   0.00000  Uiso   1.00
H272   H     0.69853   0.38393   0.24514   0.00000  Uiso   1.00
C273   C     0.92050   0.28627   0.03709   0.00000  Uiso   1.00
C274   C     0.95207   0.25819   0.01330   0.00000  Uiso   1.00
C275   C     0.99341   0.27583   0.49202   0.00000  Uiso   1.00
C276   C     0.67036   0.32147   0.49456   0.00000  Uiso   1.00
C277   C     0.97254   0.34959   0.01827   0.00000  Uiso   1.00
C278   C     0.93104   0.33211   0.03950   0.00000  Uiso   1.00
H279   H     0.94428   0.22283   0.01070   0.00000  Uiso   1.00
H280   H     0.68389   0.25417   0.47325   0.00000  Uiso   1.00
H281   H     0.70244   0.33505   0.47814   0.00000  Uiso   1.00
H282   H     0.98054   0.38494   0.02020   0.00000  Uiso   1.00
H283   H     0.90682   0.35426   0.05735   0.00000  Uiso   1.00
C284   C     0.81160   0.16591   0.46790   0.00000  Uiso   1.00
C285   C     0.84435   0.14925   0.00760   0.00000  Uiso   1.00
C286   C     0.83360   0.10836   0.02797   0.00000  Uiso   1.00
C287   C     0.79038   0.08357   0.00874   0.00000  Uiso   1.00
C288   C     0.75794   0.09954   0.46899   0.00000  Uiso   1.00
C289   C     0.76854   0.14042   0.44854   0.00000  Uiso   1.00
H290   H     0.87844   0.16762   0.02259   0.00000  Uiso   1.00
H291   H     0.85890   0.09583   0.05859   0.00000  Uiso   1.00
H292   H     0.78212   0.05192   0.02455   0.00000  Uiso   1.00
H293   H     0.72450   0.08030   0.45403   0.00000  Uiso   1.00
H294   H     0.74292   0.15239   0.41785   0.00000  Uiso   1.00
O295   O     0.16667   0.68454   0.28974   0.00000  Uiso   1.00
O296   O     0.16666   0.81547   0.21026   0.00000  Uiso   1.00
O297   O     0.16667   0.68453   0.21026   0.00000  Uiso   1.00
O298   O     0.16666   0.81547   0.28974   0.00000  Uiso   1.00
C299   C     0.16878   0.66394   0.25035   0.00000  Uiso   1.00
C300   C     0.16711   0.83586   0.24995   0.00000  Uiso   1.00
O301   O     0.09058   0.75000   0.28045   0.00000  Uiso   1.00
O302   O     0.24275   0.75000   0.21956   0.00000  Uiso   1.00
O303   O     0.09058   0.75000   0.20097   0.00000  Uiso   1.00
O304   O     0.24275   0.75001   0.29903   0.00000  Uiso   1.00
C305   C     0.06726   0.74942   0.23809   0.00000  Uiso   1.00
C306   C     0.26608   0.75034   0.26194   0.00000  Uiso   1.00
Zn307  Zn    0.16667   0.75001   0.30307   0.00000  Uiso   1.00
Zn308  Zn    0.16667   0.75000   0.19693   0.00000  Uiso   1.00
C309   C     0.01351   0.74184   0.23319   0.00000  Uiso   1.00
C310   C     0.31989   0.75741   0.26708   0.00000  Uiso   1.00
C311   C     0.19484   0.54642   0.29126   0.00000  Uiso   1.00
C312   C     0.12829   0.95354   0.22458   0.00000  Uiso   1.00
H313   H     0.21087   0.52816   0.32286   0.00000  Uiso   1.00
H314   H     0.09610   0.97210   0.20555   0.00000  Uiso   1.00
C315   C     0.19764   0.59266   0.29134   0.00000  Uiso   1.00
C316   C     0.12735   0.90749   0.22281   0.00000  Uiso   1.00
C317   C     0.17347   0.61605   0.25087   0.00000  Uiso   1.00
C318   C     0.16758   0.88343   0.24967   0.00000  Uiso   1.00
C319   C     0.15253   0.59323   0.20990   0.00000  Uiso   1.00
C320   C     0.20929   0.90484   0.27614   0.00000  Uiso   1.00
H321   H     0.13507   0.61083   0.17829   0.00000  Uiso   1.00
H322   H     0.24070   0.88596   0.29603   0.00000  Uiso   1.00
C323   C     0.15324   0.54742   0.20931   0.00000  Uiso   1.00
C324   C     0.21163   0.95071   0.27557   0.00000  Uiso   1.00
H325   H     0.13807   0.53064   0.17671   0.00000  Uiso   1.00
H326   H     0.24565   0.96670   0.29436   0.00000  Uiso   1.00
C327   C     0.17280   0.52376   0.25042   0.00000  Uiso   1.00
C328   C     0.17080   0.97535   0.25039   0.00000  Uiso   1.00
C329   C     0.12329   0.73299   0.04805   0.00000  Uiso   1.00
C330   C     0.17204   0.78878   0.44827   0.00000  Uiso   1.00
H331   H     0.08958   0.71923   0.02649   0.00000  Uiso   1.00
H332   H     0.17701   0.82010   0.46706   0.00000  Uiso   1.00
C333   C     0.12507   0.73276   0.09781   0.00000  Uiso   1.00
C334   C     0.17388   0.78846   0.39900   0.00000  Uiso   1.00
H335   H     0.09285   0.71884   0.11371   0.00000  Uiso   1.00
H336   H     0.18074   0.81925   0.38096   0.00000  Uiso   1.00
N337   N     0.16667   0.74999   0.12624   0.00000  Uiso   1.00
N338   N     0.16667   0.75001   0.37376   0.00000  Uiso   1.00
C339   C     0.20713   0.76822   0.10658   0.00000  Uiso   1.00
C340   C     0.15680   0.71127   0.39621   0.00000  Uiso   1.00
H341   H     0.23916   0.78227   0.12991   0.00000  Uiso   1.00
H342   H     0.15019   0.68130   0.37536   0.00000  Uiso   1.00
C343   C     0.20789   0.76825   0.05676   0.00000  Uiso   1.00
C344   C     0.15547   0.70946   0.44597   0.00000  Uiso   1.00
C345   C     0.16509   0.75024   0.02653   0.00000  Uiso   1.00
C346   C     0.16395   0.74914   0.47303   0.00000  Uiso   1.00
Cl347  Cl    0.32242   0.70462   0.18688   0.00000  Uiso   1.00
Cl348  Cl    0.01088   0.79486   0.31324   0.00000  Uiso   1.00
C349   C     0.22938   0.61481   0.33218   0.00000  Uiso   1.00
C350   C     0.26918   0.64473   0.32414   0.00000  Uiso   1.00
C351   C     0.29983   0.66484   0.36242   0.00000  Uiso   1.00
C352   C     0.29203   0.65442   0.40907   0.00000  Uiso   1.00
C353   C     0.25382   0.62367   0.41748   0.00000  Uiso   1.00
C354   C     0.22227   0.60420   0.37933   0.00000  Uiso   1.00
H355   H     0.27656   0.65240   0.28821   0.00000  Uiso   1.00
H356   H     0.32995   0.68820   0.35591   0.00000  Uiso   1.00
H357   H     0.31595   0.66978   0.43872   0.00000  Uiso   1.00
H358   H     0.24880   0.61478   0.45361   0.00000  Uiso   1.00
H359   H     0.19235   0.58090   0.38658   0.00000  Uiso   1.00
C360   C     0.08522   0.88463   0.19226   0.00000  Uiso   1.00
C361   C     0.09434   0.86946   0.14725   0.00000  Uiso   1.00
C362   C     0.05924   0.84039   0.12184   0.00000  Uiso   1.00
C363   C     0.01429   0.82739   0.14064   0.00000  Uiso   1.00
C364   C     0.00338   0.84453   0.18410   0.00000  Uiso   1.00
C365   C     0.03912   0.87274   0.21028   0.00000  Uiso   1.00
H366   H     0.13008   0.87806   0.13322   0.00000  Uiso   1.00
H367   H     0.06764   0.82700   0.08823   0.00000  Uiso   1.00
H368   H     0.32188   0.80339   0.12185   0.00000  Uiso   1.00
H369   H     0.30155   0.83464   0.19830   0.00000  Uiso   1.00
H370   H     0.03186   0.88393   0.24514   0.00000  Uiso   1.00
C371   C     0.25383   0.78627   0.03709   0.00000  Uiso   1.00
C372   C     0.28540   0.75819   0.01330   0.00000  Uiso   1.00
C373   C     0.32674   0.77583   0.49202   0.00000  Uiso   1.00
C374   C     0.00369   0.82147   0.49456   0.00000  Uiso   1.00
C375   C     0.30587   0.84959   0.01827   0.00000  Uiso   1.00
C376   C     0.26437   0.83211   0.03950   0.00000  Uiso   1.00
H377   H     0.27761   0.72283   0.01070   0.00000  Uiso   1.00
H378   H     0.01723   0.75417   0.47325   0.00000  Uiso   1.00
H379   H     0.03578   0.83505   0.47814   0.00000  Uiso   1.00
H380   H     0.31387   0.88494   0.02020   0.00000  Uiso   1.00
H381   H     0.24016   0.85426   0.05735   0.00000  Uiso   1.00
C382   C     0.14493   0.66591   0.46790   0.00000  Uiso   1.00
C383   C     0.17769   0.64925   0.00760   0.00000  Uiso   1.00
C384   C     0.16693   0.60836   0.02797   0.00000  Uiso   1.00
C385   C     0.12372   0.58357   0.00874   0.00000  Uiso   1.00
C386   C     0.09127   0.59954   0.46899   0.00000  Uiso   1.00
C387   C     0.10187   0.64042   0.44854   0.00000  Uiso   1.00
H388   H     0.21177   0.66762   0.02259   0.00000  Uiso   1.00
H389   H     0.19223   0.59583   0.05859   0.00000  Uiso   1.00
H390   H     0.11546   0.55192   0.02455   0.00000  Uiso   1.00
H391   H     0.05783   0.58030   0.45403   0.00000  Uiso   1.00
H392   H     0.07625   0.65239   0.41785   0.00000  Uiso   1.00
O393   O     0.50000   0.68454   0.28974   0.00000  Uiso   1.00
O394   O     0.50000   0.81547   0.21026   0.00000  Uiso   1.00
O395   O     0.50000   0.68453   0.21026   0.00000  Uiso   1.00
O396   O     0.50000   0.81547   0.28974   0.00000  Uiso   1.00
C397   C     0.50212   0.66394   0.25035   0.00000  Uiso   1.00
C398   C     0.50045   0.83586   0.24995   0.00000  Uiso   1.00
O399   O     0.42392   0.75000   0.28045   0.00000  Uiso   1.00
O400   O     0.57608   0.75000   0.21956   0.00000  Uiso   1.00
O401   O     0.42392   0.75000   0.20097   0.00000  Uiso   1.00
O402   O     0.57608   0.75001   0.29903   0.00000  Uiso   1.00
C403   C     0.40059   0.74942   0.23809   0.00000  Uiso   1.00
C404   C     0.59941   0.75034   0.26194   0.00000  Uiso   1.00
Zn405  Zn    0.50000   0.75001   0.30307   0.00000  Uiso   1.00
Zn406  Zn    0.50000   0.75000   0.19693   0.00000  Uiso   1.00
C407   C     0.34685   0.74184   0.23319   0.00000  Uiso   1.00
C408   C     0.65322   0.75741   0.26708   0.00000  Uiso   1.00
C409   C     0.52817   0.54642   0.29126   0.00000  Uiso   1.00
C410   C     0.46162   0.95354   0.22458   0.00000  Uiso   1.00
H411   H     0.54420   0.52816   0.32286   0.00000  Uiso   1.00
H412   H     0.42943   0.97210   0.20555   0.00000  Uiso   1.00
C413   C     0.53097   0.59266   0.29134   0.00000  Uiso   1.00
C414   C     0.46068   0.90749   0.22281   0.00000  Uiso   1.00
C415   C     0.50681   0.61605   0.25087   0.00000  Uiso   1.00
C416   C     0.50091   0.88343   0.24967   0.00000  Uiso   1.00
C417   C     0.48586   0.59323   0.20990   0.00000  Uiso   1.00
C418   C     0.54262   0.90484   0.27614   0.00000  Uiso   1.00
H419   H     0.46841   0.61083   0.17829   0.00000  Uiso   1.00
H420   H     0.57404   0.88596   0.29603   0.00000  Uiso   1.00
C421   C     0.48658   0.54742   0.20931   0.00000  Uiso   1.00
C422   C     0.54496   0.95071   0.27557   0.00000  Uiso   1.00
H423   H     0.47141   0.53064   0.17671   0.00000  Uiso   1.00
H424   H     0.57898   0.96670   0.29436   0.00000  Uiso   1.00
C425   C     0.50613   0.52376   0.25042   0.00000  Uiso   1.00
C426   C     0.50413   0.97535   0.25039   0.00000  Uiso   1.00
C427   C     0.45662   0.73299   0.04805   0.00000  Uiso   1.00
C428   C     0.50537   0.78878   0.44827   0.00000  Uiso   1.00
H429   H     0.42291   0.71923   0.02649   0.00000  Uiso   1.00
H430   H     0.51035   0.82010   0.46706   0.00000  Uiso   1.00
C431   C     0.45840   0.73276   0.09781   0.00000  Uiso   1.00
C432   C     0.50721   0.78846   0.39900   0.00000  Uiso   1.00
H433   H     0.42618   0.71884   0.11371   0.00000  Uiso   1.00
H434   H     0.51408   0.81925   0.38096   0.00000  Uiso   1.00
N435   N     0.50000   0.74999   0.12624   0.00000  Uiso   1.00
N436   N     0.50000   0.75001   0.37376   0.00000  Uiso   1.00
C437   C     0.54046   0.76822   0.10658   0.00000  Uiso   1.00
C438   C     0.49013   0.71127   0.39621   0.00000  Uiso   1.00
H439   H     0.57250   0.78227   0.12991   0.00000  Uiso   1.00
H440   H     0.48352   0.68130   0.37536   0.00000  Uiso   1.00
C441   C     0.54122   0.76825   0.05676   0.00000  Uiso   1.00
C442   C     0.48881   0.70946   0.44597   0.00000  Uiso   1.00
C443   C     0.49842   0.75024   0.02653   0.00000  Uiso   1.00
C444   C     0.49728   0.74914   0.47303   0.00000  Uiso   1.00
Cl445  Cl    0.65575   0.70462   0.18688   0.00000  Uiso   1.00
Cl446  Cl    0.34421   0.79486   0.31324   0.00000  Uiso   1.00
C447   C     0.56271   0.61481   0.33218   0.00000  Uiso   1.00
C448   C     0.60251   0.64473   0.32414   0.00000  Uiso   1.00
C449   C     0.63316   0.66484   0.36242   0.00000  Uiso   1.00
C450   C     0.62536   0.65442   0.40907   0.00000  Uiso   1.00
C451   C     0.58716   0.62367   0.41748   0.00000  Uiso   1.00
C452   C     0.55560   0.60420   0.37933   0.00000  Uiso   1.00
H453   H     0.60989   0.65240   0.28821   0.00000  Uiso   1.00
H454   H     0.66328   0.68820   0.35591   0.00000  Uiso   1.00
H455   H     0.64929   0.66978   0.43872   0.00000  Uiso   1.00
H456   H     0.58213   0.61478   0.45361   0.00000  Uiso   1.00
H457   H     0.52568   0.58090   0.38658   0.00000  Uiso   1.00
C458   C     0.41856   0.88463   0.19226   0.00000  Uiso   1.00
C459   C     0.42767   0.86946   0.14725   0.00000  Uiso   1.00
C460   C     0.39257   0.84039   0.12184   0.00000  Uiso   1.00
C461   C     0.34762   0.82739   0.14064   0.00000  Uiso   1.00
C462   C     0.33671   0.84453   0.18410   0.00000  Uiso   1.00
C463   C     0.37245   0.87274   0.21028   0.00000  Uiso   1.00
H464   H     0.46341   0.87806   0.13322   0.00000  Uiso   1.00
H465   H     0.40097   0.82700   0.08823   0.00000  Uiso   1.00
H466   H     0.65521   0.80339   0.12185   0.00000  Uiso   1.00
H467   H     0.63489   0.83464   0.19830   0.00000  Uiso   1.00
H468   H     0.36519   0.88393   0.24514   0.00000  Uiso   1.00
C469   C     0.58716   0.78627   0.03709   0.00000  Uiso   1.00
C470   C     0.61874   0.75819   0.01330   0.00000  Uiso   1.00
C471   C     0.66007   0.77583   0.49202   0.00000  Uiso   1.00
C472   C     0.33702   0.82147   0.49456   0.00000  Uiso   1.00
C473   C     0.63920   0.84959   0.01827   0.00000  Uiso   1.00
C474   C     0.59771   0.83211   0.03950   0.00000  Uiso   1.00
H475   H     0.61095   0.72283   0.01070   0.00000  Uiso   1.00
H476   H     0.35056   0.75417   0.47325   0.00000  Uiso   1.00
H477   H     0.36911   0.83505   0.47814   0.00000  Uiso   1.00
H478   H     0.64721   0.88494   0.02020   0.00000  Uiso   1.00
H479   H     0.57349   0.85426   0.05735   0.00000  Uiso   1.00
C480   C     0.47827   0.66591   0.46790   0.00000  Uiso   1.00
C481   C     0.51102   0.64925   0.00760   0.00000  Uiso   1.00
C482   C     0.50027   0.60836   0.02797   0.00000  Uiso   1.00
C483   C     0.45705   0.58357   0.00874   0.00000  Uiso   1.00
C484   C     0.42460   0.59954   0.46899   0.00000  Uiso   1.00
C485   C     0.43521   0.64042   0.44854   0.00000  Uiso   1.00
H486   H     0.54510   0.66762   0.02259   0.00000  Uiso   1.00
H487   H     0.52557   0.59583   0.05859   0.00000  Uiso   1.00
H488   H     0.44879   0.55192   0.02455   0.00000  Uiso   1.00
H489   H     0.39116   0.58030   0.45403   0.00000  Uiso   1.00
H490   H     0.40958   0.65239   0.41785   0.00000  Uiso   1.00
O491   O     0.83334   0.68454   0.28974   0.00000  Uiso   1.00
O492   O     0.83333   0.81547   0.21026   0.00000  Uiso   1.00
O493   O     0.83334   0.68453   0.21026   0.00000  Uiso   1.00
O494   O     0.83333   0.81547   0.28974   0.00000  Uiso   1.00
C495   C     0.83545   0.66394   0.25035   0.00000  Uiso   1.00
C496   C     0.83378   0.83586   0.24995   0.00000  Uiso   1.00
O497   O     0.75725   0.75000   0.28045   0.00000  Uiso   1.00
O498   O     0.90942   0.75000   0.21956   0.00000  Uiso   1.00
O499   O     0.75725   0.75000   0.20097   0.00000  Uiso   1.00
O500   O     0.90942   0.75001   0.29903   0.00000  Uiso   1.00
C501   C     0.73393   0.74942   0.23809   0.00000  Uiso   1.00
C502   C     0.93275   0.75034   0.26194   0.00000  Uiso   1.00
Zn503  Zn    0.83333   0.75001   0.30307   0.00000  Uiso   1.00
Zn504  Zn    0.83333   0.75000   0.19693   0.00000  Uiso   1.00
C505   C     0.68018   0.74184   0.23319   0.00000  Uiso   1.00
C506   C     0.98656   0.75741   0.26708   0.00000  Uiso   1.00
C507   C     0.86151   0.54642   0.29126   0.00000  Uiso   1.00
C508   C     0.79495   0.95354   0.22458   0.00000  Uiso   1.00
H509   H     0.87754   0.52816   0.32286   0.00000  Uiso   1.00
H510   H     0.76276   0.97210   0.20555   0.00000  Uiso   1.00
C511   C     0.86430   0.59266   0.29134   0.00000  Uiso   1.00
C512   C     0.79401   0.90749   0.22281   0.00000  Uiso   1.00
C513   C     0.84014   0.61605   0.25087   0.00000  Uiso   1.00
C514   C     0.83425   0.88343   0.24967   0.00000  Uiso   1.00
C515   C     0.81920   0.59323   0.20990   0.00000  Uiso   1.00
C516   C     0.87595   0.90484   0.27614   0.00000  Uiso   1.00
H517   H     0.80174   0.61083   0.17829   0.00000  Uiso   1.00
H518   H     0.90737   0.88596   0.29603   0.00000  Uiso   1.00
C519   C     0.81991   0.54742   0.20931   0.00000  Uiso   1.00
C520   C     0.87830   0.95071   0.27557   0.00000  Uiso   1.00
H521   H     0.80474   0.53064   0.17671   0.00000  Uiso   1.00
H522   H     0.91231   0.96670   0.29436   0.00000  Uiso   1.00
C523   C     0.83946   0.52376   0.25042   0.00000  Uiso   1.00
C524   C     0.83746   0.97535   0.25039   0.00000  Uiso   1.00
C525   C     0.78995   0.73299   0.04805   0.00000  Uiso   1.00
C526   C     0.83870   0.78878   0.44827   0.00000  Uiso   1.00
H527   H     0.75625   0.71923   0.02649   0.00000  Uiso   1.00
H528   H     0.84368   0.82010   0.46706   0.00000  Uiso   1.00
C529   C     0.79173   0.73276   0.09781   0.00000  Uiso   1.00
C530   C     0.84055   0.78846   0.39900   0.00000  Uiso   1.00
H531   H     0.75952   0.71884   0.11371   0.00000  Uiso   1.00
H532   H     0.84741   0.81925   0.38096   0.00000  Uiso   1.00
N533   N     0.83333   0.74999   0.12624   0.00000  Uiso   1.00
N534   N     0.83333   0.75001   0.37376   0.00000  Uiso   1.00
C535   C     0.87379   0.76822   0.10658   0.00000  Uiso   1.00
C536   C     0.82347   0.71127   0.39621   0.00000  Uiso   1.00
H537   H     0.90583   0.78227   0.12991   0.00000  Uiso   1.00
H538   H     0.81685   0.68130   0.37536   0.00000  Uiso   1.00
C539   C     0.87455   0.76825   0.05676   0.00000  Uiso   1.00
C540   C     0.82214   0.70946   0.44597   0.00000  Uiso   1.00
C541   C     0.83176   0.75024   0.02653   0.00000  Uiso   1.00
C542   C     0.83062   0.74914   0.47303   0.00000  Uiso   1.00
Cl543  Cl    0.98909   0.70462   0.18688   0.00000  Uiso   1.00
Cl544  Cl    0.67754   0.79486   0.31324   0.00000  Uiso   1.00
C545   C     0.89605   0.61481   0.33218   0.00000  Uiso   1.00
C546   C     0.93585   0.64473   0.32414   0.00000  Uiso   1.00
C547   C     0.96649   0.66484   0.36242   0.00000  Uiso   1.00
C548   C     0.95870   0.65442   0.40907   0.00000  Uiso   1.00
C549   C     0.92049   0.62367   0.41748   0.00000  Uiso   1.00
C550   C     0.88893   0.60420   0.37933   0.00000  Uiso   1.00
H551   H     0.94322   0.65240   0.28821   0.00000  Uiso   1.00
H552   H     0.99662   0.68820   0.35591   0.00000  Uiso   1.00
H553   H     0.98262   0.66978   0.43872   0.00000  Uiso   1.00
H554   H     0.91546   0.61478   0.45361   0.00000  Uiso   1.00
H555   H     0.85902   0.58090   0.38658   0.00000  Uiso   1.00
C556   C     0.75189   0.88463   0.19226   0.00000  Uiso   1.00
C557   C     0.76101   0.86946   0.14725   0.00000  Uiso   1.00
C558   C     0.72591   0.84039   0.12184   0.00000  Uiso   1.00
C559   C     0.68095   0.82739   0.14064   0.00000  Uiso   1.00
C560   C     0.67005   0.84453   0.18410   0.00000  Uiso   1.00
C561   C     0.70579   0.87274   0.21028   0.00000  Uiso   1.00
H562   H     0.79674   0.87806   0.13322   0.00000  Uiso   1.00
H563   H     0.73430   0.82700   0.08823   0.00000  Uiso   1.00
H564   H     0.98855   0.80339   0.12185   0.00000  Uiso   1.00
H565   H     0.96822   0.83464   0.19830   0.00000  Uiso   1.00
H566   H     0.69853   0.88393   0.24514   0.00000  Uiso   1.00
C567   C     0.92050   0.78627   0.03709   0.00000  Uiso   1.00
C568   C     0.95207   0.75819   0.01330   0.00000  Uiso   1.00
C569   C     0.99341   0.77583   0.49202   0.00000  Uiso   1.00
C570   C     0.67036   0.82147   0.49456   0.00000  Uiso   1.00
C571   C     0.97254   0.84959   0.01827   0.00000  Uiso   1.00
C572   C     0.93104   0.83211   0.03950   0.00000  Uiso   1.00
H573   H     0.94428   0.72283   0.01070   0.00000  Uiso   1.00
H574   H     0.68389   0.75417   0.47325   0.00000  Uiso   1.00
H575   H     0.70244   0.83505   0.47814   0.00000  Uiso   1.00
H576   H     0.98054   0.88494   0.02020   0.00000  Uiso   1.00
H577   H     0.90682   0.85426   0.05735   0.00000  Uiso   1.00
C578   C     0.81160   0.66591   0.46790   0.00000  Uiso   1.00
C579   C     0.84435   0.64925   0.00760   0.00000  Uiso   1.00
C580   C     0.83360   0.60836   0.02797   0.00000  Uiso   1.00
C581   C     0.79038   0.58357   0.00874   0.00000  Uiso   1.00
C582   C     0.75794   0.59954   0.46899   0.00000  Uiso   1.00
C583   C     0.76854   0.64042   0.44854   0.00000  Uiso   1.00
H584   H     0.87844   0.66762   0.02259   0.00000  Uiso   1.00
H585   H     0.85890   0.59583   0.05859   0.00000  Uiso   1.00
H586   H     0.78212   0.55192   0.02455   0.00000  Uiso   1.00
H587   H     0.72450   0.58030   0.45403   0.00000  Uiso   1.00
H588   H     0.74292   0.65239   0.41785   0.00000  Uiso   1.00
O589   O     0.16667   0.18454   0.78974   0.00000  Uiso   1.00
O590   O     0.16666   0.31547   0.71026   0.00000  Uiso   1.00
O591   O     0.16667   0.18453   0.71026   0.00000  Uiso   1.00
O592   O     0.16666   0.31547   0.78974   0.00000  Uiso   1.00
C593   C     0.16878   0.16394   0.75035   0.00000  Uiso   1.00
C594   C     0.16711   0.33586   0.74995   0.00000  Uiso   1.00
O595   O     0.09058   0.25000   0.78045   0.00000  Uiso   1.00
O596   O     0.24275   0.25000   0.71956   0.00000  Uiso   1.00
O597   O     0.09058   0.25000   0.70097   0.00000  Uiso   1.00
O598   O     0.24275   0.25001   0.79903   0.00000  Uiso   1.00
C599   C     0.06726   0.24942   0.73809   0.00000  Uiso   1.00
C600   C     0.26608   0.25034   0.76194   0.00000  Uiso   1.00
Zn601  Zn    0.16667   0.25001   0.80307   0.00000  Uiso   1.00
Zn602  Zn    0.16667   0.25000   0.69693   0.00000  Uiso   1.00
C603   C     0.01351   0.24184   0.73319   0.00000  Uiso   1.00
C604   C     0.31989   0.25741   0.76708   0.00000  Uiso   1.00
C605   C     0.19484   0.04642   0.79126   0.00000  Uiso   1.00
C606   C     0.12829   0.45354   0.72458   0.00000  Uiso   1.00
H607   H     0.21087   0.02816   0.82286   0.00000  Uiso   1.00
H608   H     0.09610   0.47210   0.70555   0.00000  Uiso   1.00
C609   C     0.19764   0.09266   0.79134   0.00000  Uiso   1.00
C610   C     0.12735   0.40749   0.72281   0.00000  Uiso   1.00
C611   C     0.17347   0.11605   0.75087   0.00000  Uiso   1.00
C612   C     0.16758   0.38343   0.74967   0.00000  Uiso   1.00
C613   C     0.15253   0.09323   0.70990   0.00000  Uiso   1.00
C614   C     0.20929   0.40484   0.77614   0.00000  Uiso   1.00
H615   H     0.13507   0.11083   0.67829   0.00000  Uiso   1.00
H616   H     0.24070   0.38596   0.79603   0.00000  Uiso   1.00
C617   C     0.15324   0.04742   0.70931   0.00000  Uiso   1.00
C618   C     0.21163   0.45071   0.77557   0.00000  Uiso   1.00
H619   H     0.13807   0.03064   0.67671   0.00000  Uiso   1.00
H620   H     0.24565   0.46670   0.79436   0.00000  Uiso   1.00
C621   C     0.17280   0.02376   0.75042   0.00000  Uiso   1.00
C622   C     0.17080   0.47535   0.75039   0.00000  Uiso   1.00
C623   C     0.12329   0.23299   0.54805   0.00000  Uiso   1.00
C624   C     0.17204   0.28878   0.94827   0.00000  Uiso   1.00
H625   H     0.08958   0.21923   0.52649   0.00000  Uiso   1.00
H626   H     0.17701   0.32010   0.96706   0.00000  Uiso   1.00
C627   C     0.12507   0.23276   0.59781   0.00000  Uiso   1.00
C628   C     0.17388   0.28846   0.89900   0.00000  Uiso   1.00
H629   H     0.09285   0.21884   0.61371   0.00000  Uiso   1.00
H630   H     0.18074   0.31925   0.88096   0.00000  Uiso   1.00
N631   N     0.16667   0.24999   0.62624   0.00000  Uiso   1.00
N632   N     0.16667   0.25001   0.87376   0.00000  Uiso   1.00
C633   C     0.20713   0.26822   0.60658   0.00000  Uiso   1.00
C634   C     0.15680   0.21127   0.89621   0.00000  Uiso   1.00
H635   H     0.23916   0.28227   0.62991   0.00000  Uiso   1.00
H636   H     0.15019   0.18130   0.87536   0.00000  Uiso   1.00
C637   C     0.20789   0.26825   0.55676   0.00000  Uiso   1.00
C638   C     0.15547   0.20946   0.94597   0.00000  Uiso   1.00
C639   C     0.16509   0.25024   0.52653   0.00000  Uiso   1.00
C640   C     0.16395   0.24914   0.97303   0.00000  Uiso   1.00
Cl641  Cl    0.32242   0.20462   0.68688   0.00000  Uiso   1.00
Cl642  Cl    0.01088   0.29486   0.81324   0.00000  Uiso   1.00
C643   C     0.22938   0.11481   0.83218   0.00000  Uiso   1.00
C644   C     0.26918   0.14473   0.82414   0.00000  Uiso   1.00
C645   C     0.29983   0.16484   0.86242   0.00000  Uiso   1.00
C646   C     0.29203   0.15442   0.90907   0.00000  Uiso   1.00
C647   C     0.25382   0.12367   0.91748   0.00000  Uiso   1.00
C648   C     0.22227   0.10420   0.87933   0.00000  Uiso   1.00
H649   H     0.27656   0.15240   0.78821   0.00000  Uiso   1.00
H650   H     0.32995   0.18820   0.85591   0.00000  Uiso   1.00
H651   H     0.31595   0.16978   0.93872   0.00000  Uiso   1.00
H652   H     0.24880   0.11478   0.95361   0.00000  Uiso   1.00
H653   H     0.19235   0.08090   0.88658   0.00000  Uiso   1.00
C654   C     0.08522   0.38463   0.69226   0.00000  Uiso   1.00
C655   C     0.09434   0.36946   0.64725   0.00000  Uiso   1.00
C656   C     0.05924   0.34039   0.62184   0.00000  Uiso   1.00
C657   C     0.01429   0.32739   0.64064   0.00000  Uiso   1.00
C658   C     0.00338   0.34453   0.68410   0.00000  Uiso   1.00
C659   C     0.03912   0.37274   0.71028   0.00000  Uiso   1.00
H660   H     0.13008   0.37806   0.63322   0.00000  Uiso   1.00
H661   H     0.06764   0.32700   0.58823   0.00000  Uiso   1.00
H662   H     0.32188   0.30339   0.62185   0.00000  Uiso   1.00
H663   H     0.30155   0.33464   0.69830   0.00000  Uiso   1.00
H664   H     0.03186   0.38393   0.74514   0.00000  Uiso   1.00
C665   C     0.25383   0.28627   0.53709   0.00000  Uiso   1.00
C666   C     0.28540   0.25819   0.51330   0.00000  Uiso   1.00
C667   C     0.32674   0.27583   0.99202   0.00000  Uiso   1.00
C668   C     0.00369   0.32147   0.99456   0.00000  Uiso   1.00
C669   C     0.30587   0.34959   0.51827   0.00000  Uiso   1.00
C670   C     0.26437   0.33211   0.53950   0.00000  Uiso   1.00
H671   H     0.27761   0.22283   0.51070   0.00000  Uiso   1.00
H672   H     0.01723   0.25417   0.97325   0.00000  Uiso   1.00
H673   H     0.03578   0.33505   0.97814   0.00000  Uiso   1.00
H674   H     0.31387   0.38494   0.52020   0.00000  Uiso   1.00
H675   H     0.24016   0.35426   0.55735   0.00000  Uiso   1.00
C676   C     0.14493   0.16591   0.96790   0.00000  Uiso   1.00
C677   C     0.17769   0.14925   0.50760   0.00000  Uiso   1.00
C678   C     0.16693   0.10836   0.52797   0.00000  Uiso   1.00
C679   C     0.12372   0.08357   0.50874   0.00000  Uiso   1.00
C680   C     0.09127   0.09954   0.96899   0.00000  Uiso   1.00
C681   C     0.10187   0.14042   0.94854   0.00000  Uiso   1.00
H682   H     0.21177   0.16762   0.52259   0.00000  Uiso   1.00
H683   H     0.19223   0.09583   0.55859   0.00000  Uiso   1.00
H684   H     0.11546   0.05192   0.52455   0.00000  Uiso   1.00
H685   H     0.05783   0.08030   0.95403   0.00000  Uiso   1.00
H686   H     0.07625   0.15239   0.91785   0.00000  Uiso   1.00
O687   O     0.50000   0.18454   0.78974   0.00000  Uiso   1.00
O688   O     0.50000   0.31547   0.71026   0.00000  Uiso   1.00
O689   O     0.50000   0.18453   0.71026   0.00000  Uiso   1.00
O690   O     0.50000   0.31547   0.78974   0.00000  Uiso   1.00
C691   C     0.50212   0.16394   0.75035   0.00000  Uiso   1.00
C692   C     0.50045   0.33586   0.74995   0.00000  Uiso   1.00
O693   O     0.42392   0.25000   0.78045   0.00000  Uiso   1.00
O694   O     0.57608   0.25000   0.71956   0.00000  Uiso   1.00
O695   O     0.42392   0.25000   0.70097   0.00000  Uiso   1.00
O696   O     0.57608   0.25001   0.79903   0.00000  Uiso   1.00
C697   C     0.40059   0.24942   0.73809   0.00000  Uiso   1.00
C698   C     0.59941   0.25034   0.76194   0.00000  Uiso   1.00
Zn699  Zn    0.50000   0.25001   0.80307   0.00000  Uiso   1.00
Zn700  Zn    0.50000   0.25000   0.69693   0.00000  Uiso   1.00
C701   C     0.34685   0.24184   0.73319   0.00000  Uiso   1.00
C702   C     0.65322   0.25741   0.76708   0.00000  Uiso   1.00
C703   C     0.52817   0.04642   0.79126   0.00000  Uiso   1.00
C704   C     0.46162   0.45354   0.72458   0.00000  Uiso   1.00
H705   H     0.54420   0.02816   0.82286   0.00000  Uiso   1.00
H706   H     0.42943   0.47210   0.70555   0.00000  Uiso   1.00
C707   C     0.53097   0.09266   0.79134   0.00000  Uiso   1.00
C708   C     0.46068   0.40749   0.72281   0.00000  Uiso   1.00
C709   C     0.50681   0.11605   0.75087   0.00000  Uiso   1.00
C710   C     0.50091   0.38343   0.74967   0.00000  Uiso   1.00
C711   C     0.48586   0.09323   0.70990   0.00000  Uiso   1.00
C712   C     0.54262   0.40484   0.77614   0.00000  Uiso   1.00
H713   H     0.46841   0.11083   0.67829   0.00000  Uiso   1.00
H714   H     0.57404   0.38596   0.79603   0.00000  Uiso   1.00
C715   C     0.48658   0.04742   0.70931   0.00000  Uiso   1.00
C716   C     0.54496   0.45071   0.77557   0.00000  Uiso   1.00
H717   H     0.47141   0.03064   0.67671   0.00000  Uiso   1.00
H718   H     0.57898   0.46670   0.79436   0.00000  Uiso   1.00
C719   C     0.50613   0.02376   0.75042   0.00000  Uiso   1.00
C720   C     0.50413   0.47535   0.75039   0.00000  Uiso   1.00
C721   C     0.45662   0.23299   0.54805   0.00000  Uiso   1.00
C722   C     0.50537   0.28878   0.94827   0.00000  Uiso   1.00
H723   H     0.42291   0.21923   0.52649   0.00000  Uiso   1.00
H724   H     0.51035   0.32010   0.96706   0.00000  Uiso   1.00
C725   C     0.45840   0.23276   0.59781   0.00000  Uiso   1.00
C726   C     0.50721   0.28846   0.89900   0.00000  Uiso   1.00
H727   H     0.42618   0.21884   0.61371   0.00000  Uiso   1.00
H728   H     0.51408   0.31925   0.88096   0.00000  Uiso   1.00
N729   N     0.50000   0.24999   0.62624   0.00000  Uiso   1.00
N730   N     0.50000   0.25001   0.87376   0.00000  Uiso   1.00
C731   C     0.54046   0.26822   0.60658   0.00000  Uiso   1.00
C732   C     0.49013   0.21127   0.89621   0.00000  Uiso   1.00
H733   H     0.57250   0.28227   0.62991   0.00000  Uiso   1.00
H734   H     0.48352   0.18130   0.87536   0.00000  Uiso   1.00
C735   C     0.54122   0.26825   0.55676   0.00000  Uiso   1.00
C736   C     0.48881   0.20946   0.94597   0.00000  Uiso   1.00
C737   C     0.49842   0.25024   0.52653   0.00000  Uiso   1.00
C738   C     0.49728   0.24914   0.97303   0.00000  Uiso   1.00
Cl739  Cl    0.65575   0.20462   0.68688   0.00000  Uiso   1.00
Cl740  Cl    0.34421   0.29486   0.81324   0.00000  Uiso   1.00
C741   C     0.56271   0.11481   0.83218   0.00000  Uiso   1.00
C742   C     0.60251   0.14473   0.82414   0.00000  Uiso   1.00
C743   C     0.63316   0.16484   0.86242   0.00000  Uiso   1.00
C744   C     0.62536   0.15442   0.90907   0.00000  Uiso   1.00
C745   C     0.58716   0.12367   0.91748   0.00000  Uiso   1.00
C746   C     0.55560   0.10420   0.87933   0.00000  Uiso   1.00
H747   H     0.60989   0.15240   0.78821   0.00000  Uiso   1.00
H748   H     0.66328   0.18820   0.85591   0.00000  Uiso   1.00
H749   H     0.64929   0.16978   0.93872   0.00000  Uiso   1.00
H750   H     0.58213   0.11478   0.95361   0.00000  Uiso   1.00
H751   H     0.52568   0.08090   0.88658   0.00000  Uiso   1.00
C752   C     0.41856   0.38463   0.69226   0.00000  Uiso   1.00
C753   C     0.42767   0.36946   0.64725   0.00000  Uiso   1.00
C754   C     0.39257   0.34039   0.62184   0.00000  Uiso   1.00
C755   C     0.34762   0.32739   0.64064   0.00000  Uiso   1.00
C756   C     0.33671   0.34453   0.68410   0.00000  Uiso   1.00
C757   C     0.37245   0.37274   0.71028   0.00000  Uiso   1.00
H758   H     0.46341   0.37806   0.63322   0.00000  Uiso   1.00
H759   H     0.40097   0.32700   0.58823   0.00000  Uiso   1.00
H760   H     0.65521   0.30339   0.62185   0.00000  Uiso   1.00
H761   H     0.63489   0.33464   0.69830   0.00000  Uiso   1.00
H762   H     0.36519   0.38393   0.74514   0.00000  Uiso   1.00
C763   C     0.58716   0.28627   0.53709   0.00000  Uiso   1.00
C764   C     0.61874   0.25819   0.51330   0.00000  Uiso   1.00
C765   C     0.66007   0.27583   0.99202   0.00000  Uiso   1.00
C766   C     0.33702   0.32147   0.99456   0.00000  Uiso   1.00
C767   C     0.63920   0.34959   0.51827   0.00000  Uiso   1.00
C768   C     0.59771   0.33211   0.53950   0.00000  Uiso   1.00
H769   H     0.61095   0.22283   0.51070   0.00000  Uiso   1.00
H770   H     0.35056   0.25417   0.97325   0.00000  Uiso   1.00
H771   H     0.36911   0.33505   0.97814   0.00000  Uiso   1.00
H772   H     0.64721   0.38494   0.52020   0.00000  Uiso   1.00
H773   H     0.57349   0.35426   0.55735   0.00000  Uiso   1.00
C774   C     0.47827   0.16591   0.96790   0.00000  Uiso   1.00
C775   C     0.51102   0.14925   0.50760   0.00000  Uiso   1.00
C776   C     0.50027   0.10836   0.52797   0.00000  Uiso   1.00
C777   C     0.45705   0.08357   0.50874   0.00000  Uiso   1.00
C778   C     0.42460   0.09954   0.96899   0.00000  Uiso   1.00
C779   C     0.43521   0.14042   0.94854   0.00000  Uiso   1.00
H780   H     0.54510   0.16762   0.52259   0.00000  Uiso   1.00
H781   H     0.52557   0.09583   0.55859   0.00000  Uiso   1.00
H782   H     0.44879   0.05192   0.52455   0.00000  Uiso   1.00
H783   H     0.39116   0.08030   0.95403   0.00000  Uiso   1.00
H784   H     0.40958   0.15239   0.91785   0.00000  Uiso   1.00
O785   O     0.83334   0.18454   0.78974   0.00000  Uiso   1.00
O786   O     0.83333   0.31547   0.71026   0.00000  Uiso   1.00
O787   O     0.83334   0.18453   0.71026   0.00000  Uiso   1.00
O788   O     0.83333   0.31547   0.78974   0.00000  Uiso   1.00
C789   C     0.83545   0.16394   0.75035   0.00000  Uiso   1.00
C790   C     0.83378   0.33586   0.74995   0.00000  Uiso   1.00
O791   O     0.75725   0.25000   0.78045   0.00000  Uiso   1.00
O792   O     0.90942   0.25000   0.71956   0.00000  Uiso   1.00
O793   O     0.75725   0.25000   0.70097   0.00000  Uiso   1.00
O794   O     0.90942   0.25001   0.79903   0.00000  Uiso   1.00
C795   C     0.73393   0.24942   0.73809   0.00000  Uiso   1.00
C796   C     0.93275   0.25034   0.76194   0.00000  Uiso   1.00
Zn797  Zn    0.83333   0.25001   0.80307   0.00000  Uiso   1.00
Zn798  Zn    0.83333   0.25000   0.69693   0.00000  Uiso   1.00
C799   C     0.68018   0.24184   0.73319   0.00000  Uiso   1.00
C800   C     0.98656   0.25741   0.76708   0.00000  Uiso   1.00
C801   C     0.86151   0.04642   0.79126   0.00000  Uiso   1.00
C802   C     0.79495   0.45354   0.72458   0.00000  Uiso   1.00
H803   H     0.87754   0.02816   0.82286   0.00000  Uiso   1.00
H804   H     0.76276   0.47210   0.70555   0.00000  Uiso   1.00
C805   C     0.86430   0.09266   0.79134   0.00000  Uiso   1.00
C806   C     0.79401   0.40749   0.72281   0.00000  Uiso   1.00
C807   C     0.84014   0.11605   0.75087   0.00000  Uiso   1.00
C808   C     0.83425   0.38343   0.74967   0.00000  Uiso   1.00
C809   C     0.81920   0.09323   0.70990   0.00000  Uiso   1.00
C810   C     0.87595   0.40484   0.77614   0.00000  Uiso   1.00
H811   H     0.80174   0.11083   0.67829   0.00000  Uiso   1.00
H812   H     0.90737   0.38596   0.79603   0.00000  Uiso   1.00
C813   C     0.81991   0.04742   0.70931   0.00000  Uiso   1.00
C814   C     0.87830   0.45071   0.77557   0.00000  Uiso   1.00
H815   H     0.80474   0.03064   0.67671   0.00000  Uiso   1.00
H816   H     0.91231   0.46670   0.79436   0.00000  Uiso   1.00
C817   C     0.83946   0.02376   0.75042   0.00000  Uiso   1.00
C818   C     0.83746   0.47535   0.75039   0.00000  Uiso   1.00
C819   C     0.78995   0.23299   0.54805   0.00000  Uiso   1.00
C820   C     0.83870   0.28878   0.94827   0.00000  Uiso   1.00
H821   H     0.75625   0.21923   0.52649   0.00000  Uiso   1.00
H822   H     0.84368   0.32010   0.96706   0.00000  Uiso   1.00
C823   C     0.79173   0.23276   0.59781   0.00000  Uiso   1.00
C824   C     0.84055   0.28846   0.89900   0.00000  Uiso   1.00
H825   H     0.75952   0.21884   0.61371   0.00000  Uiso   1.00
H826   H     0.84741   0.31925   0.88096   0.00000  Uiso   1.00
N827   N     0.83333   0.24999   0.62624   0.00000  Uiso   1.00
N828   N     0.83333   0.25001   0.87376   0.00000  Uiso   1.00
C829   C     0.87379   0.26822   0.60658   0.00000  Uiso   1.00
C830   C     0.82347   0.21127   0.89621   0.00000  Uiso   1.00
H831   H     0.90583   0.28227   0.62991   0.00000  Uiso   1.00
H832   H     0.81685   0.18130   0.87536   0.00000  Uiso   1.00
C833   C     0.87455   0.26825   0.55676   0.00000  Uiso   1.00
C834   C     0.82214   0.20946   0.94597   0.00000  Uiso   1.00
C835   C     0.83176   0.25024   0.52653   0.00000  Uiso   1.00
C836   C     0.83062   0.24914   0.97303   0.00000  Uiso   1.00
Cl837  Cl    0.98909   0.20462   0.68688   0.00000  Uiso   1.00
Cl838  Cl    0.67754   0.29486   0.81324   0.00000  Uiso   1.00
C839   C     0.89605   0.11481   0.83218   0.00000  Uiso   1.00
C840   C     0.93585   0.14473   0.82414   0.00000  Uiso   1.00
C841   C     0.96649   0.16484   0.86242   0.00000  Uiso   1.00
C842   C     0.95870   0.15442   0.90907   0.00000  Uiso   1.00
C843   C     0.92049   0.12367   0.91748   0.00000  Uiso   1.00
C844   C     0.88893   0.10420   0.87933   0.00000  Uiso   1.00
H845   H     0.94322   0.15240   0.78821   0.00000  Uiso   1.00
H846   H     0.99662   0.18820   0.85591   0.00000  Uiso   1.00
H847   H     0.98262   0.16978   0.93872   0.00000  Uiso   1.00
H848   H     0.91546   0.11478   0.95361   0.00000  Uiso   1.00
H849   H     0.85902   0.08090   0.88658   0.00000  Uiso   1.00
C850   C     0.75189   0.38463   0.69226   0.00000  Uiso   1.00
C851   C     0.76101   0.36946   0.64725   0.00000  Uiso   1.00
C852   C     0.72591   0.34039   0.62184   0.00000  Uiso   1.00
C853   C     0.68095   0.32739   0.64064   0.00000  Uiso   1.00
C854   C     0.67005   0.34453   0.68410   0.00000  Uiso   1.00
C855   C     0.70579   0.37274   0.71028   0.00000  Uiso   1.00
H856   H     0.79674   0.37806   0.63322   0.00000  Uiso   1.00
H857   H     0.73430   0.32700   0.58823   0.00000  Uiso   1.00
H858   H     0.98855   0.30339   0.62185   0.00000  Uiso   1.00
H859   H     0.96822   0.33464   0.69830   0.00000  Uiso   1.00
H860   H     0.69853   0.38393   0.74514   0.00000  Uiso   1.00
C861   C     0.92050   0.28627   0.53709   0.00000  Uiso   1.00
C862   C     0.95207   0.25819   0.51330   0.00000  Uiso   1.00
C863   C     0.99341   0.27583   0.99202   0.00000  Uiso   1.00
C864   C     0.67036   0.32147   0.99456   0.00000  Uiso   1.00
C865   C     0.97254   0.34959   0.51827   0.00000  Uiso   1.00
C866   C     0.93104   0.33211   0.53950   0.00000  Uiso   1.00
H867   H     0.94428   0.22283   0.51070   0.00000  Uiso   1.00
H868   H     0.68389   0.25417   0.97325   0.00000  Uiso   1.00
H869   H     0.70244   0.33505   0.97814   0.00000  Uiso   1.00
H870   H     0.98054   0.38494   0.52020   0.00000  Uiso   1.00
H871   H     0.90682   0.35426   0.55735   0.00000  Uiso   1.00
C872   C     0.81160   0.16591   0.96790   0.00000  Uiso   1.00
C873   C     0.84435   0.14925   0.50760   0.00000  Uiso   1.00
C874   C     0.83360   0.10836   0.52797   0.00000  Uiso   1.00
C875   C     0.79038   0.08357   0.50874   0.00000  Uiso   1.00
C876   C     0.75794   0.09954   0.96899   0.00000  Uiso   1.00
C877   C     0.76854   0.14042   0.94854   0.00000  Uiso   1.00
H878   H     0.87844   0.16762   0.52259   0.00000  Uiso   1.00
H879   H     0.85890   0.09583   0.55859   0.00000  Uiso   1.00
H880   H     0.78212   0.05192   0.52455   0.00000  Uiso   1.00
H881   H     0.72450   0.08030   0.95403   0.00000  Uiso   1.00
H882   H     0.74292   0.15239   0.91785   0.00000  Uiso   1.00
O883   O     0.16667   0.68454   0.78974   0.00000  Uiso   1.00
O884   O     0.16666   0.81547   0.71026   0.00000  Uiso   1.00
O885   O     0.16667   0.68453   0.71026   0.00000  Uiso   1.00
O886   O     0.16666   0.81547   0.78974   0.00000  Uiso   1.00
C887   C     0.16878   0.66394   0.75035   0.00000  Uiso   1.00
C888   C     0.16711   0.83586   0.74995   0.00000  Uiso   1.00
O889   O     0.09058   0.75000   0.78045   0.00000  Uiso   1.00
O890   O     0.24275   0.75000   0.71956   0.00000  Uiso   1.00
O891   O     0.09058   0.75000   0.70097   0.00000  Uiso   1.00
O892   O     0.24275   0.75001   0.79903   0.00000  Uiso   1.00
C893   C     0.06726   0.74942   0.73809   0.00000  Uiso   1.00
C894   C     0.26608   0.75034   0.76194   0.00000  Uiso   1.00
Zn895  Zn    0.16667   0.75001   0.80307   0.00000  Uiso   1.00
Zn896  Zn    0.16667   0.75000   0.69693   0.00000  Uiso   1.00
C897   C     0.01351   0.74184   0.73319   0.00000  Uiso   1.00
C898   C     0.31989   0.75741   0.76708   0.00000  Uiso   1.00
C899   C     0.19484   0.54642   0.79126   0.00000  Uiso   1.00
C900   C     0.12829   0.95354   0.72458   0.00000  Uiso   1.00
H901   H     0.21087   0.52816   0.82286   0.00000  Uiso   1.00
H902   H     0.09610   0.97210   0.70555   0.00000  Uiso   1.00
C903   C     0.19764   0.59266   0.79134   0.00000  Uiso   1.00
C904   C     0.12735   0.90749   0.72281   0.00000  Uiso   1.00
C905   C     0.17347   0.61605   0.75087   0.00000  Uiso   1.00
C906   C     0.16758   0.88343   0.74967   0.00000  Uiso   1.00
C907   C     0.15253   0.59323   0.70990   0.00000  Uiso   1.00
C908   C     0.20929   0.90484   0.77614   0.00000  Uiso   1.00
H909   H     0.13507   0.61083   0.67829   0.00000  Uiso   1.00
H910   H     0.24070   0.88596   0.79603   0.00000  Uiso   1.00
C911   C     0.15324   0.54742   0.70931   0.00000  Uiso   1.00
C912   C     0.21163   0.95071   0.77557   0.00000  Uiso   1.00
H913   H     0.13807   0.53064   0.67671   0.00000  Uiso   1.00
H914   H     0.24565   0.96670   0.79436   0.00000  Uiso   1.00
C915   C     0.17280   0.52376   0.75042   0.00000  Uiso   1.00
C916   C     0.17080   0.97535   0.75039   0.00000  Uiso   1.00
C917   C     0.12329   0.73299   0.54805   0.00000  Uiso   1.00
C918   C     0.17204   0.78878   0.94827   0.00000  Uiso   1.00
H919   H     0.08958   0.71923   0.52649   0.00000  Uiso   1.00
H920   H     0.17701   0.82010   0.96706   0.00000  Uiso   1.00
C921   C     0.12507   0.73276   0.59781   0.00000  Uiso   1.00
C922   C     0.17388   0.78846   0.89900   0.00000  Uiso   1.00
H923   H     0.09285   0.71884   0.61371   0.00000  Uiso   1.00
H924   H     0.18074   0.81925   0.88096   0.00000  Uiso   1.00
N925   N     0.16667   0.74999   0.62624   0.00000  Uiso   1.00
N926   N     0.16667   0.75001   0.87376   0.00000  Uiso   1.00
C927   C     0.20713   0.76822   0.60658   0.00000  Uiso   1.00
C928   C     0.15680   0.71127   0.89621   0.00000  Uiso   1.00
H929   H     0.23916   0.78227   0.62991   0.00000  Uiso   1.00
H930   H     0.15019   0.68130   0.87536   0.00000  Uiso   1.00
C931   C     0.20789   0.76825   0.55676   0.00000  Uiso   1.00
C932   C     0.15547   0.70946   0.94597   0.00000  Uiso   1.00
C933   C     0.16509   0.75024   0.52653   0.00000  Uiso   1.00
C934   C     0.16395   0.74914   0.97303   0.00000  Uiso   1.00
Cl935  Cl    0.32242   0.70462   0.68688   0.00000  Uiso   1.00
Cl936  Cl    0.01088   0.79486   0.81324   0.00000  Uiso   1.00
C937   C     0.22938   0.61481   0.83218   0.00000  Uiso   1.00
C938   C     0.26918   0.64473   0.82414   0.00000  Uiso   1.00
C939   C     0.29983   0.66484   0.86242   0.00000  Uiso   1.00
C940   C     0.29203   0.65442   0.90907   0.00000  Uiso   1.00
C941   C     0.25382   0.62367   0.91748   0.00000  Uiso   1.00
C942   C     0.22227   0.60420   0.87933   0.00000  Uiso   1.00
H943   H     0.27656   0.65240   0.78821   0.00000  Uiso   1.00
H944   H     0.32995   0.68820   0.85591   0.00000  Uiso   1.00
H945   H     0.31595   0.66978   0.93872   0.00000  Uiso   1.00
H946   H     0.24880   0.61478   0.95361   0.00000  Uiso   1.00
H947   H     0.19235   0.58090   0.88658   0.00000  Uiso   1.00
C948   C     0.08522   0.88463   0.69226   0.00000  Uiso   1.00
C949   C     0.09434   0.86946   0.64725   0.00000  Uiso   1.00
C950   C     0.05924   0.84039   0.62184   0.00000  Uiso   1.00
C951   C     0.01429   0.82739   0.64064   0.00000  Uiso   1.00
C952   C     0.00338   0.84453   0.68410   0.00000  Uiso   1.00
C953   C     0.03912   0.87274   0.71028   0.00000  Uiso   1.00
H954   H     0.13008   0.87806   0.63322   0.00000  Uiso   1.00
H955   H     0.06764   0.82700   0.58823   0.00000  Uiso   1.00
H956   H     0.32188   0.80339   0.62185   0.00000  Uiso   1.00
H957   H     0.30155   0.83464   0.69830   0.00000  Uiso   1.00
H958   H     0.03186   0.88393   0.74514   0.00000  Uiso   1.00
C959   C     0.25383   0.78627   0.53709   0.00000  Uiso   1.00
C960   C     0.28540   0.75819   0.51330   0.00000  Uiso   1.00
C961   C     0.32674   0.77583   0.99202   0.00000  Uiso   1.00
C962   C     0.00369   0.82147   0.99456   0.00000  Uiso   1.00
C963   C     0.30587   0.84959   0.51827   0.00000  Uiso   1.00
C964   C     0.26437   0.83211   0.53950   0.00000  Uiso   1.00
H965   H     0.27761   0.72283   0.51070   0.00000  Uiso   1.00
H966   H     0.01723   0.75417   0.97325   0.00000  Uiso   1.00
H967   H     0.03578   0.83505   0.97814   0.00000  Uiso   1.00
H968   H     0.31387   0.88494   0.52020   0.00000  Uiso   1.00
H969   H     0.24016   0.85426   0.55735   0.00000  Uiso   1.00
C970   C     0.14493   0.66591   0.96790   0.00000  Uiso   1.00
C971   C     0.17769   0.64925   0.50760   0.00000  Uiso   1.00
C972   C     0.16693   0.60836   0.52797   0.00000  Uiso   1.00
C973   C     0.12372   0.58357   0.50874   0.00000  Uiso   1.00
C974   C     0.09127   0.59954   0.96899   0.00000  Uiso   1.00
C975   C     0.10187   0.64042   0.94854   0.00000  Uiso   1.00
H976   H     0.21177   0.66762   0.52259   0.00000  Uiso   1.00
H977   H     0.19223   0.59583   0.55859   0.00000  Uiso   1.00
H978   H     0.11546   0.55192   0.52455   0.00000  Uiso   1.00
H979   H     0.05783   0.58030   0.95403   0.00000  Uiso   1.00
H980   H     0.07625   0.65239   0.91785   0.00000  Uiso   1.00
O981   O     0.50000   0.68454   0.78974   0.00000  Uiso   1.00
O982   O     0.50000   0.81547   0.71026   0.00000  Uiso   1.00
O983   O     0.50000   0.68453   0.71026   0.00000  Uiso   1.00
O984   O     0.50000   0.81547   0.78974   0.00000  Uiso   1.00
C985   C     0.50212   0.66394   0.75035   0.00000  Uiso   1.00
C986   C     0.50045   0.83586   0.74995   0.00000  Uiso   1.00
O987   O     0.42392   0.75000   0.78045   0.00000  Uiso   1.00
O988   O     0.57608   0.75000   0.71956   0.00000  Uiso   1.00
O989   O     0.42392   0.75000   0.70097   0.00000  Uiso   1.00
O990   O     0.57608   0.75001   0.79903   0.00000  Uiso   1.00
C991   C     0.40059   0.74942   0.73809   0.00000  Uiso   1.00
C992   C     0.59941   0.75034   0.76194   0.00000  Uiso   1.00
Zn993  Zn    0.50000   0.75001   0.80307   0.00000  Uiso   1.00
Zn994  Zn    0.50000   0.75000   0.69693   0.00000  Uiso   1.00
C995   C     0.34685   0.74184   0.73319   0.00000  Uiso   1.00
C996   C     0.65322   0.75741   0.76708   0.00000  Uiso   1.00
C997   C     0.52817   0.54642   0.79126   0.00000  Uiso   1.00
C998   C     0.46162   0.95354   0.72458   0.00000  Uiso   1.00
H999   H     0.54420   0.52816   0.82286   0.00000  Uiso   1.00
H1000  H     0.42943   0.97210   0.70555   0.00000  Uiso   1.00
C1001  C     0.53097   0.59266   0.79134   0.00000  Uiso   1.00
C1002  C     0.46068   0.90749   0.72281   0.00000  Uiso   1.00
C1003  C     0.50681   0.61605   0.75087   0.00000  Uiso   1.00
C1004  C     0.50091   0.88343   0.74967   0.00000  Uiso   1.00
C1005  C     0.48586   0.59323   0.70990   0.00000  Uiso   1.00
C1006  C     0.54262   0.90484   0.77614   0.00000  Uiso   1.00
H1007  H     0.46841   0.61083   0.67829   0.00000  Uiso   1.00
H1008  H     0.57404   0.88596   0.79603   0.00000  Uiso   1.00
C1009  C     0.48658   0.54742   0.70931   0.00000  Uiso   1.00
C1010  C     0.54496   0.95071   0.77557   0.00000  Uiso   1.00
H1011  H     0.47141   0.53064   0.67671   0.00000  Uiso   1.00
H1012  H     0.57898   0.96670   0.79436   0.00000  Uiso   1.00
C1013  C     0.50613   0.52376   0.75042   0.00000  Uiso   1.00
C1014  C     0.50413   0.97535   0.75039   0.00000  Uiso   1.00
C1015  C     0.45662   0.73299   0.54805   0.00000  Uiso   1.00
C1016  C     0.50537   0.78878   0.94827   0.00000  Uiso   1.00
H1017  H     0.42291   0.71923   0.52649   0.00000  Uiso   1.00
H1018  H     0.51035   0.82010   0.96706   0.00000  Uiso   1.00
C1019  C     0.45840   0.73276   0.59781   0.00000  Uiso   1.00
C1020  C     0.50721   0.78846   0.89900   0.00000  Uiso   1.00
H1021  H     0.42618   0.71884   0.61371   0.00000  Uiso   1.00
H1022  H     0.51408   0.81925   0.88096   0.00000  Uiso   1.00
N1023  N     0.50000   0.74999   0.62624   0.00000  Uiso   1.00
N1024  N     0.50000   0.75001   0.87376   0.00000  Uiso   1.00
C1025  C     0.54046   0.76822   0.60658   0.00000  Uiso   1.00
C1026  C     0.49013   0.71127   0.89621   0.00000  Uiso   1.00
H1027  H     0.57250   0.78227   0.62991   0.00000  Uiso   1.00
H1028  H     0.48352   0.68130   0.87536   0.00000  Uiso   1.00
C1029  C     0.54122   0.76825   0.55676   0.00000  Uiso   1.00
C1030  C     0.48881   0.70946   0.94597   0.00000  Uiso   1.00
C1031  C     0.49842   0.75024   0.52653   0.00000  Uiso   1.00
C1032  C     0.49728   0.74914   0.97303   0.00000  Uiso   1.00
Cl1033 Cl    0.65575   0.70462   0.68688   0.00000  Uiso   1.00
Cl1034 Cl    0.34421   0.79486   0.81324   0.00000  Uiso   1.00
C1035  C     0.56271   0.61481   0.83218   0.00000  Uiso   1.00
C1036  C     0.60251   0.64473   0.82414   0.00000  Uiso   1.00
C1037  C     0.63316   0.66484   0.86242   0.00000  Uiso   1.00
C1038  C     0.62536   0.65442   0.90907   0.00000  Uiso   1.00
C1039  C     0.58716   0.62367   0.91748   0.00000  Uiso   1.00
C1040  C     0.55560   0.60420   0.87933   0.00000  Uiso   1.00
H1041  H     0.60989   0.65240   0.78821   0.00000  Uiso   1.00
H1042  H     0.66328   0.68820   0.85591   0.00000  Uiso   1.00
H1043  H     0.64929   0.66978   0.93872   0.00000  Uiso   1.00
H1044  H     0.58213   0.61478   0.95361   0.00000  Uiso   1.00
H1045  H     0.52568   0.58090   0.88658   0.00000  Uiso   1.00
C1046  C     0.41856   0.88463   0.69226   0.00000  Uiso   1.00
C1047  C     0.42767   0.86946   0.64725   0.00000  Uiso   1.00
C1048  C     0.39257   0.84039   0.62184   0.00000  Uiso   1.00
C1049  C     0.34762   0.82739   0.64064   0.00000  Uiso   1.00
C1050  C     0.33671   0.84453   0.68410   0.00000  Uiso   1.00
C1051  C     0.37245   0.87274   0.71028   0.00000  Uiso   1.00
H1052  H     0.46341   0.87806   0.63322   0.00000  Uiso   1.00
H1053  H     0.40097   0.82700   0.58823   0.00000  Uiso   1.00
H1054  H     0.65521   0.80339   0.62185   0.00000  Uiso   1.00
H1055  H     0.63489   0.83464   0.69830   0.00000  Uiso   1.00
H1056  H     0.36519   0.88393   0.74514   0.00000  Uiso   1.00
C1057  C     0.58716   0.78627   0.53709   0.00000  Uiso   1.00
C1058  C     0.61874   0.75819   0.51330   0.00000  Uiso   1.00
C1059  C     0.66007   0.77583   0.99202   0.00000  Uiso   1.00
C1060  C     0.33702   0.82147   0.99456   0.00000  Uiso   1.00
C1061  C     0.63920   0.84959   0.51827   0.00000  Uiso   1.00
C1062  C     0.59771   0.83211   0.53950   0.00000  Uiso   1.00
H1063  H     0.61095   0.72283   0.51070   0.00000  Uiso   1.00
H1064  H     0.35056   0.75417   0.97325   0.00000  Uiso   1.00
H1065  H     0.36911   0.83505   0.97814   0.00000  Uiso   1.00
H1066  H     0.64721   0.88494   0.52020   0.00000  Uiso   1.00
H1067  H     0.57349   0.85426   0.55735   0.00000  Uiso   1.00
C1068  C     0.47827   0.66591   0.96790   0.00000  Uiso   1.00
C1069  C     0.51102   0.64925   0.50760   0.00000  Uiso   1.00
C1070  C     0.50027   0.60836   0.52797   0.00000  Uiso   1.00
C1071  C     0.45705   0.58357   0.50874   0.00000  Uiso   1.00
C1072  C     0.42460   0.59954   0.96899   0.00000  Uiso   1.00
C1073  C     0.43521   0.64042   0.94854   0.00000  Uiso   1.00
H1074  H     0.54510   0.66762   0.52259   0.00000  Uiso   1.00
H1075  H     0.52557   0.59583   0.55859   0.00000  Uiso   1.00
H1076  H     0.44879   0.55192   0.52455   0.00000  Uiso   1.00
H1077  H     0.39116   0.58030   0.95403   0.00000  Uiso   1.00
H1078  H     0.40958   0.65239   0.91785   0.00000  Uiso   1.00
O1079  O     0.83334   0.68454   0.78974   0.00000  Uiso   1.00
O1080  O     0.83333   0.81547   0.71026   0.00000  Uiso   1.00
O1081  O     0.83334   0.68453   0.71026   0.00000  Uiso   1.00
O1082  O     0.83333   0.81547   0.78974   0.00000  Uiso   1.00
C1083  C     0.83545   0.66394   0.75035   0.00000  Uiso   1.00
C1084  C     0.83378   0.83586   0.74995   0.00000  Uiso   1.00
O1085  O     0.75725   0.75000   0.78045   0.00000  Uiso   1.00
O1086  O     0.90942   0.75000   0.71956   0.00000  Uiso   1.00
O1087  O     0.75725   0.75000   0.70097   0.00000  Uiso   1.00
O1088  O     0.90942   0.75001   0.79903   0.00000  Uiso   1.00
C1089  C     0.73393   0.74942   0.73809   0.00000  Uiso   1.00
C1090  C     0.93275   0.75034   0.76194   0.00000  Uiso   1.00
Zn1091 Zn    0.83333   0.75001   0.80307   0.00000  Uiso   1.00
Zn1092 Zn    0.83333   0.75000   0.69693   0.00000  Uiso   1.00
C1093  C     0.68018   0.74184   0.73319   0.00000  Uiso   1.00
C1094  C     0.98656   0.75741   0.76708   0.00000  Uiso   1.00
C1095  C     0.86151   0.54642   0.79126   0.00000  Uiso   1.00
C1096  C     0.79495   0.95354   0.72458   0.00000  Uiso   1.00
H1097  H     0.87754   0.52816   0.82286   0.00000  Uiso   1.00
H1098  H     0.76276   0.97210   0.70555   0.00000  Uiso   1.00
C1099  C     0.86430   0.59266   0.79134   0.00000  Uiso   1.00
C1100  C     0.79401   0.90749   0.72281   0.00000  Uiso   1.00
C1101  C     0.84014   0.61605   0.75087   0.00000  Uiso   1.00
C1102  C     0.83425   0.88343   0.74967   0.00000  Uiso   1.00
C1103  C     0.81920   0.59323   0.70990   0.00000  Uiso   1.00
C1104  C     0.87595   0.90484   0.77614   0.00000  Uiso   1.00
H1105  H     0.80174   0.61083   0.67829   0.00000  Uiso   1.00
H1106  H     0.90737   0.88596   0.79603   0.00000  Uiso   1.00
C1107  C     0.81991   0.54742   0.70931   0.00000  Uiso   1.00
C1108  C     0.87830   0.95071   0.77557   0.00000  Uiso   1.00
H1109  H     0.80474   0.53064   0.67671   0.00000  Uiso   1.00
H1110  H     0.91231   0.96670   0.79436   0.00000  Uiso   1.00
C1111  C     0.83946   0.52376   0.75042   0.00000  Uiso   1.00
C1112  C     0.83746   0.97535   0.75039   0.00000  Uiso   1.00
C1113  C     0.78995   0.73299   0.54805   0.00000  Uiso   1.00
C1114  C     0.83870   0.78878   0.94827   0.00000  Uiso   1.00
H1115  H     0.75625   0.71923   0.52649   0.00000  Uiso   1.00
H1116  H     0.84368   0.82010   0.96706   0.00000  Uiso   1.00
C1117  C     0.79173   0.73276   0.59781   0.00000  Uiso   1.00
C1118  C     0.84055   0.78846   0.89900   0.00000  Uiso   1.00
H1119  H     0.75952   0.71884   0.61371   0.00000  Uiso   1.00
H1120  H     0.84741   0.81925   0.88096   0.00000  Uiso   1.00
N1121  N     0.83333   0.74999   0.62624   0.00000  Uiso   1.00
N1122  N     0.83333   0.75001   0.87376   0.00000  Uiso   1.00
C1123  C     0.87379   0.76822   0.60658   0.00000  Uiso   1.00
C1124  C     0.82347   0.71127   0.89621   0.00000  Uiso   1.00
H1125  H     0.90583   0.78227   0.62991   0.00000  Uiso   1.00
H1126  H     0.81685   0.68130   0.87536   0.00000  Uiso   1.00
C1127  C     0.87455   0.76825   0.55676   0.00000  Uiso   1.00
C1128  C     0.82214   0.70946   0.94597   0.00000  Uiso   1.00
C1129  C     0.83176   0.75024   0.52653   0.00000  Uiso   1.00
C1130  C     0.83062   0.74914   0.97303   0.00000  Uiso   1.00
Cl1131 Cl    0.98909   0.70462   0.68688   0.00000  Uiso   1.00
Cl1132 Cl    0.67754   0.79486   0.81324   0.00000  Uiso   1.00
C1133  C     0.89605   0.61481   0.83218   0.00000  Uiso   1.00
C1134  C     0.93585   0.64473   0.82414   0.00000  Uiso   1.00
C1135  C     0.96649   0.66484   0.86242   0.00000  Uiso   1.00
C1136  C     0.95870   0.65442   0.90907   0.00000  Uiso   1.00
C1137  C     0.92049   0.62367   0.91748   0.00000  Uiso   1.00
C1138  C     0.88893   0.60420   0.87933   0.00000  Uiso   1.00
H1139  H     0.94322   0.65240   0.78821   0.00000  Uiso   1.00
H1140  H     0.99662   0.68820   0.85591   0.00000  Uiso   1.00
H1141  H     0.98262   0.66978   0.93872   0.00000  Uiso   1.00
H1142  H     0.91546   0.61478   0.95361   0.00000  Uiso   1.00
H1143  H     0.85902   0.58090   0.88658   0.00000  Uiso   1.00
C1144  C     0.75189   0.88463   0.69226   0.00000  Uiso   1.00
C1145  C     0.76101   0.86946   0.64725   0.00000  Uiso   1.00
C1146  C     0.72591   0.84039   0.62184   0.00000  Uiso   1.00
C1147  C     0.68095   0.82739   0.64064   0.00000  Uiso   1.00
C1148  C     0.67005   0.84453   0.68410   0.00000  Uiso   1.00
C1149  C     0.70579   0.87274   0.71028   0.00000  Uiso   1.00
H1150  H     0.79674   0.87806   0.63322   0.00000  Uiso   1.00
H1151  H     0.73430   0.82700   0.58823   0.00000  Uiso   1.00
H1152  H     0.98855   0.80339   0.62185   0.00000  Uiso   1.00
H1153  H     0.96822   0.83464   0.69830   0.00000  Uiso   1.00
H1154  H     0.69853   0.88393   0.74514   0.00000  Uiso   1.00
C1155  C     0.92050   0.78627   0.53709   0.00000  Uiso   1.00
C1156  C     0.95207   0.75819   0.51330   0.00000  Uiso   1.00
C1157  C     0.99341   0.77583   0.99202   0.00000  Uiso   1.00
C1158  C     0.67036   0.82147   0.99456   0.00000  Uiso   1.00
C1159  C     0.97254   0.84959   0.51827   0.00000  Uiso   1.00
C1160  C     0.93104   0.83211   0.53950   0.00000  Uiso   1.00
H1161  H     0.94428   0.72283   0.51070   0.00000  Uiso   1.00
H1162  H     0.68389   0.75417   0.97325   0.00000  Uiso   1.00
H1163  H     0.70244   0.83505   0.97814   0.00000  Uiso   1.00
H1164  H     0.98054   0.88494   0.52020   0.00000  Uiso   1.00
H1165  H     0.90682   0.85426   0.55735   0.00000  Uiso   1.00
C1166  C     0.81160   0.66591   0.96790   0.00000  Uiso   1.00
C1167  C     0.84435   0.64925   0.50760   0.00000  Uiso   1.00
C1168  C     0.83360   0.60836   0.52797   0.00000  Uiso   1.00
C1169  C     0.79038   0.58357   0.50874   0.00000  Uiso   1.00
C1170  C     0.75794   0.59954   0.96899   0.00000  Uiso   1.00
C1171  C     0.76854   0.64042   0.94854   0.00000  Uiso   1.00
H1172  H     0.87844   0.66762   0.52259   0.00000  Uiso   1.00
H1173  H     0.85890   0.59583   0.55859   0.00000  Uiso   1.00
H1174  H     0.78212   0.55192   0.52455   0.00000  Uiso   1.00
H1175  H     0.72450   0.58030   0.95403   0.00000  Uiso   1.00
H1176  H     0.74292   0.65239   0.91785   0.00000  Uiso   1.00
loop_
_geom_bond_atom_site_label_1
_geom_bond_atom_site_label_2
_geom_bond_distance
_geom_bond_site_symmetry_2
_ccdc_geom_bond_type
O1     C5      1.285   .     A
O1     Zn13    2.003   .     S
O2     C6      1.281   .     A
O2     Zn14    2.003   .     S
O3     Zn14    2.000   .     S
O3     C5      1.285   .     A
O4     Zn13    2.000   .     S
O4     C6      1.282   .     A
C5     C23     1.443   .     S
C6     C24     1.428   .     S
O7     C11     1.272   .     A
O7     Zn13    1.990   .     S
O8     C12     1.272   .     A
O8     Zn14    1.990   .     S
O9     Zn14    1.986   .     S
O9     C11     1.278   .     A
O10    C12     1.277   .     A
O10    Zn13    1.986   .     S
C11    C15     1.399   .     S
C12    C16     1.398   .     S
Zn13   N44     2.002   .     S
Zn14   N43     2.002   .     S
C15    C212    1.342   1_455 S
C15    Cl249   1.781   1_455 S
C16    C113    1.342   .     S
C16    Cl152   1.781   .     S
C17    C33     1.402   .     A
C17    C21     1.390   .     A
C17    H19     1.083   .     S
C18    C34     1.405   .     A
C18    C22     1.384   .     A
C18    H20     1.083   .     S
C21    C55     1.489   .     S
C21    C23     1.415   .     A
C22    C66     1.474   .     S
C22    C24     1.404   .     A
C23    C25     1.398   .     A
C24    C26     1.392   .     A
C25    C29     1.376   .     A
C25    H27     1.084   .     S
C26    C30     1.379   .     A
C26    H28     1.084   .     S
C29    C33     1.398   .     A
C29    H31     1.083   .     S
C30    C34     1.403   .     A
C30    H32     1.082   .     S
C33    C328    1.455   1_545 S
C34    C327    1.455   .     S
C35    H37     1.082   .     S
C35    C39     1.404   .     A
C35    C51     1.407   .     A
C36    C52     1.408   .     A
C36    C40     1.403   .     A
C36    H38     1.082   .     S
C39    H41     1.081   .     S
C39    N43     1.363   .     A
C40    N44     1.361   .     A
C40    H42     1.081   .     S
N43    C45     1.362   .     A
N44    C46     1.363   .     A
C45    H47     1.079   .     S
C45    C49     1.414   .     A
C46    H48     1.080   .     S
C46    C50     1.415   .     A
C49    C51     1.419   .     A
C49    C77     1.479   .     S
C50    C52     1.422   .     A
C50    C88     1.486   .     S
C51    C640    1.512   1_554 S
C52    C639    1.512   .     S
Cl53   C113    1.781   .     S
Cl54   C212    1.781   1_455 S
C55    C56     1.408   .     A
C55    C60     1.407   .     A
C56    C57     1.398   .     A
C56    H61     1.083   .     S
C57    H62     1.083   .     S
C57    C58     1.396   .     A
C58    H63     1.082   .     S
C58    C59     1.396   .     A
C59    H64     1.080   .     S
C59    C60     1.398   .     A
C60    H65     1.083   .     S
C66    C67     1.404   .     A
C66    C71     1.403   .     A
C67    H72     1.084   .     S
C67    C68     1.395   .     A
C68    C69     1.396   .     A
C68    H73     1.082   .     S
C69    C70     1.398   .     A
C69    H270    1.077   1_455 S
C70    C71     1.398   .     A
C70    H271    1.083   1_455 S
C71    H76     1.083   .     S
H74    C167    1.077   .     S
H75    C168    1.083   .     S
C77    C78     1.406   .     A
C77    C82     1.404   .     A
C78    H83     1.082   .     S
C78    C667    1.398   1_554 S
C79    C666    1.398   .     S
C79    C178    1.397   .     S
C79    H182    1.082   .     S
C80    H85     1.082   .     S
C80    C275    1.397   1_455 S
C80    C865    1.398   1_455 S
C81    C82     1.399   .     A
C81    H86     1.082   .     S
C81    C766    1.398   1_554 S
C82    H87     1.083   .     S
H84    C275    1.082   1_455 S
C88    C93     1.406   .     A
C88    C677    1.407   .     S
C89    H94     1.082   .     S
C89    C90     1.398   .     A
C89    C676    1.407   1_554 S
C90    C91     1.397   .     A
C90    H95     1.082   .     S
C91    H96     1.082   .     S
C91    C680    1.397   1_554 S
C92    H97     1.082   .     S
C92    C93     1.398   .     A
C92    C679    1.397   .     S
C93    H98     1.082   .     S
O99    C103    1.285   .     A
O99    Zn111   2.003   .     S
O100   C104    1.281   .     A
O100   Zn112   2.003   .     S
O101   Zn112   2.000   .     S
O101   C103    1.285   .     A
O102   Zn111   2.000   .     S
O102   C104    1.282   .     A
C103   C121    1.443   .     S
C104   C122    1.428   .     S
O105   C109    1.272   .     A
O105   Zn111   1.990   .     S
O106   C110    1.272   .     A
O106   Zn112   1.990   .     S
O107   Zn112   1.986   .     S
O107   C109    1.278   .     A
O108   C110    1.277   .     A
O108   Zn111   1.986   .     S
C109   C113    1.399   .     S
C110   C114    1.398   .     S
Zn111  N142    2.002   .     S
Zn112  N141    2.002   .     S
C114   C211    1.342   .     S
C114   Cl250   1.781   .     S
C115   C131    1.402   .     A
C115   C119    1.390   .     A
C115   H117    1.083   .     S
C116   C132    1.405   .     A
C116   C120    1.384   .     A
C116   H118    1.083   .     S
C119   C153    1.489   .     S
C119   C121    1.415   .     A
C120   C164    1.474   .     S
C120   C122    1.404   .     A
C121   C123    1.398   .     A
C122   C124    1.392   .     A
C123   C127    1.376   .     A
C123   H125    1.084   .     S
C124   C128    1.379   .     A
C124   H126    1.084   .     S
C127   C131    1.398   .     A
C127   H129    1.083   .     S
C128   C132    1.403   .     A
C128   H130    1.082   .     S
C131   C426    1.455   1_545 S
C132   C425    1.455   .     S
C133   H135    1.082   .     S
C133   C137    1.404   .     A
C133   C149    1.407   .     A
C134   C150    1.408   .     A
C134   C138    1.403   .     A
C134   H136    1.082   .     S
C137   H139    1.081   .     S
C137   N141    1.363   .     A
C138   N142    1.361   .     A
C138   H140    1.081   .     S
N141   C143    1.362   .     A
N142   C144    1.363   .     A
C143   H145    1.079   .     S
C143   C147    1.414   .     A
C144   H146    1.080   .     S
C144   C148    1.415   .     A
C147   C149    1.419   .     A
C147   C175    1.479   .     S
C148   C150    1.422   .     A
C148   C186    1.486   .     S
C149   C738    1.512   1_554 S
C150   C737    1.512   .     S
Cl151  C211    1.781   .     S
C153   C154    1.408   .     A
C153   C158    1.407   .     A
C154   C155    1.398   .     A
C154   H159    1.083   .     S
C155   H160    1.083   .     S
C155   C156    1.396   .     A
C156   H161    1.082   .     S
C156   C157    1.396   .     A
C157   H162    1.080   .     S
C157   C158    1.398   .     A
C158   H163    1.083   .     S
C164   C165    1.404   .     A
C164   C169    1.403   .     A
C165   H170    1.084   .     S
C165   C166    1.395   .     A
C166   C167    1.396   .     A
C166   H171    1.082   .     S
C167   C168    1.398   .     A
C168   C169    1.398   .     A
C169   H174    1.083   .     S
H172   C265    1.077   .     S
H173   C266    1.083   .     S
C175   C176    1.406   .     A
C175   C180    1.404   .     A
C176   H181    1.082   .     S
C176   C765    1.398   1_554 S
C177   C764    1.398   .     S
C177   C276    1.397   .     S
C177   H280    1.082   .     S
C178   H183    1.082   .     S
C178   C669    1.398   .     S
C179   C180    1.399   .     A
C179   H184    1.082   .     S
C179   C864    1.398   1_554 S
C180   H185    1.083   .     S
C186   C191    1.406   .     A
C186   C775    1.407   .     S
C187   H192    1.082   .     S
C187   C188    1.398   .     A
C187   C774    1.407   1_554 S
C188   C189    1.397   .     A
C188   H193    1.082   .     S
C189   H194    1.082   .     S
C189   C778    1.397   1_554 S
C190   H195    1.082   .     S
C190   C191    1.398   .     A
C190   C777    1.397   .     S
C191   H196    1.082   .     S
O197   C201    1.285   .     A
O197   Zn209   2.003   .     S
O198   C202    1.281   .     A
O198   Zn210   2.003   .     S
O199   Zn210   2.000   .     S
O199   C201    1.285   .     A
O200   Zn209   2.000   .     S
O200   C202    1.282   .     A
C201   C219    1.443   .     S
C202   C220    1.428   .     S
O203   C207    1.272   .     A
O203   Zn209   1.990   .     S
O204   C208    1.272   .     A
O204   Zn210   1.990   .     S
O205   Zn210   1.986   .     S
O205   C207    1.278   .     A
O206   C208    1.277   .     A
O206   Zn209   1.986   .     S
C207   C211    1.399   .     S
C208   C212    1.398   .     S
Zn209  N240    2.002   .     S
Zn210  N239    2.002   .     S
C212   C15     1.342   1_655 S
C212   Cl54    1.781   1_655 S
C213   C229    1.402   .     A
C213   C217    1.390   .     A
C213   H215    1.083   .     S
C214   C230    1.405   .     A
C214   C218    1.384   .     A
C214   H216    1.083   .     S
C217   C251    1.489   .     S
C217   C219    1.415   .     A
C218   C262    1.474   .     S
C218   C220    1.404   .     A
C219   C221    1.398   .     A
C220   C222    1.392   .     A
C221   C225    1.376   .     A
C221   H223    1.084   .     S
C222   C226    1.379   .     A
C222   H224    1.084   .     S
C225   C229    1.398   .     A
C225   H227    1.083   .     S
C226   C230    1.403   .     A
C226   H228    1.082   .     S
C229   C524    1.455   1_545 S
C230   C523    1.455   .     S
C231   H233    1.082   .     S
C231   C235    1.404   .     A
C231   C247    1.407   .     A
C232   C248    1.408   .     A
C232   C236    1.403   .     A
C232   H234    1.082   .     S
C235   H237    1.081   .     S
C235   N239    1.363   .     A
C236   N240    1.361   .     A
C236   H238    1.081   .     S
N239   C241    1.362   .     A
N240   C242    1.363   .     A
C241   H243    1.079   .     S
C241   C245    1.414   .     A
C242   H244    1.080   .     S
C242   C246    1.415   .     A
C245   C247    1.419   .     A
C245   C273    1.479   .     S
C246   C248    1.422   .     A
C246   C284    1.486   .     S
C247   C836    1.512   1_554 S
C248   C835    1.512   .     S
Cl249  C15     1.781   1_655 S
C251   C252    1.408   .     A
C251   C256    1.407   .     A
C252   C253    1.398   .     A
C252   H257    1.083   .     S
C253   H258    1.083   .     S
C253   C254    1.396   .     A
C254   H259    1.082   .     S
C254   C255    1.396   .     A
C255   H260    1.080   .     S
C255   C256    1.398   .     A
C256   H261    1.083   .     S
C262   C263    1.404   .     A
C262   C267    1.403   .     A
C263   H268    1.084   .     S
C263   C264    1.395   .     A
C264   C265    1.396   .     A
C264   H269    1.082   .     S
C265   C266    1.398   .     A
C266   C267    1.398   .     A
C267   H272    1.083   .     S
H270   C69     1.077   1_655 S
H271   C70     1.083   1_655 S
C273   C274    1.406   .     A
C273   C278    1.404   .     A
C274   H279    1.082   .     S
C274   C863    1.398   1_554 S
C275   C862    1.398   .     S
C275   C80     1.397   1_655 S
C275   H84     1.082   1_655 S
C276   H281    1.082   .     S
C276   C767    1.398   .     S
C277   C278    1.399   .     A
C277   H282    1.082   .     S
C277   C668    1.398   1_654 S
C278   H283    1.083   .     S
C284   C289    1.406   .     A
C284   C873    1.407   .     S
C285   H290    1.082   .     S
C285   C286    1.398   .     A
C285   C872    1.407   1_554 S
C286   C287    1.397   .     A
C286   H291    1.082   .     S
C287   H292    1.082   .     S
C287   C876    1.397   1_554 S
C288   H293    1.082   .     S
C288   C289    1.398   .     A
C288   C875    1.397   .     S
C289   H294    1.082   .     S
O295   C299    1.285   .     A
O295   Zn307   2.003   .     S
O296   C300    1.281   .     A
O296   Zn308   2.003   .     S
O297   Zn308   2.000   .     S
O297   C299    1.285   .     A
O298   Zn307   2.000   .     S
O298   C300    1.282   .     A
C299   C317    1.443   .     S
C300   C318    1.428   .     S
O301   C305    1.272   .     A
O301   Zn307   1.990   .     S
O302   C306    1.272   .     A
O302   Zn308   1.990   .     S
O303   Zn308   1.986   .     S
O303   C305    1.278   .     A
O304   C306    1.277   .     A
O304   Zn307   1.986   .     S
C305   C309    1.399   .     S
C306   C310    1.398   .     S
Zn307  N338    2.002   .     S
Zn308  N337    2.002   .     S
C309   C506    1.342   1_455 S
C309   Cl543   1.781   1_455 S
C310   C407    1.342   .     S
C310   Cl446   1.781   .     S
C311   C327    1.402   .     A
C311   C315    1.390   .     A
C311   H313    1.083   .     S
C312   C328    1.405   .     A
C312   C316    1.384   .     A
C312   H314    1.083   .     S
C315   C349    1.489   .     S
C315   C317    1.415   .     A
C316   C360    1.474   .     S
C316   C318    1.404   .     A
C317   C319    1.398   .     A
C318   C320    1.392   .     A
C319   C323    1.376   .     A
C319   H321    1.084   .     S
C320   C324    1.379   .     A
C320   H322    1.084   .     S
C323   C327    1.398   .     A
C323   H325    1.083   .     S
C324   C328    1.403   .     A
C324   H326    1.082   .     S
C328   C33     1.455   1_565 S
C329   H331    1.082   .     S
C329   C333    1.404   .     A
C329   C345    1.407   .     A
C330   C346    1.408   .     A
C330   C334    1.403   .     A
C330   H332    1.082   .     S
C333   H335    1.081   .     S
C333   N337    1.363   .     A
C334   N338    1.361   .     A
C334   H336    1.081   .     S
N337   C339    1.362   .     A
N338   C340    1.363   .     A
C339   H341    1.079   .     S
C339   C343    1.414   .     A
C340   H342    1.080   .     S
C340   C344    1.415   .     A
C343   C345    1.419   .     A
C343   C371    1.479   .     S
C344   C346    1.422   .     A
C344   C382    1.486   .     S
C345   C934    1.512   1_554 S
C346   C933    1.512   .     S
Cl347  C407    1.781   .     S
Cl348  C506    1.781   1_455 S
C349   C350    1.408   .     A
C349   C354    1.407   .     A
C350   C351    1.398   .     A
C350   H355    1.083   .     S
C351   H356    1.083   .     S
C351   C352    1.396   .     A
C352   H357    1.082   .     S
C352   C353    1.396   .     A
C353   H358    1.080   .     S
C353   C354    1.398   .     A
C354   H359    1.083   .     S
C360   C361    1.404   .     A
C360   C365    1.403   .     A
C361   H366    1.084   .     S
C361   C362    1.395   .     A
C362   C363    1.396   .     A
C362   H367    1.082   .     S
C363   C364    1.398   .     A
C363   H564    1.077   1_455 S
C364   C365    1.398   .     A
C364   H565    1.083   1_455 S
C365   H370    1.083   .     S
H368   C461    1.077   .     S
H369   C462    1.083   .     S
C371   C372    1.406   .     A
C371   C376    1.404   .     A
C372   H377    1.082   .     S
C372   C961    1.398   1_554 S
C373   C960    1.398   .     S
C373   C472    1.397   .     S
C373   H476    1.082   .     S
C374   H379    1.082   .     S
C374   C569    1.397   1_455 S
C374   C1159   1.398   1_455 S
C375   C376    1.399   .     A
C375   H380    1.082   .     S
C375   C1060   1.398   1_554 S
C376   H381    1.083   .     S
H378   C569    1.082   1_455 S
C382   C387    1.406   .     A
C382   C971    1.407   .     S
C383   H388    1.082   .     S
C383   C384    1.398   .     A
C383   C970    1.407   1_554 S
C384   C385    1.397   .     A
C384   H389    1.082   .     S
C385   H390    1.082   .     S
C385   C974    1.397   1_554 S
C386   H391    1.082   .     S
C386   C387    1.398   .     A
C386   C973    1.397   .     S
C387   H392    1.082   .     S
O393   C397    1.285   .     A
O393   Zn405   2.003   .     S
O394   C398    1.281   .     A
O394   Zn406   2.003   .     S
O395   Zn406   2.000   .     S
O395   C397    1.285   .     A
O396   Zn405   2.000   .     S
O396   C398    1.282   .     A
C397   C415    1.443   .     S
C398   C416    1.428   .     S
O399   C403    1.272   .     A
O399   Zn405   1.990   .     S
O400   C404    1.272   .     A
O400   Zn406   1.990   .     S
O401   Zn406   1.986   .     S
O401   C403    1.278   .     A
O402   C404    1.277   .     A
O402   Zn405   1.986   .     S
C403   C407    1.399   .     S
C404   C408    1.398   .     S
Zn405  N436    2.002   .     S
Zn406  N435    2.002   .     S
C408   C505    1.342   .     S
C408   Cl544   1.781   .     S
C409   C425    1.402   .     A
C409   C413    1.390   .     A
C409   H411    1.083   .     S
C410   C426    1.405   .     A
C410   C414    1.384   .     A
C410   H412    1.083   .     S
C413   C447    1.489   .     S
C413   C415    1.415   .     A
C414   C458    1.474   .     S
C414   C416    1.404   .     A
C415   C417    1.398   .     A
C416   C418    1.392   .     A
C417   C421    1.376   .     A
C417   H419    1.084   .     S
C418   C422    1.379   .     A
C418   H420    1.084   .     S
C421   C425    1.398   .     A
C421   H423    1.083   .     S
C422   C426    1.403   .     A
C422   H424    1.082   .     S
C426   C131    1.455   1_565 S
C427   H429    1.082   .     S
C427   C431    1.404   .     A
C427   C443    1.407   .     A
C428   C444    1.408   .     A
C428   C432    1.403   .     A
C428   H430    1.082   .     S
C431   H433    1.081   .     S
C431   N435    1.363   .     A
C432   N436    1.361   .     A
C432   H434    1.081   .     S
N435   C437    1.362   .     A
N436   C438    1.363   .     A
C437   H439    1.079   .     S
C437   C441    1.414   .     A
C438   H440    1.080   .     S
C438   C442    1.415   .     A
C441   C443    1.419   .     A
C441   C469    1.479   .     S
C442   C444    1.422   .     A
C442   C480    1.486   .     S
C443   C1032   1.512   1_554 S
C444   C1031   1.512   .     S
Cl445  C505    1.781   .     S
C447   C448    1.408   .     A
C447   C452    1.407   .     A
C448   C449    1.398   .     A
C448   H453    1.083   .     S
C449   H454    1.083   .     S
C449   C450    1.396   .     A
C450   H455    1.082   .     S
C450   C451    1.396   .     A
C451   H456    1.080   .     S
C451   C452    1.398   .     A
C452   H457    1.083   .     S
C458   C459    1.404   .     A
C458   C463    1.403   .     A
C459   H464    1.084   .     S
C459   C460    1.395   .     A
C460   C461    1.396   .     A
C460   H465    1.082   .     S
C461   C462    1.398   .     A
C462   C463    1.398   .     A
C463   H468    1.083   .     S
H466   C559    1.077   .     S
H467   C560    1.083   .     S
C469   C470    1.406   .     A
C469   C474    1.404   .     A
C470   H475    1.082   .     S
C470   C1059   1.398   1_554 S
C471   C1058   1.398   .     S
C471   C570    1.397   .     S
C471   H574    1.082   .     S
C472   H477    1.082   .     S
C472   C963    1.398   .     S
C473   C474    1.399   .     A
C473   H478    1.082   .     S
C473   C1158   1.398   1_554 S
C474   H479    1.083   .     S
C480   C485    1.406   .     A
C480   C1069   1.407   .     S
C481   H486    1.082   .     S
C481   C482    1.398   .     A
C481   C1068   1.407   1_554 S
C482   C483    1.397   .     A
C482   H487    1.082   .     S
C483   H488    1.082   .     S
C483   C1072   1.397   1_554 S
C484   H489    1.082   .     S
C484   C485    1.398   .     A
C484   C1071   1.397   .     S
C485   H490    1.082   .     S
O491   C495    1.285   .     A
O491   Zn503   2.003   .     S
O492   C496    1.281   .     A
O492   Zn504   2.003   .     S
O493   Zn504   2.000   .     S
O493   C495    1.285   .     A
O494   Zn503   2.000   .     S
O494   C496    1.282   .     A
C495   C513    1.443   .     S
C496   C514    1.428   .     S
O497   C501    1.272   .     A
O497   Zn503   1.990   .     S
O498   C502    1.272   .     A
O498   Zn504   1.990   .     S
O499   Zn504   1.986   .     S
O499   C501    1.278   .     A
O500   C502    1.277   .     A
O500   Zn503   1.986   .     S
C501   C505    1.399   .     S
C502   C506    1.398   .     S
Zn503  N534    2.002   .     S
Zn504  N533    2.002   .     S
C506   C309    1.342   1_655 S
C506   Cl348   1.781   1_655 S
C507   C523    1.402   .     A
C507   C511    1.390   .     A
C507   H509    1.083   .     S
C508   C524    1.405   .     A
C508   C512    1.384   .     A
C508   H510    1.083   .     S
C511   C545    1.489   .     S
C511   C513    1.415   .     A
C512   C556    1.474   .     S
C512   C514    1.404   .     A
C513   C515    1.398   .     A
C514   C516    1.392   .     A
C515   C519    1.376   .     A
C515   H517    1.084   .     S
C516   C520    1.379   .     A
C516   H518    1.084   .     S
C519   C523    1.398   .     A
C519   H521    1.083   .     S
C520   C524    1.403   .     A
C520   H522    1.082   .     S
C524   C229    1.455   1_565 S
C525   H527    1.082   .     S
C525   C529    1.404   .     A
C525   C541    1.407   .     A
C526   C542    1.408   .     A
C526   C530    1.403   .     A
C526   H528    1.082   .     S
C529   H531    1.081   .     S
C529   N533    1.363   .     A
C530   N534    1.361   .     A
C530   H532    1.081   .     S
N533   C535    1.362   .     A
N534   C536    1.363   .     A
C535   H537    1.079   .     S
C535   C539    1.414   .     A
C536   H538    1.080   .     S
C536   C540    1.415   .     A
C539   C541    1.419   .     A
C539   C567    1.479   .     S
C540   C542    1.422   .     A
C540   C578    1.486   .     S
C541   C1130   1.512   1_554 S
C542   C1129   1.512   .     S
Cl543  C309    1.781   1_655 S
C545   C546    1.408   .     A
C545   C550    1.407   .     A
C546   C547    1.398   .     A
C546   H551    1.083   .     S
C547   H552    1.083   .     S
C547   C548    1.396   .     A
C548   H553    1.082   .     S
C548   C549    1.396   .     A
C549   H554    1.080   .     S
C549   C550    1.398   .     A
C550   H555    1.083   .     S
C556   C557    1.404   .     A
C556   C561    1.403   .     A
C557   H562    1.084   .     S
C557   C558    1.395   .     A
C558   C559    1.396   .     A
C558   H563    1.082   .     S
C559   C560    1.398   .     A
C560   C561    1.398   .     A
C561   H566    1.083   .     S
H564   C363    1.077   1_655 S
H565   C364    1.083   1_655 S
C567   C568    1.406   .     A
C567   C572    1.404   .     A
C568   H573    1.082   .     S
C568   C1157   1.398   1_554 S
C569   C1156   1.398   .     S
C569   C374    1.397   1_655 S
C569   H378    1.082   1_655 S
C570   H575    1.082   .     S
C570   C1061   1.398   .     S
C571   C572    1.399   .     A
C571   H576    1.082   .     S
C571   C962    1.398   1_654 S
C572   H577    1.083   .     S
C578   C583    1.406   .     A
C578   C1167   1.407   .     S
C579   H584    1.082   .     S
C579   C580    1.398   .     A
C579   C1166   1.407   1_554 S
C580   C581    1.397   .     A
C580   H585    1.082   .     S
C581   H586    1.082   .     S
C581   C1170   1.397   1_554 S
C582   H587    1.082   .     S
C582   C583    1.398   .     A
C582   C1169   1.397   .     S
C583   H588    1.082   .     S
O589   C593    1.285   .     A
O589   Zn601   2.003   .     S
O590   C594    1.281   .     A
O590   Zn602   2.003   .     S
O591   Zn602   2.000   .     S
O591   C593    1.285   .     A
O592   Zn601   2.000   .     S
O592   C594    1.282   .     A
C593   C611    1.443   .     S
C594   C612    1.428   .     S
O595   C599    1.272   .     A
O595   Zn601   1.990   .     S
O596   C600    1.272   .     A
O596   Zn602   1.990   .     S
O597   Zn602   1.986   .     S
O597   C599    1.278   .     A
O598   C600    1.277   .     A
O598   Zn601   1.986   .     S
C599   C603    1.399   .     S
C600   C604    1.398   .     S
Zn601  N632    2.002   .     S
Zn602  N631    2.002   .     S
C603   C800    1.342   1_455 S
C603   Cl837   1.781   1_455 S
C604   C701    1.342   .     S
C604   Cl740   1.781   .     S
C605   C621    1.402   .     A
C605   C609    1.390   .     A
C605   H607    1.083   .     S
C606   C622    1.405   .     A
C606   C610    1.384   .     A
C606   H608    1.083   .     S
C609   C643    1.489   .     S
C609   C611    1.415   .     A
C610   C654    1.474   .     S
C610   C612    1.404   .     A
C611   C613    1.398   .     A
C612   C614    1.392   .     A
C613   C617    1.376   .     A
C613   H615    1.084   .     S
C614   C618    1.379   .     A
C614   H616    1.084   .     S
C617   C621    1.398   .     A
C617   H619    1.083   .     S
C618   C622    1.403   .     A
C618   H620    1.082   .     S
C621   C916    1.455   1_545 S
C622   C915    1.455   .     S
C623   H625    1.082   .     S
C623   C627    1.404   .     A
C623   C639    1.407   .     A
C624   C640    1.408   .     A
C624   C628    1.403   .     A
C624   H626    1.082   .     S
C627   H629    1.081   .     S
C627   N631    1.363   .     A
C628   N632    1.361   .     A
C628   H630    1.081   .     S
N631   C633    1.362   .     A
N632   C634    1.363   .     A
C633   H635    1.079   .     S
C633   C637    1.414   .     A
C634   H636    1.080   .     S
C634   C638    1.415   .     A
C637   C639    1.419   .     A
C637   C665    1.479   .     S
C638   C640    1.422   .     A
C638   C676    1.486   .     S
C640   C51     1.512   1_556 S
Cl641  C701    1.781   .     S
Cl642  C800    1.781   1_455 S
C643   C644    1.408   .     A
C643   C648    1.407   .     A
C644   C645    1.398   .     A
C644   H649    1.083   .     S
C645   H650    1.083   .     S
C645   C646    1.396   .     A
C646   H651    1.082   .     S
C646   C647    1.396   .     A
C647   H652    1.080   .     S
C647   C648    1.398   .     A
C648   H653    1.083   .     S
C654   C655    1.404   .     A
C654   C659    1.403   .     A
C655   H660    1.084   .     S
C655   C656    1.395   .     A
C656   C657    1.396   .     A
C656   H661    1.082   .     S
C657   C658    1.398   .     A
C657   H858    1.077   1_455 S
C658   C659    1.398   .     A
C658   H859    1.083   1_455 S
C659   H664    1.083   .     S
H662   C755    1.077   .     S
H663   C756    1.083   .     S
C665   C666    1.406   .     A
C665   C670    1.404   .     A
C666   H671    1.082   .     S
C667   C78     1.398   1_556 S
C667   C766    1.397   .     S
C667   H770    1.082   .     S
C668   H673    1.082   .     S
C668   C863    1.397   1_455 S
C668   C277    1.398   1_456 S
C669   C670    1.399   .     A
C669   H674    1.082   .     S
C670   H675    1.083   .     S
H672   C863    1.082   1_455 S
C676   C681    1.406   .     A
C676   C89     1.407   1_556 S
C677   H682    1.082   .     S
C677   C678    1.398   .     A
C678   C679    1.397   .     A
C678   H683    1.082   .     S
C679   H684    1.082   .     S
C680   H685    1.082   .     S
C680   C681    1.398   .     A
C680   C91     1.397   1_556 S
C681   H686    1.082   .     S
O687   C691    1.285   .     A
O687   Zn699   2.003   .     S
O688   C692    1.281   .     A
O688   Zn700   2.003   .     S
O689   Zn700   2.000   .     S
O689   C691    1.285   .     A
O690   Zn699   2.000   .     S
O690   C692    1.282   .     A
C691   C709    1.443   .     S
C692   C710    1.428   .     S
O693   C697    1.272   .     A
O693   Zn699   1.990   .     S
O694   C698    1.272   .     A
O694   Zn700   1.990   .     S
O695   Zn700   1.986   .     S
O695   C697    1.278   .     A
O696   C698    1.277   .     A
O696   Zn699   1.986   .     S
C697   C701    1.399   .     S
C698   C702    1.398   .     S
Zn699  N730    2.002   .     S
Zn700  N729    2.002   .     S
C702   C799    1.342   .     S
C702   Cl838   1.781   .     S
C703   C719    1.402   .     A
C703   C707    1.390   .     A
C703   H705    1.083   .     S
C704   C720    1.405   .     A
C704   C708    1.384   .     A
C704   H706    1.083   .     S
C707   C741    1.489   .     S
C707   C709    1.415   .     A
C708   C752    1.474   .     S
C708   C710    1.404   .     A
C709   C711    1.398   .     A
C710   C712    1.392   .     A
C711   C715    1.376   .     A
C711   H713    1.084   .     S
C712   C716    1.379   .     A
C712   H714    1.084   .     S
C715   C719    1.398   .     A
C715   H717    1.083   .     S
C716   C720    1.403   .     A
C716   H718    1.082   .     S
C719   C1014   1.455   1_545 S
C720   C1013   1.455   .     S
C721   H723    1.082   .     S
C721   C725    1.404   .     A
C721   C737    1.407   .     A
C722   C738    1.408   .     A
C722   C726    1.403   .     A
C722   H724    1.082   .     S
C725   H727    1.081   .     S
C725   N729    1.363   .     A
C726   N730    1.361   .     A
C726   H728    1.081   .     S
N729   C731    1.362   .     A
N730   C732    1.363   .     A
C731   H733    1.079   .     S
C731   C735    1.414   .     A
C732   H734    1.080   .     S
C732   C736    1.415   .     A
C735   C737    1.419   .     A
C735   C763    1.479   .     S
C736   C738    1.422   .     A
C736   C774    1.486   .     S
C738   C149    1.512   1_556 S
Cl739  C799    1.781   .     S
C741   C742    1.408   .     A
C741   C746    1.407   .     A
C742   C743    1.398   .     A
C742   H747    1.083   .     S
C743   H748    1.083   .     S
C743   C744    1.396   .     A
C744   H749    1.082   .     S
C744   C745    1.396   .     A
C745   H750    1.080   .     S
C745   C746    1.398   .     A
C746   H751    1.083   .     S
C752   C753    1.404   .     A
C752   C757    1.403   .     A
C753   H758    1.084   .     S
C753   C754    1.395   .     A
C754   C755    1.396   .     A
C754   H759    1.082   .     S
C755   C756    1.398   .     A
C756   C757    1.398   .     A
C757   H762    1.083   .     S
H760   C853    1.077   .     S
H761   C854    1.083   .     S
C763   C764    1.406   .     A
C763   C768    1.404   .     A
C764   H769    1.082   .     S
C765   C176    1.398   1_556 S
C765   C864    1.397   .     S
C765   H868    1.082   .     S
C766   H771    1.082   .     S
C766   C81     1.398   1_556 S
C767   C768    1.399   .     A
C767   H772    1.082   .     S
C768   H773    1.083   .     S
C774   C779    1.406   .     A
C774   C187    1.407   1_556 S
C775   H780    1.082   .     S
C775   C776    1.398   .     A
C776   C777    1.397   .     A
C776   H781    1.082   .     S
C777   H782    1.082   .     S
C778   H783    1.082   .     S
C778   C779    1.398   .     A
C778   C189    1.397   1_556 S
C779   H784    1.082   .     S
O785   C789    1.285   .     A
O785   Zn797   2.003   .     S
O786   C790    1.281   .     A
O786   Zn798   2.003   .     S
O787   Zn798   2.000   .     S
O787   C789    1.285   .     A
O788   Zn797   2.000   .     S
O788   C790    1.282   .     A
C789   C807    1.443   .     S
C790   C808    1.428   .     S
O791   C795    1.272   .     A
O791   Zn797   1.990   .     S
O792   C796    1.272   .     A
O792   Zn798   1.990   .     S
O793   Zn798   1.986   .     S
O793   C795    1.278   .     A
O794   C796    1.277   .     A
O794   Zn797   1.986   .     S
C795   C799    1.399   .     S
C796   C800    1.398   .     S
Zn797  N828    2.002   .     S
Zn798  N827    2.002   .     S
C800   C603    1.342   1_655 S
C800   Cl642   1.781   1_655 S
C801   C817    1.402   .     A
C801   C805    1.390   .     A
C801   H803    1.083   .     S
C802   C818    1.405   .     A
C802   C806    1.384   .     A
C802   H804    1.083   .     S
C805   C839    1.489   .     S
C805   C807    1.415   .     A
C806   C850    1.474   .     S
C806   C808    1.404   .     A
C807   C809    1.398   .     A
C808   C810    1.392   .     A
C809   C813    1.376   .     A
C809   H811    1.084   .     S
C810   C814    1.379   .     A
C810   H812    1.084   .     S
C813   C817    1.398   .     A
C813   H815    1.083   .     S
C814   C818    1.403   .     A
C814   H816    1.082   .     S
C817   C1112   1.455   1_545 S
C818   C1111   1.455   .     S
C819   H821    1.082   .     S
C819   C823    1.404   .     A
C819   C835    1.407   .     A
C820   C836    1.408   .     A
C820   C824    1.403   .     A
C820   H822    1.082   .     S
C823   H825    1.081   .     S
C823   N827    1.363   .     A
C824   N828    1.361   .     A
C824   H826    1.081   .     S
N827   C829    1.362   .     A
N828   C830    1.363   .     A
C829   H831    1.079   .     S
C829   C833    1.414   .     A
C830   H832    1.080   .     S
C830   C834    1.415   .     A
C833   C835    1.419   .     A
C833   C861    1.479   .     S
C834   C836    1.422   .     A
C834   C872    1.486   .     S
C836   C247    1.512   1_556 S
Cl837  C603    1.781   1_655 S
C839   C840    1.408   .     A
C839   C844    1.407   .     A
C840   C841    1.398   .     A
C840   H845    1.083   .     S
C841   H846    1.083   .     S
C841   C842    1.396   .     A
C842   H847    1.082   .     S
C842   C843    1.396   .     A
C843   H848    1.080   .     S
C843   C844    1.398   .     A
C844   H849    1.083   .     S
C850   C851    1.404   .     A
C850   C855    1.403   .     A
C851   H856    1.084   .     S
C851   C852    1.395   .     A
C852   C853    1.396   .     A
C852   H857    1.082   .     S
C853   C854    1.398   .     A
C854   C855    1.398   .     A
C855   H860    1.083   .     S
H858   C657    1.077   1_655 S
H859   C658    1.083   1_655 S
C861   C862    1.406   .     A
C861   C866    1.404   .     A
C862   H867    1.082   .     S
C863   C274    1.398   1_556 S
C863   C668    1.397   1_655 S
C863   H672    1.082   1_655 S
C864   H869    1.082   .     S
C864   C179    1.398   1_556 S
C865   C866    1.399   .     A
C865   H870    1.082   .     S
C865   C80     1.398   1_655 S
C866   H871    1.083   .     S
C872   C877    1.406   .     A
C872   C285    1.407   1_556 S
C873   H878    1.082   .     S
C873   C874    1.398   .     A
C874   C875    1.397   .     A
C874   H879    1.082   .     S
C875   H880    1.082   .     S
C876   H881    1.082   .     S
C876   C877    1.398   .     A
C876   C287    1.397   1_556 S
C877   H882    1.082   .     S
O883   C887    1.285   .     A
O883   Zn895   2.003   .     S
O884   C888    1.281   .     A
O884   Zn896   2.003   .     S
O885   Zn896   2.000   .     S
O885   C887    1.285   .     A
O886   Zn895   2.000   .     S
O886   C888    1.282   .     A
C887   C905    1.443   .     S
C888   C906    1.428   .     S
O889   C893    1.272   .     A
O889   Zn895   1.990   .     S
O890   C894    1.272   .     A
O890   Zn896   1.990   .     S
O891   Zn896   1.986   .     S
O891   C893    1.278   .     A
O892   C894    1.277   .     A
O892   Zn895   1.986   .     S
C893   C897    1.399   .     S
C894   C898    1.398   .     S
Zn895  N926    2.002   .     S
Zn896  N925    2.002   .     S
C897   C1094   1.342   1_455 S
C897   Cl1131  1.781   1_455 S
C898   C995    1.342   .     S
C898   Cl1034  1.781   .     S
C899   C915    1.402   .     A
C899   C903    1.390   .     A
C899   H901    1.083   .     S
C900   C916    1.405   .     A
C900   C904    1.384   .     A
C900   H902    1.083   .     S
C903   C937    1.489   .     S
C903   C905    1.415   .     A
C904   C948    1.474   .     S
C904   C906    1.404   .     A
C905   C907    1.398   .     A
C906   C908    1.392   .     A
C907   C911    1.376   .     A
C907   H909    1.084   .     S
C908   C912    1.379   .     A
C908   H910    1.084   .     S
C911   C915    1.398   .     A
C911   H913    1.083   .     S
C912   C916    1.403   .     A
C912   H914    1.082   .     S
C916   C621    1.455   1_565 S
C917   H919    1.082   .     S
C917   C921    1.404   .     A
C917   C933    1.407   .     A
C918   C934    1.408   .     A
C918   C922    1.403   .     A
C918   H920    1.082   .     S
C921   H923    1.081   .     S
C921   N925    1.363   .     A
C922   N926    1.361   .     A
C922   H924    1.081   .     S
N925   C927    1.362   .     A
N926   C928    1.363   .     A
C927   H929    1.079   .     S
C927   C931    1.414   .     A
C928   H930    1.080   .     S
C928   C932    1.415   .     A
C931   C933    1.419   .     A
C931   C959    1.479   .     S
C932   C934    1.422   .     A
C932   C970    1.486   .     S
C934   C345    1.512   1_556 S
Cl935  C995    1.781   .     S
Cl936  C1094   1.781   1_455 S
C937   C938    1.408   .     A
C937   C942    1.407   .     A
C938   C939    1.398   .     A
C938   H943    1.083   .     S
C939   H944    1.083   .     S
C939   C940    1.396   .     A
C940   H945    1.082   .     S
C940   C941    1.396   .     A
C941   H946    1.080   .     S
C941   C942    1.398   .     A
C942   H947    1.083   .     S
C948   C949    1.404   .     A
C948   C953    1.403   .     A
C949   H954    1.084   .     S
C949   C950    1.395   .     A
C950   C951    1.396   .     A
C950   H955    1.082   .     S
C951   C952    1.398   .     A
C951   H1152   1.077   1_455 S
C952   C953    1.398   .     A
C952   H1153   1.083   1_455 S
C953   H958    1.083   .     S
H956   C1049   1.077   .     S
H957   C1050   1.083   .     S
C959   C960    1.406   .     A
C959   C964    1.404   .     A
C960   H965    1.082   .     S
C961   C372    1.398   1_556 S
C961   C1060   1.397   .     S
C961   H1064   1.082   .     S
C962   H967    1.082   .     S
C962   C1157   1.397   1_455 S
C962   C571    1.398   1_456 S
C963   C964    1.399   .     A
C963   H968    1.082   .     S
C964   H969    1.083   .     S
H966   C1157   1.082   1_455 S
C970   C975    1.406   .     A
C970   C383    1.407   1_556 S
C971   H976    1.082   .     S
C971   C972    1.398   .     A
C972   C973    1.397   .     A
C972   H977    1.082   .     S
C973   H978    1.082   .     S
C974   H979    1.082   .     S
C974   C975    1.398   .     A
C974   C385    1.397   1_556 S
C975   H980    1.082   .     S
O981   C985    1.285   .     A
O981   Zn993   2.003   .     S
O982   C986    1.281   .     A
O982   Zn994   2.003   .     S
O983   Zn994   2.000   .     S
O983   C985    1.285   .     A
O984   Zn993   2.000   .     S
O984   C986    1.282   .     A
C985   C1003   1.443   .     S
C986   C1004   1.428   .     S
O987   C991    1.272   .     A
O987   Zn993   1.990   .     S
O988   C992    1.272   .     A
O988   Zn994   1.990   .     S
O989   Zn994   1.986   .     S
O989   C991    1.278   .     A
O990   C992    1.277   .     A
O990   Zn993   1.986   .     S
C991   C995    1.399   .     S
C992   C996    1.398   .     S
Zn993  N1024   2.002   .     S
Zn994  N1023   2.002   .     S
C996   C1093   1.342   .     S
C996   Cl1132  1.781   .     S
C997   C1013   1.402   .     A
C997   C1001   1.390   .     A
C997   H999    1.083   .     S
C998   C1014   1.405   .     A
C998   C1002   1.384   .     A
C998   H1000   1.083   .     S
C1001  C1035   1.489   .     S
C1001  C1003   1.415   .     A
C1002  C1046   1.474   .     S
C1002  C1004   1.404   .     A
C1003  C1005   1.398   .     A
C1004  C1006   1.392   .     A
C1005  C1009   1.376   .     A
C1005  H1007   1.084   .     S
C1006  C1010   1.379   .     A
C1006  H1008   1.084   .     S
C1009  C1013   1.398   .     A
C1009  H1011   1.083   .     S
C1010  C1014   1.403   .     A
C1010  H1012   1.082   .     S
C1014  C719    1.455   1_565 S
C1015  H1017   1.082   .     S
C1015  C1019   1.404   .     A
C1015  C1031   1.407   .     A
C1016  C1032   1.408   .     A
C1016  C1020   1.403   .     A
C1016  H1018   1.082   .     S
C1019  H1021   1.081   .     S
C1019  N1023   1.363   .     A
C1020  N1024   1.361   .     A
C1020  H1022   1.081   .     S
N1023  C1025   1.362   .     A
N1024  C1026   1.363   .     A
C1025  H1027   1.079   .     S
C1025  C1029   1.414   .     A
C1026  H1028   1.080   .     S
C1026  C1030   1.415   .     A
C1029  C1031   1.419   .     A
C1029  C1057   1.479   .     S
C1030  C1032   1.422   .     A
C1030  C1068   1.486   .     S
C1032  C443    1.512   1_556 S
Cl1033 C1093   1.781   .     S
C1035  C1036   1.408   .     A
C1035  C1040   1.407   .     A
C1036  C1037   1.398   .     A
C1036  H1041   1.083   .     S
C1037  H1042   1.083   .     S
C1037  C1038   1.396   .     A
C1038  H1043   1.082   .     S
C1038  C1039   1.396   .     A
C1039  H1044   1.080   .     S
C1039  C1040   1.398   .     A
C1040  H1045   1.083   .     S
C1046  C1047   1.404   .     A
C1046  C1051   1.403   .     A
C1047  H1052   1.084   .     S
C1047  C1048   1.395   .     A
C1048  C1049   1.396   .     A
C1048  H1053   1.082   .     S
C1049  C1050   1.398   .     A
C1050  C1051   1.398   .     A
C1051  H1056   1.083   .     S
H1054  C1147   1.077   .     S
H1055  C1148   1.083   .     S
C1057  C1058   1.406   .     A
C1057  C1062   1.404   .     A
C1058  H1063   1.082   .     S
C1059  C470    1.398   1_556 S
C1059  C1158   1.397   .     S
C1059  H1162   1.082   .     S
C1060  H1065   1.082   .     S
C1060  C375    1.398   1_556 S
C1061  C1062   1.399   .     A
C1061  H1066   1.082   .     S
C1062  H1067   1.083   .     S
C1068  C1073   1.406   .     A
C1068  C481    1.407   1_556 S
C1069  H1074   1.082   .     S
C1069  C1070   1.398   .     A
C1070  C1071   1.397   .     A
C1070  H1075   1.082   .     S
C1071  H1076   1.082   .     S
C1072  H1077   1.082   .     S
C1072  C1073   1.398   .     A
C1072  C483    1.397   1_556 S
C1073  H1078   1.082   .     S
O1079  C1083   1.285   .     A
O1079  Zn1091  2.003   .     S
O1080  C1084   1.281   .     A
O1080  Zn1092  2.003   .     S
O1081  Zn1092  2.000   .     S
O1081  C1083   1.285   .     A
O1082  Zn1091  2.000   .     S
O1082  C1084   1.282   .     A
C1083  C1101   1.443   .     S
C1084  C1102   1.428   .     S
O1085  C1089   1.272   .     A
O1085  Zn1091  1.990   .     S
O1086  C1090   1.272   .     A
O1086  Zn1092  1.990   .     S
O1087  Zn1092  1.986   .     S
O1087  C1089   1.278   .     A
O1088  C1090   1.277   .     A
O1088  Zn1091  1.986   .     S
C1089  C1093   1.399   .     S
C1090  C1094   1.398   .     S
Zn1091 N1122   2.002   .     S
Zn1092 N1121   2.002   .     S
C1094  C897    1.342   1_655 S
C1094  Cl936   1.781   1_655 S
C1095  C1111   1.402   .     A
C1095  C1099   1.390   .     A
C1095  H1097   1.083   .     S
C1096  C1112   1.405   .     A
C1096  C1100   1.384   .     A
C1096  H1098   1.083   .     S
C1099  C1133   1.489   .     S
C1099  C1101   1.415   .     A
C1100  C1144   1.474   .     S
C1100  C1102   1.404   .     A
C1101  C1103   1.398   .     A
C1102  C1104   1.392   .     A
C1103  C1107   1.376   .     A
C1103  H1105   1.084   .     S
C1104  C1108   1.379   .     A
C1104  H1106   1.084   .     S
C1107  C1111   1.398   .     A
C1107  H1109   1.083   .     S
C1108  C1112   1.403   .     A
C1108  H1110   1.082   .     S
C1112  C817    1.455   1_565 S
C1113  H1115   1.082   .     S
C1113  C1117   1.404   .     A
C1113  C1129   1.407   .     A
C1114  C1130   1.408   .     A
C1114  C1118   1.403   .     A
C1114  H1116   1.082   .     S
C1117  H1119   1.081   .     S
C1117  N1121   1.363   .     A
C1118  N1122   1.361   .     A
C1118  H1120   1.081   .     S
N1121  C1123   1.362   .     A
N1122  C1124   1.363   .     A
C1123  H1125   1.079   .     S
C1123  C1127   1.414   .     A
C1124  H1126   1.080   .     S
C1124  C1128   1.415   .     A
C1127  C1129   1.419   .     A
C1127  C1155   1.479   .     S
C1128  C1130   1.422   .     A
C1128  C1166   1.486   .     S
C1130  C541    1.512   1_556 S
Cl1131 C897    1.781   1_655 S
C1133  C1134   1.408   .     A
C1133  C1138   1.407   .     A
C1134  C1135   1.398   .     A
C1134  H1139   1.083   .     S
C1135  H1140   1.083   .     S
C1135  C1136   1.396   .     A
C1136  H1141   1.082   .     S
C1136  C1137   1.396   .     A
C1137  H1142   1.080   .     S
C1137  C1138   1.398   .     A
C1138  H1143   1.083   .     S
C1144  C1145   1.404   .     A
C1144  C1149   1.403   .     A
C1145  H1150   1.084   .     S
C1145  C1146   1.395   .     A
C1146  C1147   1.396   .     A
C1146  H1151   1.082   .     S
C1147  C1148   1.398   .     A
C1148  C1149   1.398   .     A
C1149  H1154   1.083   .     S
H1152  C951    1.077   1_655 S
H1153  C952    1.083   1_655 S
C1155  C1156   1.406   .     A
C1155  C1160   1.404   .     A
C1156  H1161   1.082   .     S
C1157  C568    1.398   1_556 S
C1157  C962    1.397   1_655 S
C1157  H966    1.082   1_655 S
C1158  H1163   1.082   .     S
C1158  C473    1.398   1_556 S
C1159  C1160   1.399   .     A
C1159  H1164   1.082   .     S
C1159  C374    1.398   1_655 S
C1160  H1165   1.083   .     S
C1166  C1171   1.406   .     A
C1166  C579    1.407   1_556 S
C1167  H1172   1.082   .     S
C1167  C1168   1.398   .     A
C1168  C1169   1.397   .     A
C1168  H1173   1.082   .     S
C1169  H1174   1.082   .     S
C1170  H1175   1.082   .     S
C1170  C1171   1.398   .     A
C1170  C581    1.397   1_556 S
C1171  H1176   1.082   .     S
