data_str_m3_o1_o10_pcu_sym.112
_audit_creation_date              2020-01-03
_audit_creation_method            'Materials Studio'
_symmetry_space_group_name_H-M    'P1'
_symmetry_Int_Tables_number       1
_symmetry_cell_setting            triclinic
loop_
_symmetry_equiv_pos_as_xyz
  x,y,z
_cell_length_a                    26.0013
_cell_length_b                    31.8733
_cell_length_c                    29.6062
_cell_angle_alpha                 91.1590
_cell_angle_beta                  98.5756
_cell_angle_gamma                 90.6453
loop_
_atom_site_label
_atom_site_type_symbol
_atom_site_fract_x
_atom_site_fract_y
_atom_site_fract_z
_atom_site_U_iso_or_equiv
_atom_site_adp_type
_atom_site_occupancy
C1     C     0.16712   0.08677   0.16627   0.00000  Uiso   1.00
C2     C     0.16621   0.24656   0.16706   0.00000  Uiso   1.00
C3     C     0.06726   0.16652   0.15489   0.00000  Uiso   1.00
C4     C     0.26607   0.16681   0.17845   0.00000  Uiso   1.00
C5     C     0.01276   0.16104   0.14913   0.00000  Uiso   1.00
C6     C     0.32057   0.17229   0.18420   0.00000  Uiso   1.00
C7     C     0.20488   0.02086   0.14588   0.00000  Uiso   1.00
C8     C     0.12845   0.31248   0.18745   0.00000  Uiso   1.00
C9     C     0.20451   0.31101   0.14757   0.00000  Uiso   1.00
C10    C     0.12882   0.02232   0.18577   0.00000  Uiso   1.00
C11    C     0.16646   0.29068   0.16794   0.00000  Uiso   1.00
C12    C     0.16688   0.04265   0.16539   0.00000  Uiso   1.00
C13    C     0.19054   0.19823   0.02814   0.00000  Uiso   1.00
C14    C     0.14279   0.13510   0.30520   0.00000  Uiso   1.00
C15    C     0.19135   0.19844   0.31340   0.00000  Uiso   1.00
C16    C     0.14199   0.13489   0.01994   0.00000  Uiso   1.00
H17    H     0.23385   0.29332   0.13320   0.00000  Uiso   1.00
H18    H     0.09948   0.04001   0.20013   0.00000  Uiso   1.00
H19    H     0.20962   0.22273   0.05046   0.00000  Uiso   1.00
H20    H     0.12371   0.11061   0.28287   0.00000  Uiso   1.00
N21    N     0.16665   0.16666   0.28573   0.00000  Uiso   1.00
N22    N     0.16668   0.16668   0.04760   0.00000  Uiso   1.00
O23    O     0.16666   0.10558   0.20487   0.00000  Uiso   1.00
O24    O     0.16667   0.22775   0.12846   0.00000  Uiso   1.00
O25    O     0.16666   0.10559   0.12843   0.00000  Uiso   1.00
O26    O     0.16667   0.22774   0.20490   0.00000  Uiso   1.00
O27    O     0.09058   0.16666   0.19595   0.00000  Uiso   1.00
O28    O     0.24275   0.16667   0.13739   0.00000  Uiso   1.00
O29    O     0.09058   0.16667   0.11950   0.00000  Uiso   1.00
O30    O     0.24275   0.16666   0.21383   0.00000  Uiso   1.00
Zn31   Zn    0.16667   0.16666   0.21771   0.00000  Uiso   1.00
Zn32   Zn    0.16667   0.16667   0.11563   0.00000  Uiso   1.00
N33    N     0.32200   0.13731   0.10986   0.00000  Uiso   1.00
H34    H     0.00620   0.10888   0.10586   0.00000  Uiso   1.00
C35    C     0.31352   0.16023   0.06767   0.00000  Uiso   1.00
H36    H     0.28534   0.14252   0.04222   0.00000  Uiso   1.00
H37    H     0.01701   0.16403   0.05336   0.00000  Uiso   1.00
H38    H     0.29749   0.19173   0.07337   0.00000  Uiso   1.00
N39    N     0.01133   0.19602   0.22347   0.00000  Uiso   1.00
H40    H     0.32713   0.22445   0.22747   0.00000  Uiso   1.00
C41    C     0.01981   0.17310   0.26566   0.00000  Uiso   1.00
H42    H     0.04799   0.19082   0.29111   0.00000  Uiso   1.00
H43    H     0.03584   0.14161   0.25996   0.00000  Uiso   1.00
H44    H     0.31633   0.16930   0.27998   0.00000  Uiso   1.00
N45    N     0.24492   0.04230   0.12724   0.00000  Uiso   1.00
H46    H     0.28167   0.03321   0.14140   0.00000  Uiso   1.00
C47    C     0.23851   0.04107   0.07786   0.00000  Uiso   1.00
H48    H     0.24172   0.00837   0.06494   0.00000  Uiso   1.00
H49    H     0.26924   0.06064   0.06604   0.00000  Uiso   1.00
H50    H     0.20016   0.05371   0.06346   0.00000  Uiso   1.00
N51    N     0.08841   0.29103   0.20609   0.00000  Uiso   1.00
H52    H     0.05166   0.30013   0.19193   0.00000  Uiso   1.00
C53    C     0.09482   0.29226   0.25547   0.00000  Uiso   1.00
H54    H     0.09162   0.32496   0.26839   0.00000  Uiso   1.00
H55    H     0.13317   0.27962   0.26987   0.00000  Uiso   1.00
H56    H     0.06410   0.27269   0.26730   0.00000  Uiso   1.00
N57    N     0.21816   0.23092   0.29334   0.00000  Uiso   1.00
H58    H     0.24164   0.22052   0.27063   0.00000  Uiso   1.00
C59    C     0.23916   0.26722   0.32043   0.00000  Uiso   1.00
H60    H     0.25375   0.29052   0.29782   0.00000  Uiso   1.00
H61    H     0.27212   0.25796   0.01315   0.00000  Uiso   1.00
H62    H     0.20836   0.28241   0.00371   0.00000  Uiso   1.00
N63    N     0.11517   0.10241   0.03999   0.00000  Uiso   1.00
H64    H     0.09169   0.11281   0.06271   0.00000  Uiso   1.00
C65    C     0.09418   0.06611   0.01290   0.00000  Uiso   1.00
H66    H     0.07958   0.04281   0.03551   0.00000  Uiso   1.00
H67    H     0.12497   0.05092   0.32962   0.00000  Uiso   1.00
H68    H     0.06121   0.07537   0.32019   0.00000  Uiso   1.00
C69    C     0.50045   0.08677   0.16627   0.00000  Uiso   1.00
C70    C     0.49955   0.24656   0.16706   0.00000  Uiso   1.00
C71    C     0.40060   0.16652   0.15489   0.00000  Uiso   1.00
C72    C     0.59940   0.16681   0.17845   0.00000  Uiso   1.00
C73    C     0.34609   0.16104   0.14913   0.00000  Uiso   1.00
C74    C     0.65391   0.17229   0.18420   0.00000  Uiso   1.00
C75    C     0.53821   0.02086   0.14588   0.00000  Uiso   1.00
C76    C     0.46178   0.31248   0.18745   0.00000  Uiso   1.00
C77    C     0.53784   0.31101   0.14757   0.00000  Uiso   1.00
C78    C     0.46216   0.02232   0.18577   0.00000  Uiso   1.00
C79    C     0.49979   0.29068   0.16794   0.00000  Uiso   1.00
C80    C     0.50021   0.04265   0.16539   0.00000  Uiso   1.00
C81    C     0.52388   0.19823   0.02814   0.00000  Uiso   1.00
C82    C     0.47612   0.13510   0.30520   0.00000  Uiso   1.00
C83    C     0.52468   0.19844   0.31340   0.00000  Uiso   1.00
C84    C     0.47532   0.13489   0.01994   0.00000  Uiso   1.00
H85    H     0.56718   0.29332   0.13320   0.00000  Uiso   1.00
H86    H     0.43282   0.04001   0.20013   0.00000  Uiso   1.00
H87    H     0.54296   0.22273   0.05046   0.00000  Uiso   1.00
H88    H     0.45704   0.11061   0.28287   0.00000  Uiso   1.00
N89    N     0.49999   0.16666   0.28573   0.00000  Uiso   1.00
N90    N     0.50001   0.16668   0.04760   0.00000  Uiso   1.00
O91    O     0.50000   0.10558   0.20487   0.00000  Uiso   1.00
O92    O     0.50000   0.22775   0.12846   0.00000  Uiso   1.00
O93    O     0.50000   0.10559   0.12843   0.00000  Uiso   1.00
O94    O     0.50000   0.22774   0.20490   0.00000  Uiso   1.00
O95    O     0.42392   0.16666   0.19595   0.00000  Uiso   1.00
O96    O     0.57608   0.16667   0.13739   0.00000  Uiso   1.00
O97    O     0.42392   0.16667   0.11950   0.00000  Uiso   1.00
O98    O     0.57608   0.16666   0.21383   0.00000  Uiso   1.00
Zn99   Zn    0.50000   0.16666   0.21771   0.00000  Uiso   1.00
Zn100  Zn    0.50000   0.16667   0.11563   0.00000  Uiso   1.00
N101   N     0.65533   0.13731   0.10986   0.00000  Uiso   1.00
H102   H     0.33954   0.10888   0.10586   0.00000  Uiso   1.00
C103   C     0.64685   0.16023   0.06767   0.00000  Uiso   1.00
H104   H     0.61867   0.14252   0.04222   0.00000  Uiso   1.00
H105   H     0.35034   0.16403   0.05336   0.00000  Uiso   1.00
H106   H     0.63083   0.19173   0.07337   0.00000  Uiso   1.00
N107   N     0.34466   0.19602   0.22347   0.00000  Uiso   1.00
H108   H     0.66046   0.22445   0.22747   0.00000  Uiso   1.00
C109   C     0.35315   0.17310   0.26566   0.00000  Uiso   1.00
H110   H     0.38133   0.19082   0.29111   0.00000  Uiso   1.00
H111   H     0.36917   0.14161   0.25996   0.00000  Uiso   1.00
H112   H     0.64966   0.16930   0.27998   0.00000  Uiso   1.00
N113   N     0.57826   0.04230   0.12724   0.00000  Uiso   1.00
H114   H     0.61501   0.03321   0.14140   0.00000  Uiso   1.00
C115   C     0.57185   0.04107   0.07786   0.00000  Uiso   1.00
H116   H     0.57505   0.00837   0.06494   0.00000  Uiso   1.00
H117   H     0.60257   0.06064   0.06604   0.00000  Uiso   1.00
H118   H     0.53349   0.05371   0.06346   0.00000  Uiso   1.00
N119   N     0.42174   0.29103   0.20609   0.00000  Uiso   1.00
H120   H     0.38499   0.30013   0.19193   0.00000  Uiso   1.00
C121   C     0.42815   0.29226   0.25547   0.00000  Uiso   1.00
H122   H     0.42495   0.32496   0.26839   0.00000  Uiso   1.00
H123   H     0.46651   0.27962   0.26987   0.00000  Uiso   1.00
H124   H     0.39743   0.27269   0.26730   0.00000  Uiso   1.00
N125   N     0.55150   0.23092   0.29334   0.00000  Uiso   1.00
H126   H     0.57497   0.22052   0.27063   0.00000  Uiso   1.00
C127   C     0.57249   0.26722   0.32043   0.00000  Uiso   1.00
H128   H     0.58709   0.29052   0.29782   0.00000  Uiso   1.00
H129   H     0.60545   0.25796   0.01315   0.00000  Uiso   1.00
H130   H     0.54170   0.28241   0.00371   0.00000  Uiso   1.00
N131   N     0.44850   0.10241   0.03999   0.00000  Uiso   1.00
H132   H     0.42503   0.11281   0.06271   0.00000  Uiso   1.00
C133   C     0.42751   0.06611   0.01290   0.00000  Uiso   1.00
H134   H     0.41292   0.04281   0.03551   0.00000  Uiso   1.00
H135   H     0.45831   0.05092   0.32962   0.00000  Uiso   1.00
H136   H     0.39455   0.07537   0.32019   0.00000  Uiso   1.00
C137   C     0.83379   0.08677   0.16627   0.00000  Uiso   1.00
C138   C     0.83288   0.24656   0.16706   0.00000  Uiso   1.00
C139   C     0.73393   0.16652   0.15489   0.00000  Uiso   1.00
C140   C     0.93273   0.16681   0.17845   0.00000  Uiso   1.00
C141   C     0.67943   0.16104   0.14913   0.00000  Uiso   1.00
C142   C     0.98724   0.17229   0.18420   0.00000  Uiso   1.00
C143   C     0.87155   0.02086   0.14588   0.00000  Uiso   1.00
C144   C     0.79512   0.31248   0.18745   0.00000  Uiso   1.00
C145   C     0.87117   0.31101   0.14757   0.00000  Uiso   1.00
C146   C     0.79549   0.02232   0.18577   0.00000  Uiso   1.00
C147   C     0.83312   0.29068   0.16794   0.00000  Uiso   1.00
C148   C     0.83354   0.04265   0.16539   0.00000  Uiso   1.00
C149   C     0.85721   0.19823   0.02814   0.00000  Uiso   1.00
C150   C     0.80946   0.13510   0.30520   0.00000  Uiso   1.00
C151   C     0.85801   0.19844   0.31340   0.00000  Uiso   1.00
C152   C     0.80865   0.13489   0.01994   0.00000  Uiso   1.00
H153   H     0.90052   0.29332   0.13320   0.00000  Uiso   1.00
H154   H     0.76615   0.04001   0.20013   0.00000  Uiso   1.00
H155   H     0.87629   0.22273   0.05046   0.00000  Uiso   1.00
H156   H     0.79038   0.11061   0.28287   0.00000  Uiso   1.00
N157   N     0.83332   0.16666   0.28573   0.00000  Uiso   1.00
N158   N     0.83335   0.16668   0.04760   0.00000  Uiso   1.00
O159   O     0.83333   0.10558   0.20487   0.00000  Uiso   1.00
O160   O     0.83334   0.22775   0.12846   0.00000  Uiso   1.00
O161   O     0.83333   0.10559   0.12843   0.00000  Uiso   1.00
O162   O     0.83334   0.22774   0.20490   0.00000  Uiso   1.00
O163   O     0.75725   0.16666   0.19595   0.00000  Uiso   1.00
O164   O     0.90942   0.16667   0.13739   0.00000  Uiso   1.00
O165   O     0.75725   0.16667   0.11950   0.00000  Uiso   1.00
O166   O     0.90942   0.16666   0.21383   0.00000  Uiso   1.00
Zn167  Zn    0.83333   0.16666   0.21771   0.00000  Uiso   1.00
Zn168  Zn    0.83333   0.16667   0.11563   0.00000  Uiso   1.00
N169   N     0.98867   0.13731   0.10986   0.00000  Uiso   1.00
H170   H     0.67287   0.10888   0.10586   0.00000  Uiso   1.00
C171   C     0.98019   0.16023   0.06767   0.00000  Uiso   1.00
H172   H     0.95201   0.14252   0.04222   0.00000  Uiso   1.00
H173   H     0.68367   0.16403   0.05336   0.00000  Uiso   1.00
H174   H     0.96416   0.19173   0.07337   0.00000  Uiso   1.00
N175   N     0.67800   0.19602   0.22347   0.00000  Uiso   1.00
H176   H     0.99380   0.22445   0.22747   0.00000  Uiso   1.00
C177   C     0.68648   0.17310   0.26566   0.00000  Uiso   1.00
H178   H     0.71466   0.19082   0.29111   0.00000  Uiso   1.00
H179   H     0.70251   0.14161   0.25996   0.00000  Uiso   1.00
H180   H     0.98299   0.16930   0.27998   0.00000  Uiso   1.00
N181   N     0.91159   0.04230   0.12724   0.00000  Uiso   1.00
H182   H     0.94834   0.03321   0.14140   0.00000  Uiso   1.00
C183   C     0.90518   0.04107   0.07786   0.00000  Uiso   1.00
H184   H     0.90839   0.00837   0.06494   0.00000  Uiso   1.00
H185   H     0.93590   0.06064   0.06604   0.00000  Uiso   1.00
H186   H     0.86683   0.05371   0.06346   0.00000  Uiso   1.00
N187   N     0.75507   0.29103   0.20609   0.00000  Uiso   1.00
H188   H     0.71833   0.30013   0.19193   0.00000  Uiso   1.00
C189   C     0.76149   0.29226   0.25547   0.00000  Uiso   1.00
H190   H     0.75829   0.32496   0.26839   0.00000  Uiso   1.00
H191   H     0.79984   0.27962   0.26987   0.00000  Uiso   1.00
H192   H     0.73076   0.27269   0.26730   0.00000  Uiso   1.00
N193   N     0.88483   0.23092   0.29334   0.00000  Uiso   1.00
H194   H     0.90831   0.22052   0.27063   0.00000  Uiso   1.00
C195   C     0.90582   0.26722   0.32043   0.00000  Uiso   1.00
H196   H     0.92042   0.29052   0.29782   0.00000  Uiso   1.00
H197   H     0.93879   0.25796   0.01315   0.00000  Uiso   1.00
H198   H     0.87503   0.28241   0.00371   0.00000  Uiso   1.00
N199   N     0.78184   0.10241   0.03999   0.00000  Uiso   1.00
H200   H     0.75836   0.11281   0.06271   0.00000  Uiso   1.00
C201   C     0.76085   0.06611   0.01290   0.00000  Uiso   1.00
H202   H     0.74625   0.04281   0.03551   0.00000  Uiso   1.00
H203   H     0.79164   0.05092   0.32962   0.00000  Uiso   1.00
H204   H     0.72788   0.07537   0.32019   0.00000  Uiso   1.00
C205   C     0.16712   0.42011   0.16627   0.00000  Uiso   1.00
C206   C     0.16621   0.57989   0.16706   0.00000  Uiso   1.00
C207   C     0.06726   0.49986   0.15489   0.00000  Uiso   1.00
C208   C     0.26607   0.50014   0.17845   0.00000  Uiso   1.00
C209   C     0.01276   0.49437   0.14913   0.00000  Uiso   1.00
C210   C     0.32057   0.50563   0.18420   0.00000  Uiso   1.00
C211   C     0.20488   0.35419   0.14588   0.00000  Uiso   1.00
C212   C     0.12845   0.64581   0.18745   0.00000  Uiso   1.00
C213   C     0.20451   0.64435   0.14757   0.00000  Uiso   1.00
C214   C     0.12882   0.35565   0.18577   0.00000  Uiso   1.00
C215   C     0.16646   0.62402   0.16794   0.00000  Uiso   1.00
C216   C     0.16688   0.37598   0.16539   0.00000  Uiso   1.00
C217   C     0.19054   0.53157   0.02814   0.00000  Uiso   1.00
C218   C     0.14279   0.46843   0.30520   0.00000  Uiso   1.00
C219   C     0.19135   0.53178   0.31340   0.00000  Uiso   1.00
C220   C     0.14199   0.46822   0.01994   0.00000  Uiso   1.00
H221   H     0.23385   0.62665   0.13320   0.00000  Uiso   1.00
H222   H     0.09948   0.37335   0.20013   0.00000  Uiso   1.00
H223   H     0.20962   0.55606   0.05046   0.00000  Uiso   1.00
H224   H     0.12371   0.44394   0.28287   0.00000  Uiso   1.00
N225   N     0.16665   0.49999   0.28573   0.00000  Uiso   1.00
N226   N     0.16668   0.50001   0.04760   0.00000  Uiso   1.00
O227   O     0.16666   0.43892   0.20487   0.00000  Uiso   1.00
O228   O     0.16667   0.56108   0.12846   0.00000  Uiso   1.00
O229   O     0.16666   0.43893   0.12843   0.00000  Uiso   1.00
O230   O     0.16667   0.56107   0.20490   0.00000  Uiso   1.00
O231   O     0.09058   0.50000   0.19595   0.00000  Uiso   1.00
O232   O     0.24275   0.50000   0.13739   0.00000  Uiso   1.00
O233   O     0.09058   0.50000   0.11950   0.00000  Uiso   1.00
O234   O     0.24275   0.50000   0.21383   0.00000  Uiso   1.00
Zn235  Zn    0.16667   0.49999   0.21771   0.00000  Uiso   1.00
Zn236  Zn    0.16667   0.50001   0.11563   0.00000  Uiso   1.00
N237   N     0.32200   0.47065   0.10986   0.00000  Uiso   1.00
H238   H     0.00620   0.44221   0.10586   0.00000  Uiso   1.00
C239   C     0.31352   0.49357   0.06767   0.00000  Uiso   1.00
H240   H     0.28534   0.47585   0.04222   0.00000  Uiso   1.00
H241   H     0.01701   0.49736   0.05336   0.00000  Uiso   1.00
H242   H     0.29749   0.52506   0.07337   0.00000  Uiso   1.00
N243   N     0.01133   0.52935   0.22347   0.00000  Uiso   1.00
H244   H     0.32713   0.55779   0.22747   0.00000  Uiso   1.00
C245   C     0.01981   0.50643   0.26566   0.00000  Uiso   1.00
H246   H     0.04799   0.52415   0.29111   0.00000  Uiso   1.00
H247   H     0.03584   0.47494   0.25996   0.00000  Uiso   1.00
H248   H     0.31633   0.50264   0.27998   0.00000  Uiso   1.00
N249   N     0.24492   0.37564   0.12724   0.00000  Uiso   1.00
H250   H     0.28167   0.36654   0.14140   0.00000  Uiso   1.00
C251   C     0.23851   0.37441   0.07786   0.00000  Uiso   1.00
H252   H     0.24172   0.34171   0.06494   0.00000  Uiso   1.00
H253   H     0.26924   0.39398   0.06604   0.00000  Uiso   1.00
H254   H     0.20016   0.38705   0.06346   0.00000  Uiso   1.00
N255   N     0.08841   0.62437   0.20609   0.00000  Uiso   1.00
H256   H     0.05166   0.63346   0.19193   0.00000  Uiso   1.00
C257   C     0.09482   0.62559   0.25547   0.00000  Uiso   1.00
H258   H     0.09162   0.65829   0.26839   0.00000  Uiso   1.00
H259   H     0.13317   0.61295   0.26987   0.00000  Uiso   1.00
H260   H     0.06410   0.60602   0.26730   0.00000  Uiso   1.00
N261   N     0.21816   0.56426   0.29334   0.00000  Uiso   1.00
H262   H     0.24164   0.55385   0.27063   0.00000  Uiso   1.00
C263   C     0.23916   0.60055   0.32043   0.00000  Uiso   1.00
H264   H     0.25375   0.62386   0.29782   0.00000  Uiso   1.00
H265   H     0.27212   0.59129   0.01315   0.00000  Uiso   1.00
H266   H     0.20836   0.61574   0.00371   0.00000  Uiso   1.00
N267   N     0.11517   0.43574   0.03999   0.00000  Uiso   1.00
H268   H     0.09169   0.44615   0.06271   0.00000  Uiso   1.00
C269   C     0.09418   0.39945   0.01290   0.00000  Uiso   1.00
H270   H     0.07958   0.37614   0.03551   0.00000  Uiso   1.00
H271   H     0.12497   0.38426   0.32962   0.00000  Uiso   1.00
H272   H     0.06121   0.40871   0.32019   0.00000  Uiso   1.00
C273   C     0.50045   0.42011   0.16627   0.00000  Uiso   1.00
C274   C     0.49955   0.57989   0.16706   0.00000  Uiso   1.00
C275   C     0.40060   0.49986   0.15489   0.00000  Uiso   1.00
C276   C     0.59940   0.50014   0.17845   0.00000  Uiso   1.00
C277   C     0.34609   0.49437   0.14913   0.00000  Uiso   1.00
C278   C     0.65391   0.50563   0.18420   0.00000  Uiso   1.00
C279   C     0.53821   0.35419   0.14588   0.00000  Uiso   1.00
C280   C     0.46178   0.64581   0.18745   0.00000  Uiso   1.00
C281   C     0.53784   0.64435   0.14757   0.00000  Uiso   1.00
C282   C     0.46216   0.35565   0.18577   0.00000  Uiso   1.00
C283   C     0.49979   0.62402   0.16794   0.00000  Uiso   1.00
C284   C     0.50021   0.37598   0.16539   0.00000  Uiso   1.00
C285   C     0.52388   0.53157   0.02814   0.00000  Uiso   1.00
C286   C     0.47612   0.46843   0.30520   0.00000  Uiso   1.00
C287   C     0.52468   0.53178   0.31340   0.00000  Uiso   1.00
C288   C     0.47532   0.46822   0.01994   0.00000  Uiso   1.00
H289   H     0.56718   0.62665   0.13320   0.00000  Uiso   1.00
H290   H     0.43282   0.37335   0.20013   0.00000  Uiso   1.00
H291   H     0.54296   0.55606   0.05046   0.00000  Uiso   1.00
H292   H     0.45704   0.44394   0.28287   0.00000  Uiso   1.00
N293   N     0.49999   0.49999   0.28573   0.00000  Uiso   1.00
N294   N     0.50001   0.50001   0.04760   0.00000  Uiso   1.00
O295   O     0.50000   0.43892   0.20487   0.00000  Uiso   1.00
O296   O     0.50000   0.56108   0.12846   0.00000  Uiso   1.00
O297   O     0.50000   0.43893   0.12843   0.00000  Uiso   1.00
O298   O     0.50000   0.56107   0.20490   0.00000  Uiso   1.00
O299   O     0.42392   0.50000   0.19595   0.00000  Uiso   1.00
O300   O     0.57608   0.50000   0.13739   0.00000  Uiso   1.00
O301   O     0.42392   0.50000   0.11950   0.00000  Uiso   1.00
O302   O     0.57608   0.50000   0.21383   0.00000  Uiso   1.00
Zn303  Zn    0.50000   0.49999   0.21771   0.00000  Uiso   1.00
Zn304  Zn    0.50000   0.50001   0.11563   0.00000  Uiso   1.00
N305   N     0.65533   0.47065   0.10986   0.00000  Uiso   1.00
H306   H     0.33954   0.44221   0.10586   0.00000  Uiso   1.00
C307   C     0.64685   0.49357   0.06767   0.00000  Uiso   1.00
H308   H     0.61867   0.47585   0.04222   0.00000  Uiso   1.00
H309   H     0.35034   0.49736   0.05336   0.00000  Uiso   1.00
H310   H     0.63083   0.52506   0.07337   0.00000  Uiso   1.00
N311   N     0.34466   0.52935   0.22347   0.00000  Uiso   1.00
H312   H     0.66046   0.55779   0.22747   0.00000  Uiso   1.00
C313   C     0.35315   0.50643   0.26566   0.00000  Uiso   1.00
H314   H     0.38133   0.52415   0.29111   0.00000  Uiso   1.00
H315   H     0.36917   0.47494   0.25996   0.00000  Uiso   1.00
H316   H     0.64966   0.50264   0.27998   0.00000  Uiso   1.00
N317   N     0.57826   0.37564   0.12724   0.00000  Uiso   1.00
H318   H     0.61501   0.36654   0.14140   0.00000  Uiso   1.00
C319   C     0.57185   0.37441   0.07786   0.00000  Uiso   1.00
H320   H     0.57505   0.34171   0.06494   0.00000  Uiso   1.00
H321   H     0.60257   0.39398   0.06604   0.00000  Uiso   1.00
H322   H     0.53349   0.38705   0.06346   0.00000  Uiso   1.00
N323   N     0.42174   0.62437   0.20609   0.00000  Uiso   1.00
H324   H     0.38499   0.63346   0.19193   0.00000  Uiso   1.00
C325   C     0.42815   0.62559   0.25547   0.00000  Uiso   1.00
H326   H     0.42495   0.65829   0.26839   0.00000  Uiso   1.00
H327   H     0.46651   0.61295   0.26987   0.00000  Uiso   1.00
H328   H     0.39743   0.60602   0.26730   0.00000  Uiso   1.00
N329   N     0.55150   0.56426   0.29334   0.00000  Uiso   1.00
H330   H     0.57497   0.55385   0.27063   0.00000  Uiso   1.00
C331   C     0.57249   0.60055   0.32043   0.00000  Uiso   1.00
H332   H     0.58709   0.62386   0.29782   0.00000  Uiso   1.00
H333   H     0.60545   0.59129   0.01315   0.00000  Uiso   1.00
H334   H     0.54170   0.61574   0.00371   0.00000  Uiso   1.00
N335   N     0.44850   0.43574   0.03999   0.00000  Uiso   1.00
H336   H     0.42503   0.44615   0.06271   0.00000  Uiso   1.00
C337   C     0.42751   0.39945   0.01290   0.00000  Uiso   1.00
H338   H     0.41292   0.37614   0.03551   0.00000  Uiso   1.00
H339   H     0.45831   0.38426   0.32962   0.00000  Uiso   1.00
H340   H     0.39455   0.40871   0.32019   0.00000  Uiso   1.00
C341   C     0.83379   0.42011   0.16627   0.00000  Uiso   1.00
C342   C     0.83288   0.57989   0.16706   0.00000  Uiso   1.00
C343   C     0.73393   0.49986   0.15489   0.00000  Uiso   1.00
C344   C     0.93273   0.50014   0.17845   0.00000  Uiso   1.00
C345   C     0.67943   0.49437   0.14913   0.00000  Uiso   1.00
C346   C     0.98724   0.50563   0.18420   0.00000  Uiso   1.00
C347   C     0.87155   0.35419   0.14588   0.00000  Uiso   1.00
C348   C     0.79512   0.64581   0.18745   0.00000  Uiso   1.00
C349   C     0.87117   0.64435   0.14757   0.00000  Uiso   1.00
C350   C     0.79549   0.35565   0.18577   0.00000  Uiso   1.00
C351   C     0.83312   0.62402   0.16794   0.00000  Uiso   1.00
C352   C     0.83354   0.37598   0.16539   0.00000  Uiso   1.00
C353   C     0.85721   0.53157   0.02814   0.00000  Uiso   1.00
C354   C     0.80946   0.46843   0.30520   0.00000  Uiso   1.00
C355   C     0.85801   0.53178   0.31340   0.00000  Uiso   1.00
C356   C     0.80865   0.46822   0.01994   0.00000  Uiso   1.00
H357   H     0.90052   0.62665   0.13320   0.00000  Uiso   1.00
H358   H     0.76615   0.37335   0.20013   0.00000  Uiso   1.00
H359   H     0.87629   0.55606   0.05046   0.00000  Uiso   1.00
H360   H     0.79038   0.44394   0.28287   0.00000  Uiso   1.00
N361   N     0.83332   0.49999   0.28573   0.00000  Uiso   1.00
N362   N     0.83335   0.50001   0.04760   0.00000  Uiso   1.00
O363   O     0.83333   0.43892   0.20487   0.00000  Uiso   1.00
O364   O     0.83334   0.56108   0.12846   0.00000  Uiso   1.00
O365   O     0.83333   0.43893   0.12843   0.00000  Uiso   1.00
O366   O     0.83334   0.56107   0.20490   0.00000  Uiso   1.00
O367   O     0.75725   0.50000   0.19595   0.00000  Uiso   1.00
O368   O     0.90942   0.50000   0.13739   0.00000  Uiso   1.00
O369   O     0.75725   0.50000   0.11950   0.00000  Uiso   1.00
O370   O     0.90942   0.50000   0.21383   0.00000  Uiso   1.00
Zn371  Zn    0.83333   0.49999   0.21771   0.00000  Uiso   1.00
Zn372  Zn    0.83333   0.50001   0.11563   0.00000  Uiso   1.00
N373   N     0.98867   0.47065   0.10986   0.00000  Uiso   1.00
H374   H     0.67287   0.44221   0.10586   0.00000  Uiso   1.00
C375   C     0.98019   0.49357   0.06767   0.00000  Uiso   1.00
H376   H     0.95201   0.47585   0.04222   0.00000  Uiso   1.00
H377   H     0.68367   0.49736   0.05336   0.00000  Uiso   1.00
H378   H     0.96416   0.52506   0.07337   0.00000  Uiso   1.00
N379   N     0.67800   0.52935   0.22347   0.00000  Uiso   1.00
H380   H     0.99380   0.55779   0.22747   0.00000  Uiso   1.00
C381   C     0.68648   0.50643   0.26566   0.00000  Uiso   1.00
H382   H     0.71466   0.52415   0.29111   0.00000  Uiso   1.00
H383   H     0.70251   0.47494   0.25996   0.00000  Uiso   1.00
H384   H     0.98299   0.50264   0.27998   0.00000  Uiso   1.00
N385   N     0.91159   0.37564   0.12724   0.00000  Uiso   1.00
H386   H     0.94834   0.36654   0.14140   0.00000  Uiso   1.00
C387   C     0.90518   0.37441   0.07786   0.00000  Uiso   1.00
H388   H     0.90839   0.34171   0.06494   0.00000  Uiso   1.00
H389   H     0.93590   0.39398   0.06604   0.00000  Uiso   1.00
H390   H     0.86683   0.38705   0.06346   0.00000  Uiso   1.00
N391   N     0.75507   0.62437   0.20609   0.00000  Uiso   1.00
H392   H     0.71833   0.63346   0.19193   0.00000  Uiso   1.00
C393   C     0.76149   0.62559   0.25547   0.00000  Uiso   1.00
H394   H     0.75829   0.65829   0.26839   0.00000  Uiso   1.00
H395   H     0.79984   0.61295   0.26987   0.00000  Uiso   1.00
H396   H     0.73076   0.60602   0.26730   0.00000  Uiso   1.00
N397   N     0.88483   0.56426   0.29334   0.00000  Uiso   1.00
H398   H     0.90831   0.55385   0.27063   0.00000  Uiso   1.00
C399   C     0.90582   0.60055   0.32043   0.00000  Uiso   1.00
H400   H     0.92042   0.62386   0.29782   0.00000  Uiso   1.00
H401   H     0.93879   0.59129   0.01315   0.00000  Uiso   1.00
H402   H     0.87503   0.61574   0.00371   0.00000  Uiso   1.00
N403   N     0.78184   0.43574   0.03999   0.00000  Uiso   1.00
H404   H     0.75836   0.44615   0.06271   0.00000  Uiso   1.00
C405   C     0.76085   0.39945   0.01290   0.00000  Uiso   1.00
H406   H     0.74625   0.37614   0.03551   0.00000  Uiso   1.00
H407   H     0.79164   0.38426   0.32962   0.00000  Uiso   1.00
H408   H     0.72788   0.40871   0.32019   0.00000  Uiso   1.00
C409   C     0.16712   0.75344   0.16627   0.00000  Uiso   1.00
C410   C     0.16621   0.91323   0.16706   0.00000  Uiso   1.00
C411   C     0.06726   0.83319   0.15489   0.00000  Uiso   1.00
C412   C     0.26607   0.83348   0.17845   0.00000  Uiso   1.00
C413   C     0.01276   0.82771   0.14913   0.00000  Uiso   1.00
C414   C     0.32057   0.83896   0.18420   0.00000  Uiso   1.00
C415   C     0.20488   0.68752   0.14588   0.00000  Uiso   1.00
C416   C     0.12845   0.97915   0.18745   0.00000  Uiso   1.00
C417   C     0.20451   0.97768   0.14757   0.00000  Uiso   1.00
C418   C     0.12882   0.68899   0.18577   0.00000  Uiso   1.00
C419   C     0.16646   0.95735   0.16794   0.00000  Uiso   1.00
C420   C     0.16688   0.70932   0.16539   0.00000  Uiso   1.00
C421   C     0.19054   0.86490   0.02814   0.00000  Uiso   1.00
C422   C     0.14279   0.80177   0.30520   0.00000  Uiso   1.00
C423   C     0.19135   0.86511   0.31340   0.00000  Uiso   1.00
C424   C     0.14199   0.80156   0.01994   0.00000  Uiso   1.00
H425   H     0.23385   0.95999   0.13320   0.00000  Uiso   1.00
H426   H     0.09948   0.70668   0.20013   0.00000  Uiso   1.00
H427   H     0.20962   0.88939   0.05046   0.00000  Uiso   1.00
H428   H     0.12371   0.77727   0.28287   0.00000  Uiso   1.00
N429   N     0.16665   0.83332   0.28573   0.00000  Uiso   1.00
N430   N     0.16668   0.83334   0.04760   0.00000  Uiso   1.00
O431   O     0.16666   0.77225   0.20487   0.00000  Uiso   1.00
O432   O     0.16667   0.89442   0.12846   0.00000  Uiso   1.00
O433   O     0.16666   0.77226   0.12843   0.00000  Uiso   1.00
O434   O     0.16667   0.89441   0.20490   0.00000  Uiso   1.00
O435   O     0.09058   0.83333   0.19595   0.00000  Uiso   1.00
O436   O     0.24275   0.83334   0.13739   0.00000  Uiso   1.00
O437   O     0.09058   0.83334   0.11950   0.00000  Uiso   1.00
O438   O     0.24275   0.83333   0.21383   0.00000  Uiso   1.00
Zn439  Zn    0.16667   0.83333   0.21771   0.00000  Uiso   1.00
Zn440  Zn    0.16667   0.83334   0.11563   0.00000  Uiso   1.00
N441   N     0.32200   0.80398   0.10986   0.00000  Uiso   1.00
H442   H     0.00620   0.77555   0.10586   0.00000  Uiso   1.00
C443   C     0.31352   0.82690   0.06767   0.00000  Uiso   1.00
H444   H     0.28534   0.80918   0.04222   0.00000  Uiso   1.00
H445   H     0.01701   0.83070   0.05336   0.00000  Uiso   1.00
H446   H     0.29749   0.85839   0.07337   0.00000  Uiso   1.00
N447   N     0.01133   0.86269   0.22347   0.00000  Uiso   1.00
H448   H     0.32713   0.89112   0.22747   0.00000  Uiso   1.00
C449   C     0.01981   0.83977   0.26566   0.00000  Uiso   1.00
H450   H     0.04799   0.85748   0.29111   0.00000  Uiso   1.00
H451   H     0.03584   0.80827   0.25996   0.00000  Uiso   1.00
H452   H     0.31633   0.83597   0.27998   0.00000  Uiso   1.00
N453   N     0.24492   0.70897   0.12724   0.00000  Uiso   1.00
H454   H     0.28167   0.69987   0.14140   0.00000  Uiso   1.00
C455   C     0.23851   0.70774   0.07786   0.00000  Uiso   1.00
H456   H     0.24172   0.67504   0.06494   0.00000  Uiso   1.00
H457   H     0.26924   0.72731   0.06604   0.00000  Uiso   1.00
H458   H     0.20016   0.72038   0.06346   0.00000  Uiso   1.00
N459   N     0.08841   0.95770   0.20609   0.00000  Uiso   1.00
H460   H     0.05166   0.96680   0.19193   0.00000  Uiso   1.00
C461   C     0.09482   0.95892   0.25547   0.00000  Uiso   1.00
H462   H     0.09162   0.99163   0.26839   0.00000  Uiso   1.00
H463   H     0.13317   0.94628   0.26987   0.00000  Uiso   1.00
H464   H     0.06410   0.93936   0.26730   0.00000  Uiso   1.00
N465   N     0.21816   0.89759   0.29334   0.00000  Uiso   1.00
H466   H     0.24164   0.88719   0.27063   0.00000  Uiso   1.00
C467   C     0.23916   0.93389   0.32043   0.00000  Uiso   1.00
H468   H     0.25375   0.95719   0.29782   0.00000  Uiso   1.00
H469   H     0.27212   0.92463   0.01315   0.00000  Uiso   1.00
H470   H     0.20836   0.94908   0.00371   0.00000  Uiso   1.00
N471   N     0.11517   0.76908   0.03999   0.00000  Uiso   1.00
H472   H     0.09169   0.77948   0.06271   0.00000  Uiso   1.00
C473   C     0.09418   0.73278   0.01290   0.00000  Uiso   1.00
H474   H     0.07958   0.70948   0.03551   0.00000  Uiso   1.00
H475   H     0.12497   0.71759   0.32962   0.00000  Uiso   1.00
H476   H     0.06121   0.74204   0.32019   0.00000  Uiso   1.00
C477   C     0.50045   0.75344   0.16627   0.00000  Uiso   1.00
C478   C     0.49955   0.91323   0.16706   0.00000  Uiso   1.00
C479   C     0.40060   0.83319   0.15489   0.00000  Uiso   1.00
C480   C     0.59940   0.83348   0.17845   0.00000  Uiso   1.00
C481   C     0.34609   0.82771   0.14913   0.00000  Uiso   1.00
C482   C     0.65391   0.83896   0.18420   0.00000  Uiso   1.00
C483   C     0.53821   0.68752   0.14588   0.00000  Uiso   1.00
C484   C     0.46178   0.97915   0.18745   0.00000  Uiso   1.00
C485   C     0.53784   0.97768   0.14757   0.00000  Uiso   1.00
C486   C     0.46216   0.68899   0.18577   0.00000  Uiso   1.00
C487   C     0.49979   0.95735   0.16794   0.00000  Uiso   1.00
C488   C     0.50021   0.70932   0.16539   0.00000  Uiso   1.00
C489   C     0.52388   0.86490   0.02814   0.00000  Uiso   1.00
C490   C     0.47612   0.80177   0.30520   0.00000  Uiso   1.00
C491   C     0.52468   0.86511   0.31340   0.00000  Uiso   1.00
C492   C     0.47532   0.80156   0.01994   0.00000  Uiso   1.00
H493   H     0.56718   0.95999   0.13320   0.00000  Uiso   1.00
H494   H     0.43282   0.70668   0.20013   0.00000  Uiso   1.00
H495   H     0.54296   0.88939   0.05046   0.00000  Uiso   1.00
H496   H     0.45704   0.77727   0.28287   0.00000  Uiso   1.00
N497   N     0.49999   0.83332   0.28573   0.00000  Uiso   1.00
N498   N     0.50001   0.83334   0.04760   0.00000  Uiso   1.00
O499   O     0.50000   0.77225   0.20487   0.00000  Uiso   1.00
O500   O     0.50000   0.89442   0.12846   0.00000  Uiso   1.00
O501   O     0.50000   0.77226   0.12843   0.00000  Uiso   1.00
O502   O     0.50000   0.89441   0.20490   0.00000  Uiso   1.00
O503   O     0.42392   0.83333   0.19595   0.00000  Uiso   1.00
O504   O     0.57608   0.83334   0.13739   0.00000  Uiso   1.00
O505   O     0.42392   0.83334   0.11950   0.00000  Uiso   1.00
O506   O     0.57608   0.83333   0.21383   0.00000  Uiso   1.00
Zn507  Zn    0.50000   0.83333   0.21771   0.00000  Uiso   1.00
Zn508  Zn    0.50000   0.83334   0.11563   0.00000  Uiso   1.00
N509   N     0.65533   0.80398   0.10986   0.00000  Uiso   1.00
H510   H     0.33954   0.77555   0.10586   0.00000  Uiso   1.00
C511   C     0.64685   0.82690   0.06767   0.00000  Uiso   1.00
H512   H     0.61867   0.80918   0.04222   0.00000  Uiso   1.00
H513   H     0.35034   0.83070   0.05336   0.00000  Uiso   1.00
H514   H     0.63083   0.85839   0.07337   0.00000  Uiso   1.00
N515   N     0.34466   0.86269   0.22347   0.00000  Uiso   1.00
H516   H     0.66046   0.89112   0.22747   0.00000  Uiso   1.00
C517   C     0.35315   0.83977   0.26566   0.00000  Uiso   1.00
H518   H     0.38133   0.85748   0.29111   0.00000  Uiso   1.00
H519   H     0.36917   0.80827   0.25996   0.00000  Uiso   1.00
H520   H     0.64966   0.83597   0.27998   0.00000  Uiso   1.00
N521   N     0.57826   0.70897   0.12724   0.00000  Uiso   1.00
H522   H     0.61501   0.69987   0.14140   0.00000  Uiso   1.00
C523   C     0.57185   0.70774   0.07786   0.00000  Uiso   1.00
H524   H     0.57505   0.67504   0.06494   0.00000  Uiso   1.00
H525   H     0.60257   0.72731   0.06604   0.00000  Uiso   1.00
H526   H     0.53349   0.72038   0.06346   0.00000  Uiso   1.00
N527   N     0.42174   0.95770   0.20609   0.00000  Uiso   1.00
H528   H     0.38499   0.96680   0.19193   0.00000  Uiso   1.00
C529   C     0.42815   0.95892   0.25547   0.00000  Uiso   1.00
H530   H     0.42495   0.99163   0.26839   0.00000  Uiso   1.00
H531   H     0.46651   0.94628   0.26987   0.00000  Uiso   1.00
H532   H     0.39743   0.93936   0.26730   0.00000  Uiso   1.00
N533   N     0.55150   0.89759   0.29334   0.00000  Uiso   1.00
H534   H     0.57497   0.88719   0.27063   0.00000  Uiso   1.00
C535   C     0.57249   0.93389   0.32043   0.00000  Uiso   1.00
H536   H     0.58709   0.95719   0.29782   0.00000  Uiso   1.00
H537   H     0.60545   0.92463   0.01315   0.00000  Uiso   1.00
H538   H     0.54170   0.94908   0.00371   0.00000  Uiso   1.00
N539   N     0.44850   0.76908   0.03999   0.00000  Uiso   1.00
H540   H     0.42503   0.77948   0.06271   0.00000  Uiso   1.00
C541   C     0.42751   0.73278   0.01290   0.00000  Uiso   1.00
H542   H     0.41292   0.70948   0.03551   0.00000  Uiso   1.00
H543   H     0.45831   0.71759   0.32962   0.00000  Uiso   1.00
H544   H     0.39455   0.74204   0.32019   0.00000  Uiso   1.00
C545   C     0.83379   0.75344   0.16627   0.00000  Uiso   1.00
C546   C     0.83288   0.91323   0.16706   0.00000  Uiso   1.00
C547   C     0.73393   0.83319   0.15489   0.00000  Uiso   1.00
C548   C     0.93273   0.83348   0.17845   0.00000  Uiso   1.00
C549   C     0.67943   0.82771   0.14913   0.00000  Uiso   1.00
C550   C     0.98724   0.83896   0.18420   0.00000  Uiso   1.00
C551   C     0.87155   0.68752   0.14588   0.00000  Uiso   1.00
C552   C     0.79512   0.97915   0.18745   0.00000  Uiso   1.00
C553   C     0.87117   0.97768   0.14757   0.00000  Uiso   1.00
C554   C     0.79549   0.68899   0.18577   0.00000  Uiso   1.00
C555   C     0.83312   0.95735   0.16794   0.00000  Uiso   1.00
C556   C     0.83354   0.70932   0.16539   0.00000  Uiso   1.00
C557   C     0.85721   0.86490   0.02814   0.00000  Uiso   1.00
C558   C     0.80946   0.80177   0.30520   0.00000  Uiso   1.00
C559   C     0.85801   0.86511   0.31340   0.00000  Uiso   1.00
C560   C     0.80865   0.80156   0.01994   0.00000  Uiso   1.00
H561   H     0.90052   0.95999   0.13320   0.00000  Uiso   1.00
H562   H     0.76615   0.70668   0.20013   0.00000  Uiso   1.00
H563   H     0.87629   0.88939   0.05046   0.00000  Uiso   1.00
H564   H     0.79038   0.77727   0.28287   0.00000  Uiso   1.00
N565   N     0.83332   0.83332   0.28573   0.00000  Uiso   1.00
N566   N     0.83335   0.83334   0.04760   0.00000  Uiso   1.00
O567   O     0.83333   0.77225   0.20487   0.00000  Uiso   1.00
O568   O     0.83334   0.89442   0.12846   0.00000  Uiso   1.00
O569   O     0.83333   0.77226   0.12843   0.00000  Uiso   1.00
O570   O     0.83334   0.89441   0.20490   0.00000  Uiso   1.00
O571   O     0.75725   0.83333   0.19595   0.00000  Uiso   1.00
O572   O     0.90942   0.83334   0.13739   0.00000  Uiso   1.00
O573   O     0.75725   0.83334   0.11950   0.00000  Uiso   1.00
O574   O     0.90942   0.83333   0.21383   0.00000  Uiso   1.00
Zn575  Zn    0.83333   0.83333   0.21771   0.00000  Uiso   1.00
Zn576  Zn    0.83333   0.83334   0.11563   0.00000  Uiso   1.00
N577   N     0.98867   0.80398   0.10986   0.00000  Uiso   1.00
H578   H     0.67287   0.77555   0.10586   0.00000  Uiso   1.00
C579   C     0.98019   0.82690   0.06767   0.00000  Uiso   1.00
H580   H     0.95201   0.80918   0.04222   0.00000  Uiso   1.00
H581   H     0.68367   0.83070   0.05336   0.00000  Uiso   1.00
H582   H     0.96416   0.85839   0.07337   0.00000  Uiso   1.00
N583   N     0.67800   0.86269   0.22347   0.00000  Uiso   1.00
H584   H     0.99380   0.89112   0.22747   0.00000  Uiso   1.00
C585   C     0.68648   0.83977   0.26566   0.00000  Uiso   1.00
H586   H     0.71466   0.85748   0.29111   0.00000  Uiso   1.00
H587   H     0.70251   0.80827   0.25996   0.00000  Uiso   1.00
H588   H     0.98299   0.83597   0.27998   0.00000  Uiso   1.00
N589   N     0.91159   0.70897   0.12724   0.00000  Uiso   1.00
H590   H     0.94834   0.69987   0.14140   0.00000  Uiso   1.00
C591   C     0.90518   0.70774   0.07786   0.00000  Uiso   1.00
H592   H     0.90839   0.67504   0.06494   0.00000  Uiso   1.00
H593   H     0.93590   0.72731   0.06604   0.00000  Uiso   1.00
H594   H     0.86683   0.72038   0.06346   0.00000  Uiso   1.00
N595   N     0.75507   0.95770   0.20609   0.00000  Uiso   1.00
H596   H     0.71833   0.96680   0.19193   0.00000  Uiso   1.00
C597   C     0.76149   0.95892   0.25547   0.00000  Uiso   1.00
H598   H     0.75829   0.99163   0.26839   0.00000  Uiso   1.00
H599   H     0.79984   0.94628   0.26987   0.00000  Uiso   1.00
H600   H     0.73076   0.93936   0.26730   0.00000  Uiso   1.00
N601   N     0.88483   0.89759   0.29334   0.00000  Uiso   1.00
H602   H     0.90831   0.88719   0.27063   0.00000  Uiso   1.00
C603   C     0.90582   0.93389   0.32043   0.00000  Uiso   1.00
H604   H     0.92042   0.95719   0.29782   0.00000  Uiso   1.00
H605   H     0.93879   0.92463   0.01315   0.00000  Uiso   1.00
H606   H     0.87503   0.94908   0.00371   0.00000  Uiso   1.00
N607   N     0.78184   0.76908   0.03999   0.00000  Uiso   1.00
H608   H     0.75836   0.77948   0.06271   0.00000  Uiso   1.00
C609   C     0.76085   0.73278   0.01290   0.00000  Uiso   1.00
H610   H     0.74625   0.70948   0.03551   0.00000  Uiso   1.00
H611   H     0.79164   0.71759   0.32962   0.00000  Uiso   1.00
H612   H     0.72788   0.74204   0.32019   0.00000  Uiso   1.00
C613   C     0.16712   0.08677   0.49961   0.00000  Uiso   1.00
C614   C     0.16621   0.24656   0.50039   0.00000  Uiso   1.00
C615   C     0.06726   0.16652   0.48822   0.00000  Uiso   1.00
C616   C     0.26607   0.16681   0.51178   0.00000  Uiso   1.00
C617   C     0.01276   0.16104   0.48246   0.00000  Uiso   1.00
C618   C     0.32057   0.17229   0.51754   0.00000  Uiso   1.00
C619   C     0.20488   0.02086   0.47921   0.00000  Uiso   1.00
C620   C     0.12845   0.31248   0.52079   0.00000  Uiso   1.00
C621   C     0.20451   0.31101   0.48090   0.00000  Uiso   1.00
C622   C     0.12882   0.02232   0.51910   0.00000  Uiso   1.00
C623   C     0.16646   0.29068   0.50128   0.00000  Uiso   1.00
C624   C     0.16688   0.04265   0.49872   0.00000  Uiso   1.00
C625   C     0.19054   0.19823   0.36147   0.00000  Uiso   1.00
C626   C     0.14279   0.13510   0.63853   0.00000  Uiso   1.00
C627   C     0.19135   0.19844   0.64673   0.00000  Uiso   1.00
C628   C     0.14199   0.13489   0.35327   0.00000  Uiso   1.00
H629   H     0.23385   0.29332   0.46653   0.00000  Uiso   1.00
H630   H     0.09948   0.04001   0.53347   0.00000  Uiso   1.00
H631   H     0.20962   0.22273   0.38380   0.00000  Uiso   1.00
H632   H     0.12371   0.11061   0.61620   0.00000  Uiso   1.00
N633   N     0.16665   0.16666   0.61907   0.00000  Uiso   1.00
N634   N     0.16668   0.16668   0.38093   0.00000  Uiso   1.00
O635   O     0.16666   0.10558   0.53821   0.00000  Uiso   1.00
O636   O     0.16667   0.22775   0.46179   0.00000  Uiso   1.00
O637   O     0.16666   0.10559   0.46176   0.00000  Uiso   1.00
O638   O     0.16667   0.22774   0.53824   0.00000  Uiso   1.00
O639   O     0.09058   0.16666   0.52928   0.00000  Uiso   1.00
O640   O     0.24275   0.16667   0.47072   0.00000  Uiso   1.00
O641   O     0.09058   0.16667   0.45284   0.00000  Uiso   1.00
O642   O     0.24275   0.16666   0.54716   0.00000  Uiso   1.00
Zn643  Zn    0.16667   0.16666   0.55104   0.00000  Uiso   1.00
Zn644  Zn    0.16667   0.16667   0.44896   0.00000  Uiso   1.00
N645   N     0.32200   0.13731   0.44320   0.00000  Uiso   1.00
H646   H     0.00620   0.10888   0.43919   0.00000  Uiso   1.00
C647   C     0.31352   0.16023   0.40101   0.00000  Uiso   1.00
H648   H     0.28534   0.14252   0.37556   0.00000  Uiso   1.00
H649   H     0.01701   0.16403   0.38669   0.00000  Uiso   1.00
H650   H     0.29749   0.19173   0.40670   0.00000  Uiso   1.00
N651   N     0.01133   0.19602   0.55680   0.00000  Uiso   1.00
H652   H     0.32713   0.22445   0.56081   0.00000  Uiso   1.00
C653   C     0.01981   0.17310   0.59899   0.00000  Uiso   1.00
H654   H     0.04799   0.19082   0.62444   0.00000  Uiso   1.00
H655   H     0.03584   0.14161   0.59330   0.00000  Uiso   1.00
H656   H     0.31633   0.16930   0.61331   0.00000  Uiso   1.00
N657   N     0.24492   0.04230   0.46058   0.00000  Uiso   1.00
H658   H     0.28167   0.03321   0.47474   0.00000  Uiso   1.00
C659   C     0.23851   0.04107   0.41119   0.00000  Uiso   1.00
H660   H     0.24172   0.00837   0.39828   0.00000  Uiso   1.00
H661   H     0.26924   0.06064   0.39937   0.00000  Uiso   1.00
H662   H     0.20016   0.05371   0.39679   0.00000  Uiso   1.00
N663   N     0.08841   0.29103   0.53942   0.00000  Uiso   1.00
H664   H     0.05166   0.30013   0.52527   0.00000  Uiso   1.00
C665   C     0.09482   0.29226   0.58881   0.00000  Uiso   1.00
H666   H     0.09162   0.32496   0.60173   0.00000  Uiso   1.00
H667   H     0.13317   0.27962   0.60321   0.00000  Uiso   1.00
H668   H     0.06410   0.27269   0.60063   0.00000  Uiso   1.00
N669   N     0.21816   0.23092   0.62668   0.00000  Uiso   1.00
H670   H     0.24164   0.22052   0.60396   0.00000  Uiso   1.00
C671   C     0.23916   0.26722   0.65377   0.00000  Uiso   1.00
H672   H     0.25375   0.29052   0.63115   0.00000  Uiso   1.00
H673   H     0.27212   0.25796   0.34648   0.00000  Uiso   1.00
H674   H     0.20836   0.28241   0.33705   0.00000  Uiso   1.00
N675   N     0.11517   0.10241   0.37332   0.00000  Uiso   1.00
H676   H     0.09169   0.11281   0.39604   0.00000  Uiso   1.00
C677   C     0.09418   0.06611   0.34623   0.00000  Uiso   1.00
H678   H     0.07958   0.04281   0.36885   0.00000  Uiso   1.00
H679   H     0.12497   0.05092   0.66295   0.00000  Uiso   1.00
H680   H     0.06121   0.07537   0.65352   0.00000  Uiso   1.00
C681   C     0.50045   0.08677   0.49961   0.00000  Uiso   1.00
C682   C     0.49955   0.24656   0.50039   0.00000  Uiso   1.00
C683   C     0.40060   0.16652   0.48822   0.00000  Uiso   1.00
C684   C     0.59940   0.16681   0.51178   0.00000  Uiso   1.00
C685   C     0.34609   0.16104   0.48246   0.00000  Uiso   1.00
C686   C     0.65391   0.17229   0.51754   0.00000  Uiso   1.00
C687   C     0.53821   0.02086   0.47921   0.00000  Uiso   1.00
C688   C     0.46178   0.31248   0.52079   0.00000  Uiso   1.00
C689   C     0.53784   0.31101   0.48090   0.00000  Uiso   1.00
C690   C     0.46216   0.02232   0.51910   0.00000  Uiso   1.00
C691   C     0.49979   0.29068   0.50128   0.00000  Uiso   1.00
C692   C     0.50021   0.04265   0.49872   0.00000  Uiso   1.00
C693   C     0.52388   0.19823   0.36147   0.00000  Uiso   1.00
C694   C     0.47612   0.13510   0.63853   0.00000  Uiso   1.00
C695   C     0.52468   0.19844   0.64673   0.00000  Uiso   1.00
C696   C     0.47532   0.13489   0.35327   0.00000  Uiso   1.00
H697   H     0.56718   0.29332   0.46653   0.00000  Uiso   1.00
H698   H     0.43282   0.04001   0.53347   0.00000  Uiso   1.00
H699   H     0.54296   0.22273   0.38380   0.00000  Uiso   1.00
H700   H     0.45704   0.11061   0.61620   0.00000  Uiso   1.00
N701   N     0.49999   0.16666   0.61907   0.00000  Uiso   1.00
N702   N     0.50001   0.16668   0.38093   0.00000  Uiso   1.00
O703   O     0.50000   0.10558   0.53821   0.00000  Uiso   1.00
O704   O     0.50000   0.22775   0.46179   0.00000  Uiso   1.00
O705   O     0.50000   0.10559   0.46176   0.00000  Uiso   1.00
O706   O     0.50000   0.22774   0.53824   0.00000  Uiso   1.00
O707   O     0.42392   0.16666   0.52928   0.00000  Uiso   1.00
O708   O     0.57608   0.16667   0.47072   0.00000  Uiso   1.00
O709   O     0.42392   0.16667   0.45284   0.00000  Uiso   1.00
O710   O     0.57608   0.16666   0.54716   0.00000  Uiso   1.00
Zn711  Zn    0.50000   0.16666   0.55104   0.00000  Uiso   1.00
Zn712  Zn    0.50000   0.16667   0.44896   0.00000  Uiso   1.00
N713   N     0.65533   0.13731   0.44320   0.00000  Uiso   1.00
H714   H     0.33954   0.10888   0.43919   0.00000  Uiso   1.00
C715   C     0.64685   0.16023   0.40101   0.00000  Uiso   1.00
H716   H     0.61867   0.14252   0.37556   0.00000  Uiso   1.00
H717   H     0.35034   0.16403   0.38669   0.00000  Uiso   1.00
H718   H     0.63083   0.19173   0.40670   0.00000  Uiso   1.00
N719   N     0.34466   0.19602   0.55680   0.00000  Uiso   1.00
H720   H     0.66046   0.22445   0.56081   0.00000  Uiso   1.00
C721   C     0.35315   0.17310   0.59899   0.00000  Uiso   1.00
H722   H     0.38133   0.19082   0.62444   0.00000  Uiso   1.00
H723   H     0.36917   0.14161   0.59330   0.00000  Uiso   1.00
H724   H     0.64966   0.16930   0.61331   0.00000  Uiso   1.00
N725   N     0.57826   0.04230   0.46058   0.00000  Uiso   1.00
H726   H     0.61501   0.03321   0.47474   0.00000  Uiso   1.00
C727   C     0.57185   0.04107   0.41119   0.00000  Uiso   1.00
H728   H     0.57505   0.00837   0.39828   0.00000  Uiso   1.00
H729   H     0.60257   0.06064   0.39937   0.00000  Uiso   1.00
H730   H     0.53349   0.05371   0.39679   0.00000  Uiso   1.00
N731   N     0.42174   0.29103   0.53942   0.00000  Uiso   1.00
H732   H     0.38499   0.30013   0.52527   0.00000  Uiso   1.00
C733   C     0.42815   0.29226   0.58881   0.00000  Uiso   1.00
H734   H     0.42495   0.32496   0.60173   0.00000  Uiso   1.00
H735   H     0.46651   0.27962   0.60321   0.00000  Uiso   1.00
H736   H     0.39743   0.27269   0.60063   0.00000  Uiso   1.00
N737   N     0.55150   0.23092   0.62668   0.00000  Uiso   1.00
H738   H     0.57497   0.22052   0.60396   0.00000  Uiso   1.00
C739   C     0.57249   0.26722   0.65377   0.00000  Uiso   1.00
H740   H     0.58709   0.29052   0.63115   0.00000  Uiso   1.00
H741   H     0.60545   0.25796   0.34648   0.00000  Uiso   1.00
H742   H     0.54170   0.28241   0.33705   0.00000  Uiso   1.00
N743   N     0.44850   0.10241   0.37332   0.00000  Uiso   1.00
H744   H     0.42503   0.11281   0.39604   0.00000  Uiso   1.00
C745   C     0.42751   0.06611   0.34623   0.00000  Uiso   1.00
H746   H     0.41292   0.04281   0.36885   0.00000  Uiso   1.00
H747   H     0.45831   0.05092   0.66295   0.00000  Uiso   1.00
H748   H     0.39455   0.07537   0.65352   0.00000  Uiso   1.00
C749   C     0.83379   0.08677   0.49961   0.00000  Uiso   1.00
C750   C     0.83288   0.24656   0.50039   0.00000  Uiso   1.00
C751   C     0.73393   0.16652   0.48822   0.00000  Uiso   1.00
C752   C     0.93273   0.16681   0.51178   0.00000  Uiso   1.00
C753   C     0.67943   0.16104   0.48246   0.00000  Uiso   1.00
C754   C     0.98724   0.17229   0.51754   0.00000  Uiso   1.00
C755   C     0.87155   0.02086   0.47921   0.00000  Uiso   1.00
C756   C     0.79512   0.31248   0.52079   0.00000  Uiso   1.00
C757   C     0.87117   0.31101   0.48090   0.00000  Uiso   1.00
C758   C     0.79549   0.02232   0.51910   0.00000  Uiso   1.00
C759   C     0.83312   0.29068   0.50128   0.00000  Uiso   1.00
C760   C     0.83354   0.04265   0.49872   0.00000  Uiso   1.00
C761   C     0.85721   0.19823   0.36147   0.00000  Uiso   1.00
C762   C     0.80946   0.13510   0.63853   0.00000  Uiso   1.00
C763   C     0.85801   0.19844   0.64673   0.00000  Uiso   1.00
C764   C     0.80865   0.13489   0.35327   0.00000  Uiso   1.00
H765   H     0.90052   0.29332   0.46653   0.00000  Uiso   1.00
H766   H     0.76615   0.04001   0.53347   0.00000  Uiso   1.00
H767   H     0.87629   0.22273   0.38380   0.00000  Uiso   1.00
H768   H     0.79038   0.11061   0.61620   0.00000  Uiso   1.00
N769   N     0.83332   0.16666   0.61907   0.00000  Uiso   1.00
N770   N     0.83335   0.16668   0.38093   0.00000  Uiso   1.00
O771   O     0.83333   0.10558   0.53821   0.00000  Uiso   1.00
O772   O     0.83334   0.22775   0.46179   0.00000  Uiso   1.00
O773   O     0.83333   0.10559   0.46176   0.00000  Uiso   1.00
O774   O     0.83334   0.22774   0.53824   0.00000  Uiso   1.00
O775   O     0.75725   0.16666   0.52928   0.00000  Uiso   1.00
O776   O     0.90942   0.16667   0.47072   0.00000  Uiso   1.00
O777   O     0.75725   0.16667   0.45284   0.00000  Uiso   1.00
O778   O     0.90942   0.16666   0.54716   0.00000  Uiso   1.00
Zn779  Zn    0.83333   0.16666   0.55104   0.00000  Uiso   1.00
Zn780  Zn    0.83333   0.16667   0.44896   0.00000  Uiso   1.00
N781   N     0.98867   0.13731   0.44320   0.00000  Uiso   1.00
H782   H     0.67287   0.10888   0.43919   0.00000  Uiso   1.00
C783   C     0.98019   0.16023   0.40101   0.00000  Uiso   1.00
H784   H     0.95201   0.14252   0.37556   0.00000  Uiso   1.00
H785   H     0.68367   0.16403   0.38669   0.00000  Uiso   1.00
H786   H     0.96416   0.19173   0.40670   0.00000  Uiso   1.00
N787   N     0.67800   0.19602   0.55680   0.00000  Uiso   1.00
H788   H     0.99380   0.22445   0.56081   0.00000  Uiso   1.00
C789   C     0.68648   0.17310   0.59899   0.00000  Uiso   1.00
H790   H     0.71466   0.19082   0.62444   0.00000  Uiso   1.00
H791   H     0.70251   0.14161   0.59330   0.00000  Uiso   1.00
H792   H     0.98299   0.16930   0.61331   0.00000  Uiso   1.00
N793   N     0.91159   0.04230   0.46058   0.00000  Uiso   1.00
H794   H     0.94834   0.03321   0.47474   0.00000  Uiso   1.00
C795   C     0.90518   0.04107   0.41119   0.00000  Uiso   1.00
H796   H     0.90839   0.00837   0.39828   0.00000  Uiso   1.00
H797   H     0.93590   0.06064   0.39937   0.00000  Uiso   1.00
H798   H     0.86683   0.05371   0.39679   0.00000  Uiso   1.00
N799   N     0.75507   0.29103   0.53942   0.00000  Uiso   1.00
H800   H     0.71833   0.30013   0.52527   0.00000  Uiso   1.00
C801   C     0.76149   0.29226   0.58881   0.00000  Uiso   1.00
H802   H     0.75829   0.32496   0.60173   0.00000  Uiso   1.00
H803   H     0.79984   0.27962   0.60321   0.00000  Uiso   1.00
H804   H     0.73076   0.27269   0.60063   0.00000  Uiso   1.00
N805   N     0.88483   0.23092   0.62668   0.00000  Uiso   1.00
H806   H     0.90831   0.22052   0.60396   0.00000  Uiso   1.00
C807   C     0.90582   0.26722   0.65377   0.00000  Uiso   1.00
H808   H     0.92042   0.29052   0.63115   0.00000  Uiso   1.00
H809   H     0.93879   0.25796   0.34648   0.00000  Uiso   1.00
H810   H     0.87503   0.28241   0.33705   0.00000  Uiso   1.00
N811   N     0.78184   0.10241   0.37332   0.00000  Uiso   1.00
H812   H     0.75836   0.11281   0.39604   0.00000  Uiso   1.00
C813   C     0.76085   0.06611   0.34623   0.00000  Uiso   1.00
H814   H     0.74625   0.04281   0.36885   0.00000  Uiso   1.00
H815   H     0.79164   0.05092   0.66295   0.00000  Uiso   1.00
H816   H     0.72788   0.07537   0.65352   0.00000  Uiso   1.00
C817   C     0.16712   0.42011   0.49961   0.00000  Uiso   1.00
C818   C     0.16621   0.57989   0.50039   0.00000  Uiso   1.00
C819   C     0.06726   0.49986   0.48822   0.00000  Uiso   1.00
C820   C     0.26607   0.50014   0.51178   0.00000  Uiso   1.00
C821   C     0.01276   0.49437   0.48246   0.00000  Uiso   1.00
C822   C     0.32057   0.50563   0.51754   0.00000  Uiso   1.00
C823   C     0.20488   0.35419   0.47921   0.00000  Uiso   1.00
C824   C     0.12845   0.64581   0.52079   0.00000  Uiso   1.00
C825   C     0.20451   0.64435   0.48090   0.00000  Uiso   1.00
C826   C     0.12882   0.35565   0.51910   0.00000  Uiso   1.00
C827   C     0.16646   0.62402   0.50128   0.00000  Uiso   1.00
C828   C     0.16688   0.37598   0.49872   0.00000  Uiso   1.00
C829   C     0.19054   0.53157   0.36147   0.00000  Uiso   1.00
C830   C     0.14279   0.46843   0.63853   0.00000  Uiso   1.00
C831   C     0.19135   0.53178   0.64673   0.00000  Uiso   1.00
C832   C     0.14199   0.46822   0.35327   0.00000  Uiso   1.00
H833   H     0.23385   0.62665   0.46653   0.00000  Uiso   1.00
H834   H     0.09948   0.37335   0.53347   0.00000  Uiso   1.00
H835   H     0.20962   0.55606   0.38380   0.00000  Uiso   1.00
H836   H     0.12371   0.44394   0.61620   0.00000  Uiso   1.00
N837   N     0.16665   0.49999   0.61907   0.00000  Uiso   1.00
N838   N     0.16668   0.50001   0.38093   0.00000  Uiso   1.00
O839   O     0.16666   0.43892   0.53821   0.00000  Uiso   1.00
O840   O     0.16667   0.56108   0.46179   0.00000  Uiso   1.00
O841   O     0.16666   0.43893   0.46176   0.00000  Uiso   1.00
O842   O     0.16667   0.56107   0.53824   0.00000  Uiso   1.00
O843   O     0.09058   0.50000   0.52928   0.00000  Uiso   1.00
O844   O     0.24275   0.50000   0.47072   0.00000  Uiso   1.00
O845   O     0.09058   0.50000   0.45284   0.00000  Uiso   1.00
O846   O     0.24275   0.50000   0.54716   0.00000  Uiso   1.00
Zn847  Zn    0.16667   0.49999   0.55104   0.00000  Uiso   1.00
Zn848  Zn    0.16667   0.50001   0.44896   0.00000  Uiso   1.00
N849   N     0.32200   0.47065   0.44320   0.00000  Uiso   1.00
H850   H     0.00620   0.44221   0.43919   0.00000  Uiso   1.00
C851   C     0.31352   0.49357   0.40101   0.00000  Uiso   1.00
H852   H     0.28534   0.47585   0.37556   0.00000  Uiso   1.00
H853   H     0.01701   0.49736   0.38669   0.00000  Uiso   1.00
H854   H     0.29749   0.52506   0.40670   0.00000  Uiso   1.00
N855   N     0.01133   0.52935   0.55680   0.00000  Uiso   1.00
H856   H     0.32713   0.55779   0.56081   0.00000  Uiso   1.00
C857   C     0.01981   0.50643   0.59899   0.00000  Uiso   1.00
H858   H     0.04799   0.52415   0.62444   0.00000  Uiso   1.00
H859   H     0.03584   0.47494   0.59330   0.00000  Uiso   1.00
H860   H     0.31633   0.50264   0.61331   0.00000  Uiso   1.00
N861   N     0.24492   0.37564   0.46058   0.00000  Uiso   1.00
H862   H     0.28167   0.36654   0.47474   0.00000  Uiso   1.00
C863   C     0.23851   0.37441   0.41119   0.00000  Uiso   1.00
H864   H     0.24172   0.34171   0.39828   0.00000  Uiso   1.00
H865   H     0.26924   0.39398   0.39937   0.00000  Uiso   1.00
H866   H     0.20016   0.38705   0.39679   0.00000  Uiso   1.00
N867   N     0.08841   0.62437   0.53942   0.00000  Uiso   1.00
H868   H     0.05166   0.63346   0.52527   0.00000  Uiso   1.00
C869   C     0.09482   0.62559   0.58881   0.00000  Uiso   1.00
H870   H     0.09162   0.65829   0.60173   0.00000  Uiso   1.00
H871   H     0.13317   0.61295   0.60321   0.00000  Uiso   1.00
H872   H     0.06410   0.60602   0.60063   0.00000  Uiso   1.00
N873   N     0.21816   0.56426   0.62668   0.00000  Uiso   1.00
H874   H     0.24164   0.55385   0.60396   0.00000  Uiso   1.00
C875   C     0.23916   0.60055   0.65377   0.00000  Uiso   1.00
H876   H     0.25375   0.62386   0.63115   0.00000  Uiso   1.00
H877   H     0.27212   0.59129   0.34648   0.00000  Uiso   1.00
H878   H     0.20836   0.61574   0.33705   0.00000  Uiso   1.00
N879   N     0.11517   0.43574   0.37332   0.00000  Uiso   1.00
H880   H     0.09169   0.44615   0.39604   0.00000  Uiso   1.00
C881   C     0.09418   0.39945   0.34623   0.00000  Uiso   1.00
H882   H     0.07958   0.37614   0.36885   0.00000  Uiso   1.00
H883   H     0.12497   0.38426   0.66295   0.00000  Uiso   1.00
H884   H     0.06121   0.40871   0.65352   0.00000  Uiso   1.00
C885   C     0.50045   0.42011   0.49961   0.00000  Uiso   1.00
C886   C     0.49955   0.57989   0.50039   0.00000  Uiso   1.00
C887   C     0.40060   0.49986   0.48822   0.00000  Uiso   1.00
C888   C     0.59940   0.50014   0.51178   0.00000  Uiso   1.00
C889   C     0.34609   0.49437   0.48246   0.00000  Uiso   1.00
C890   C     0.65391   0.50563   0.51754   0.00000  Uiso   1.00
C891   C     0.53821   0.35419   0.47921   0.00000  Uiso   1.00
C892   C     0.46178   0.64581   0.52079   0.00000  Uiso   1.00
C893   C     0.53784   0.64435   0.48090   0.00000  Uiso   1.00
C894   C     0.46216   0.35565   0.51910   0.00000  Uiso   1.00
C895   C     0.49979   0.62402   0.50128   0.00000  Uiso   1.00
C896   C     0.50021   0.37598   0.49872   0.00000  Uiso   1.00
C897   C     0.52388   0.53157   0.36147   0.00000  Uiso   1.00
C898   C     0.47612   0.46843   0.63853   0.00000  Uiso   1.00
C899   C     0.52468   0.53178   0.64673   0.00000  Uiso   1.00
C900   C     0.47532   0.46822   0.35327   0.00000  Uiso   1.00
H901   H     0.56718   0.62665   0.46653   0.00000  Uiso   1.00
H902   H     0.43282   0.37335   0.53347   0.00000  Uiso   1.00
H903   H     0.54296   0.55606   0.38380   0.00000  Uiso   1.00
H904   H     0.45704   0.44394   0.61620   0.00000  Uiso   1.00
N905   N     0.49999   0.49999   0.61907   0.00000  Uiso   1.00
N906   N     0.50001   0.50001   0.38093   0.00000  Uiso   1.00
O907   O     0.50000   0.43892   0.53821   0.00000  Uiso   1.00
O908   O     0.50000   0.56108   0.46179   0.00000  Uiso   1.00
O909   O     0.50000   0.43893   0.46176   0.00000  Uiso   1.00
O910   O     0.50000   0.56107   0.53824   0.00000  Uiso   1.00
O911   O     0.42392   0.50000   0.52928   0.00000  Uiso   1.00
O912   O     0.57608   0.50000   0.47072   0.00000  Uiso   1.00
O913   O     0.42392   0.50000   0.45284   0.00000  Uiso   1.00
O914   O     0.57608   0.50000   0.54716   0.00000  Uiso   1.00
Zn915  Zn    0.50000   0.49999   0.55104   0.00000  Uiso   1.00
Zn916  Zn    0.50000   0.50001   0.44896   0.00000  Uiso   1.00
N917   N     0.65533   0.47065   0.44320   0.00000  Uiso   1.00
H918   H     0.33954   0.44221   0.43919   0.00000  Uiso   1.00
C919   C     0.64685   0.49357   0.40101   0.00000  Uiso   1.00
H920   H     0.61867   0.47585   0.37556   0.00000  Uiso   1.00
H921   H     0.35034   0.49736   0.38669   0.00000  Uiso   1.00
H922   H     0.63083   0.52506   0.40670   0.00000  Uiso   1.00
N923   N     0.34466   0.52935   0.55680   0.00000  Uiso   1.00
H924   H     0.66046   0.55779   0.56081   0.00000  Uiso   1.00
C925   C     0.35315   0.50643   0.59899   0.00000  Uiso   1.00
H926   H     0.38133   0.52415   0.62444   0.00000  Uiso   1.00
H927   H     0.36917   0.47494   0.59330   0.00000  Uiso   1.00
H928   H     0.64966   0.50264   0.61331   0.00000  Uiso   1.00
N929   N     0.57826   0.37564   0.46058   0.00000  Uiso   1.00
H930   H     0.61501   0.36654   0.47474   0.00000  Uiso   1.00
C931   C     0.57185   0.37441   0.41119   0.00000  Uiso   1.00
H932   H     0.57505   0.34171   0.39828   0.00000  Uiso   1.00
H933   H     0.60257   0.39398   0.39937   0.00000  Uiso   1.00
H934   H     0.53349   0.38705   0.39679   0.00000  Uiso   1.00
N935   N     0.42174   0.62437   0.53942   0.00000  Uiso   1.00
H936   H     0.38499   0.63346   0.52527   0.00000  Uiso   1.00
C937   C     0.42815   0.62559   0.58881   0.00000  Uiso   1.00
H938   H     0.42495   0.65829   0.60173   0.00000  Uiso   1.00
H939   H     0.46651   0.61295   0.60321   0.00000  Uiso   1.00
H940   H     0.39743   0.60602   0.60063   0.00000  Uiso   1.00
N941   N     0.55150   0.56426   0.62668   0.00000  Uiso   1.00
H942   H     0.57497   0.55385   0.60396   0.00000  Uiso   1.00
C943   C     0.57249   0.60055   0.65377   0.00000  Uiso   1.00
H944   H     0.58709   0.62386   0.63115   0.00000  Uiso   1.00
H945   H     0.60545   0.59129   0.34648   0.00000  Uiso   1.00
H946   H     0.54170   0.61574   0.33705   0.00000  Uiso   1.00
N947   N     0.44850   0.43574   0.37332   0.00000  Uiso   1.00
H948   H     0.42503   0.44615   0.39604   0.00000  Uiso   1.00
C949   C     0.42751   0.39945   0.34623   0.00000  Uiso   1.00
H950   H     0.41292   0.37614   0.36885   0.00000  Uiso   1.00
H951   H     0.45831   0.38426   0.66295   0.00000  Uiso   1.00
H952   H     0.39455   0.40871   0.65352   0.00000  Uiso   1.00
C953   C     0.83379   0.42011   0.49961   0.00000  Uiso   1.00
C954   C     0.83288   0.57989   0.50039   0.00000  Uiso   1.00
C955   C     0.73393   0.49986   0.48822   0.00000  Uiso   1.00
C956   C     0.93273   0.50014   0.51178   0.00000  Uiso   1.00
C957   C     0.67943   0.49437   0.48246   0.00000  Uiso   1.00
C958   C     0.98724   0.50563   0.51754   0.00000  Uiso   1.00
C959   C     0.87155   0.35419   0.47921   0.00000  Uiso   1.00
C960   C     0.79512   0.64581   0.52079   0.00000  Uiso   1.00
C961   C     0.87117   0.64435   0.48090   0.00000  Uiso   1.00
C962   C     0.79549   0.35565   0.51910   0.00000  Uiso   1.00
C963   C     0.83312   0.62402   0.50128   0.00000  Uiso   1.00
C964   C     0.83354   0.37598   0.49872   0.00000  Uiso   1.00
C965   C     0.85721   0.53157   0.36147   0.00000  Uiso   1.00
C966   C     0.80946   0.46843   0.63853   0.00000  Uiso   1.00
C967   C     0.85801   0.53178   0.64673   0.00000  Uiso   1.00
C968   C     0.80865   0.46822   0.35327   0.00000  Uiso   1.00
H969   H     0.90052   0.62665   0.46653   0.00000  Uiso   1.00
H970   H     0.76615   0.37335   0.53347   0.00000  Uiso   1.00
H971   H     0.87629   0.55606   0.38380   0.00000  Uiso   1.00
H972   H     0.79038   0.44394   0.61620   0.00000  Uiso   1.00
N973   N     0.83332   0.49999   0.61907   0.00000  Uiso   1.00
N974   N     0.83335   0.50001   0.38093   0.00000  Uiso   1.00
O975   O     0.83333   0.43892   0.53821   0.00000  Uiso   1.00
O976   O     0.83334   0.56108   0.46179   0.00000  Uiso   1.00
O977   O     0.83333   0.43893   0.46176   0.00000  Uiso   1.00
O978   O     0.83334   0.56107   0.53824   0.00000  Uiso   1.00
O979   O     0.75725   0.50000   0.52928   0.00000  Uiso   1.00
O980   O     0.90942   0.50000   0.47072   0.00000  Uiso   1.00
O981   O     0.75725   0.50000   0.45284   0.00000  Uiso   1.00
O982   O     0.90942   0.50000   0.54716   0.00000  Uiso   1.00
Zn983  Zn    0.83333   0.49999   0.55104   0.00000  Uiso   1.00
Zn984  Zn    0.83333   0.50001   0.44896   0.00000  Uiso   1.00
N985   N     0.98867   0.47065   0.44320   0.00000  Uiso   1.00
H986   H     0.67287   0.44221   0.43919   0.00000  Uiso   1.00
C987   C     0.98019   0.49357   0.40101   0.00000  Uiso   1.00
H988   H     0.95201   0.47585   0.37556   0.00000  Uiso   1.00
H989   H     0.68367   0.49736   0.38669   0.00000  Uiso   1.00
H990   H     0.96416   0.52506   0.40670   0.00000  Uiso   1.00
N991   N     0.67800   0.52935   0.55680   0.00000  Uiso   1.00
H992   H     0.99380   0.55779   0.56081   0.00000  Uiso   1.00
C993   C     0.68648   0.50643   0.59899   0.00000  Uiso   1.00
H994   H     0.71466   0.52415   0.62444   0.00000  Uiso   1.00
H995   H     0.70251   0.47494   0.59330   0.00000  Uiso   1.00
H996   H     0.98299   0.50264   0.61331   0.00000  Uiso   1.00
N997   N     0.91159   0.37564   0.46058   0.00000  Uiso   1.00
H998   H     0.94834   0.36654   0.47474   0.00000  Uiso   1.00
C999   C     0.90518   0.37441   0.41119   0.00000  Uiso   1.00
H1000  H     0.90839   0.34171   0.39828   0.00000  Uiso   1.00
H1001  H     0.93590   0.39398   0.39937   0.00000  Uiso   1.00
H1002  H     0.86683   0.38705   0.39679   0.00000  Uiso   1.00
N1003  N     0.75507   0.62437   0.53942   0.00000  Uiso   1.00
H1004  H     0.71833   0.63346   0.52527   0.00000  Uiso   1.00
C1005  C     0.76149   0.62559   0.58881   0.00000  Uiso   1.00
H1006  H     0.75829   0.65829   0.60173   0.00000  Uiso   1.00
H1007  H     0.79984   0.61295   0.60321   0.00000  Uiso   1.00
H1008  H     0.73076   0.60602   0.60063   0.00000  Uiso   1.00
N1009  N     0.88483   0.56426   0.62668   0.00000  Uiso   1.00
H1010  H     0.90831   0.55385   0.60396   0.00000  Uiso   1.00
C1011  C     0.90582   0.60055   0.65377   0.00000  Uiso   1.00
H1012  H     0.92042   0.62386   0.63115   0.00000  Uiso   1.00
H1013  H     0.93879   0.59129   0.34648   0.00000  Uiso   1.00
H1014  H     0.87503   0.61574   0.33705   0.00000  Uiso   1.00
N1015  N     0.78184   0.43574   0.37332   0.00000  Uiso   1.00
H1016  H     0.75836   0.44615   0.39604   0.00000  Uiso   1.00
C1017  C     0.76085   0.39945   0.34623   0.00000  Uiso   1.00
H1018  H     0.74625   0.37614   0.36885   0.00000  Uiso   1.00
H1019  H     0.79164   0.38426   0.66295   0.00000  Uiso   1.00
H1020  H     0.72788   0.40871   0.65352   0.00000  Uiso   1.00
C1021  C     0.16712   0.75344   0.49961   0.00000  Uiso   1.00
C1022  C     0.16621   0.91323   0.50039   0.00000  Uiso   1.00
C1023  C     0.06726   0.83319   0.48822   0.00000  Uiso   1.00
C1024  C     0.26607   0.83348   0.51178   0.00000  Uiso   1.00
C1025  C     0.01276   0.82771   0.48246   0.00000  Uiso   1.00
C1026  C     0.32057   0.83896   0.51754   0.00000  Uiso   1.00
C1027  C     0.20488   0.68752   0.47921   0.00000  Uiso   1.00
C1028  C     0.12845   0.97915   0.52079   0.00000  Uiso   1.00
C1029  C     0.20451   0.97768   0.48090   0.00000  Uiso   1.00
C1030  C     0.12882   0.68899   0.51910   0.00000  Uiso   1.00
C1031  C     0.16646   0.95735   0.50128   0.00000  Uiso   1.00
C1032  C     0.16688   0.70932   0.49872   0.00000  Uiso   1.00
C1033  C     0.19054   0.86490   0.36147   0.00000  Uiso   1.00
C1034  C     0.14279   0.80177   0.63853   0.00000  Uiso   1.00
C1035  C     0.19135   0.86511   0.64673   0.00000  Uiso   1.00
C1036  C     0.14199   0.80156   0.35327   0.00000  Uiso   1.00
H1037  H     0.23385   0.95999   0.46653   0.00000  Uiso   1.00
H1038  H     0.09948   0.70668   0.53347   0.00000  Uiso   1.00
H1039  H     0.20962   0.88939   0.38380   0.00000  Uiso   1.00
H1040  H     0.12371   0.77727   0.61620   0.00000  Uiso   1.00
N1041  N     0.16665   0.83332   0.61907   0.00000  Uiso   1.00
N1042  N     0.16668   0.83334   0.38093   0.00000  Uiso   1.00
O1043  O     0.16666   0.77225   0.53821   0.00000  Uiso   1.00
O1044  O     0.16667   0.89442   0.46179   0.00000  Uiso   1.00
O1045  O     0.16666   0.77226   0.46176   0.00000  Uiso   1.00
O1046  O     0.16667   0.89441   0.53824   0.00000  Uiso   1.00
O1047  O     0.09058   0.83333   0.52928   0.00000  Uiso   1.00
O1048  O     0.24275   0.83334   0.47072   0.00000  Uiso   1.00
O1049  O     0.09058   0.83334   0.45284   0.00000  Uiso   1.00
O1050  O     0.24275   0.83333   0.54716   0.00000  Uiso   1.00
Zn1051 Zn    0.16667   0.83333   0.55104   0.00000  Uiso   1.00
Zn1052 Zn    0.16667   0.83334   0.44896   0.00000  Uiso   1.00
N1053  N     0.32200   0.80398   0.44320   0.00000  Uiso   1.00
H1054  H     0.00620   0.77555   0.43919   0.00000  Uiso   1.00
C1055  C     0.31352   0.82690   0.40101   0.00000  Uiso   1.00
H1056  H     0.28534   0.80918   0.37556   0.00000  Uiso   1.00
H1057  H     0.01701   0.83070   0.38669   0.00000  Uiso   1.00
H1058  H     0.29749   0.85839   0.40670   0.00000  Uiso   1.00
N1059  N     0.01133   0.86269   0.55680   0.00000  Uiso   1.00
H1060  H     0.32713   0.89112   0.56081   0.00000  Uiso   1.00
C1061  C     0.01981   0.83977   0.59899   0.00000  Uiso   1.00
H1062  H     0.04799   0.85748   0.62444   0.00000  Uiso   1.00
H1063  H     0.03584   0.80827   0.59330   0.00000  Uiso   1.00
H1064  H     0.31633   0.83597   0.61331   0.00000  Uiso   1.00
N1065  N     0.24492   0.70897   0.46058   0.00000  Uiso   1.00
H1066  H     0.28167   0.69987   0.47474   0.00000  Uiso   1.00
C1067  C     0.23851   0.70774   0.41119   0.00000  Uiso   1.00
H1068  H     0.24172   0.67504   0.39828   0.00000  Uiso   1.00
H1069  H     0.26924   0.72731   0.39937   0.00000  Uiso   1.00
H1070  H     0.20016   0.72038   0.39679   0.00000  Uiso   1.00
N1071  N     0.08841   0.95770   0.53942   0.00000  Uiso   1.00
H1072  H     0.05166   0.96680   0.52527   0.00000  Uiso   1.00
C1073  C     0.09482   0.95892   0.58881   0.00000  Uiso   1.00
H1074  H     0.09162   0.99163   0.60173   0.00000  Uiso   1.00
H1075  H     0.13317   0.94628   0.60321   0.00000  Uiso   1.00
H1076  H     0.06410   0.93936   0.60063   0.00000  Uiso   1.00
N1077  N     0.21816   0.89759   0.62668   0.00000  Uiso   1.00
H1078  H     0.24164   0.88719   0.60396   0.00000  Uiso   1.00
C1079  C     0.23916   0.93389   0.65377   0.00000  Uiso   1.00
H1080  H     0.25375   0.95719   0.63115   0.00000  Uiso   1.00
H1081  H     0.27212   0.92463   0.34648   0.00000  Uiso   1.00
H1082  H     0.20836   0.94908   0.33705   0.00000  Uiso   1.00
N1083  N     0.11517   0.76908   0.37332   0.00000  Uiso   1.00
H1084  H     0.09169   0.77948   0.39604   0.00000  Uiso   1.00
C1085  C     0.09418   0.73278   0.34623   0.00000  Uiso   1.00
H1086  H     0.07958   0.70948   0.36885   0.00000  Uiso   1.00
H1087  H     0.12497   0.71759   0.66295   0.00000  Uiso   1.00
H1088  H     0.06121   0.74204   0.65352   0.00000  Uiso   1.00
C1089  C     0.50045   0.75344   0.49961   0.00000  Uiso   1.00
C1090  C     0.49955   0.91323   0.50039   0.00000  Uiso   1.00
C1091  C     0.40060   0.83319   0.48822   0.00000  Uiso   1.00
C1092  C     0.59940   0.83348   0.51178   0.00000  Uiso   1.00
C1093  C     0.34609   0.82771   0.48246   0.00000  Uiso   1.00
C1094  C     0.65391   0.83896   0.51754   0.00000  Uiso   1.00
C1095  C     0.53821   0.68752   0.47921   0.00000  Uiso   1.00
C1096  C     0.46178   0.97915   0.52079   0.00000  Uiso   1.00
C1097  C     0.53784   0.97768   0.48090   0.00000  Uiso   1.00
C1098  C     0.46216   0.68899   0.51910   0.00000  Uiso   1.00
C1099  C     0.49979   0.95735   0.50128   0.00000  Uiso   1.00
C1100  C     0.50021   0.70932   0.49872   0.00000  Uiso   1.00
C1101  C     0.52388   0.86490   0.36147   0.00000  Uiso   1.00
C1102  C     0.47612   0.80177   0.63853   0.00000  Uiso   1.00
C1103  C     0.52468   0.86511   0.64673   0.00000  Uiso   1.00
C1104  C     0.47532   0.80156   0.35327   0.00000  Uiso   1.00
H1105  H     0.56718   0.95999   0.46653   0.00000  Uiso   1.00
H1106  H     0.43282   0.70668   0.53347   0.00000  Uiso   1.00
H1107  H     0.54296   0.88939   0.38380   0.00000  Uiso   1.00
H1108  H     0.45704   0.77727   0.61620   0.00000  Uiso   1.00
N1109  N     0.49999   0.83332   0.61907   0.00000  Uiso   1.00
N1110  N     0.50001   0.83334   0.38093   0.00000  Uiso   1.00
O1111  O     0.50000   0.77225   0.53821   0.00000  Uiso   1.00
O1112  O     0.50000   0.89442   0.46179   0.00000  Uiso   1.00
O1113  O     0.50000   0.77226   0.46176   0.00000  Uiso   1.00
O1114  O     0.50000   0.89441   0.53824   0.00000  Uiso   1.00
O1115  O     0.42392   0.83333   0.52928   0.00000  Uiso   1.00
O1116  O     0.57608   0.83334   0.47072   0.00000  Uiso   1.00
O1117  O     0.42392   0.83334   0.45284   0.00000  Uiso   1.00
O1118  O     0.57608   0.83333   0.54716   0.00000  Uiso   1.00
Zn1119 Zn    0.50000   0.83333   0.55104   0.00000  Uiso   1.00
Zn1120 Zn    0.50000   0.83334   0.44896   0.00000  Uiso   1.00
N1121  N     0.65533   0.80398   0.44320   0.00000  Uiso   1.00
H1122  H     0.33954   0.77555   0.43919   0.00000  Uiso   1.00
C1123  C     0.64685   0.82690   0.40101   0.00000  Uiso   1.00
H1124  H     0.61867   0.80918   0.37556   0.00000  Uiso   1.00
H1125  H     0.35034   0.83070   0.38669   0.00000  Uiso   1.00
H1126  H     0.63083   0.85839   0.40670   0.00000  Uiso   1.00
N1127  N     0.34466   0.86269   0.55680   0.00000  Uiso   1.00
H1128  H     0.66046   0.89112   0.56081   0.00000  Uiso   1.00
C1129  C     0.35315   0.83977   0.59899   0.00000  Uiso   1.00
H1130  H     0.38133   0.85748   0.62444   0.00000  Uiso   1.00
H1131  H     0.36917   0.80827   0.59330   0.00000  Uiso   1.00
H1132  H     0.64966   0.83597   0.61331   0.00000  Uiso   1.00
N1133  N     0.57826   0.70897   0.46058   0.00000  Uiso   1.00
H1134  H     0.61501   0.69987   0.47474   0.00000  Uiso   1.00
C1135  C     0.57185   0.70774   0.41119   0.00000  Uiso   1.00
H1136  H     0.57505   0.67504   0.39828   0.00000  Uiso   1.00
H1137  H     0.60257   0.72731   0.39937   0.00000  Uiso   1.00
H1138  H     0.53349   0.72038   0.39679   0.00000  Uiso   1.00
N1139  N     0.42174   0.95770   0.53942   0.00000  Uiso   1.00
H1140  H     0.38499   0.96680   0.52527   0.00000  Uiso   1.00
C1141  C     0.42815   0.95892   0.58881   0.00000  Uiso   1.00
H1142  H     0.42495   0.99163   0.60173   0.00000  Uiso   1.00
H1143  H     0.46651   0.94628   0.60321   0.00000  Uiso   1.00
H1144  H     0.39743   0.93936   0.60063   0.00000  Uiso   1.00
N1145  N     0.55150   0.89759   0.62668   0.00000  Uiso   1.00
H1146  H     0.57497   0.88719   0.60396   0.00000  Uiso   1.00
C1147  C     0.57249   0.93389   0.65377   0.00000  Uiso   1.00
H1148  H     0.58709   0.95719   0.63115   0.00000  Uiso   1.00
H1149  H     0.60545   0.92463   0.34648   0.00000  Uiso   1.00
H1150  H     0.54170   0.94908   0.33705   0.00000  Uiso   1.00
N1151  N     0.44850   0.76908   0.37332   0.00000  Uiso   1.00
H1152  H     0.42503   0.77948   0.39604   0.00000  Uiso   1.00
C1153  C     0.42751   0.73278   0.34623   0.00000  Uiso   1.00
H1154  H     0.41292   0.70948   0.36885   0.00000  Uiso   1.00
H1155  H     0.45831   0.71759   0.66295   0.00000  Uiso   1.00
H1156  H     0.39455   0.74204   0.65352   0.00000  Uiso   1.00
C1157  C     0.83379   0.75344   0.49961   0.00000  Uiso   1.00
C1158  C     0.83288   0.91323   0.50039   0.00000  Uiso   1.00
C1159  C     0.73393   0.83319   0.48822   0.00000  Uiso   1.00
C1160  C     0.93273   0.83348   0.51178   0.00000  Uiso   1.00
C1161  C     0.67943   0.82771   0.48246   0.00000  Uiso   1.00
C1162  C     0.98724   0.83896   0.51754   0.00000  Uiso   1.00
C1163  C     0.87155   0.68752   0.47921   0.00000  Uiso   1.00
C1164  C     0.79512   0.97915   0.52079   0.00000  Uiso   1.00
C1165  C     0.87117   0.97768   0.48090   0.00000  Uiso   1.00
C1166  C     0.79549   0.68899   0.51910   0.00000  Uiso   1.00
C1167  C     0.83312   0.95735   0.50128   0.00000  Uiso   1.00
C1168  C     0.83354   0.70932   0.49872   0.00000  Uiso   1.00
C1169  C     0.85721   0.86490   0.36147   0.00000  Uiso   1.00
C1170  C     0.80946   0.80177   0.63853   0.00000  Uiso   1.00
C1171  C     0.85801   0.86511   0.64673   0.00000  Uiso   1.00
C1172  C     0.80865   0.80156   0.35327   0.00000  Uiso   1.00
H1173  H     0.90052   0.95999   0.46653   0.00000  Uiso   1.00
H1174  H     0.76615   0.70668   0.53347   0.00000  Uiso   1.00
H1175  H     0.87629   0.88939   0.38380   0.00000  Uiso   1.00
H1176  H     0.79038   0.77727   0.61620   0.00000  Uiso   1.00
N1177  N     0.83332   0.83332   0.61907   0.00000  Uiso   1.00
N1178  N     0.83335   0.83334   0.38093   0.00000  Uiso   1.00
O1179  O     0.83333   0.77225   0.53821   0.00000  Uiso   1.00
O1180  O     0.83334   0.89442   0.46179   0.00000  Uiso   1.00
O1181  O     0.83333   0.77226   0.46176   0.00000  Uiso   1.00
O1182  O     0.83334   0.89441   0.53824   0.00000  Uiso   1.00
O1183  O     0.75725   0.83333   0.52928   0.00000  Uiso   1.00
O1184  O     0.90942   0.83334   0.47072   0.00000  Uiso   1.00
O1185  O     0.75725   0.83334   0.45284   0.00000  Uiso   1.00
O1186  O     0.90942   0.83333   0.54716   0.00000  Uiso   1.00
Zn1187 Zn    0.83333   0.83333   0.55104   0.00000  Uiso   1.00
Zn1188 Zn    0.83333   0.83334   0.44896   0.00000  Uiso   1.00
N1189  N     0.98867   0.80398   0.44320   0.00000  Uiso   1.00
H1190  H     0.67287   0.77555   0.43919   0.00000  Uiso   1.00
C1191  C     0.98019   0.82690   0.40101   0.00000  Uiso   1.00
H1192  H     0.95201   0.80918   0.37556   0.00000  Uiso   1.00
H1193  H     0.68367   0.83070   0.38669   0.00000  Uiso   1.00
H1194  H     0.96416   0.85839   0.40670   0.00000  Uiso   1.00
N1195  N     0.67800   0.86269   0.55680   0.00000  Uiso   1.00
H1196  H     0.99380   0.89112   0.56081   0.00000  Uiso   1.00
C1197  C     0.68648   0.83977   0.59899   0.00000  Uiso   1.00
H1198  H     0.71466   0.85748   0.62444   0.00000  Uiso   1.00
H1199  H     0.70251   0.80827   0.59330   0.00000  Uiso   1.00
H1200  H     0.98299   0.83597   0.61331   0.00000  Uiso   1.00
N1201  N     0.91159   0.70897   0.46058   0.00000  Uiso   1.00
H1202  H     0.94834   0.69987   0.47474   0.00000  Uiso   1.00
C1203  C     0.90518   0.70774   0.41119   0.00000  Uiso   1.00
H1204  H     0.90839   0.67504   0.39828   0.00000  Uiso   1.00
H1205  H     0.93590   0.72731   0.39937   0.00000  Uiso   1.00
H1206  H     0.86683   0.72038   0.39679   0.00000  Uiso   1.00
N1207  N     0.75507   0.95770   0.53942   0.00000  Uiso   1.00
H1208  H     0.71833   0.96680   0.52527   0.00000  Uiso   1.00
C1209  C     0.76149   0.95892   0.58881   0.00000  Uiso   1.00
H1210  H     0.75829   0.99163   0.60173   0.00000  Uiso   1.00
H1211  H     0.79984   0.94628   0.60321   0.00000  Uiso   1.00
H1212  H     0.73076   0.93936   0.60063   0.00000  Uiso   1.00
N1213  N     0.88483   0.89759   0.62668   0.00000  Uiso   1.00
H1214  H     0.90831   0.88719   0.60396   0.00000  Uiso   1.00
C1215  C     0.90582   0.93389   0.65377   0.00000  Uiso   1.00
H1216  H     0.92042   0.95719   0.63115   0.00000  Uiso   1.00
H1217  H     0.93879   0.92463   0.34648   0.00000  Uiso   1.00
H1218  H     0.87503   0.94908   0.33705   0.00000  Uiso   1.00
N1219  N     0.78184   0.76908   0.37332   0.00000  Uiso   1.00
H1220  H     0.75836   0.77948   0.39604   0.00000  Uiso   1.00
C1221  C     0.76085   0.73278   0.34623   0.00000  Uiso   1.00
H1222  H     0.74625   0.70948   0.36885   0.00000  Uiso   1.00
H1223  H     0.79164   0.71759   0.66295   0.00000  Uiso   1.00
H1224  H     0.72788   0.74204   0.65352   0.00000  Uiso   1.00
C1225  C     0.16712   0.08677   0.83294   0.00000  Uiso   1.00
C1226  C     0.16621   0.24656   0.83373   0.00000  Uiso   1.00
C1227  C     0.06726   0.16652   0.82155   0.00000  Uiso   1.00
C1228  C     0.26607   0.16681   0.84511   0.00000  Uiso   1.00
C1229  C     0.01276   0.16104   0.81580   0.00000  Uiso   1.00
C1230  C     0.32057   0.17229   0.85087   0.00000  Uiso   1.00
C1231  C     0.20488   0.02086   0.81255   0.00000  Uiso   1.00
C1232  C     0.12845   0.31248   0.85412   0.00000  Uiso   1.00
C1233  C     0.20451   0.31101   0.81423   0.00000  Uiso   1.00
C1234  C     0.12882   0.02232   0.85243   0.00000  Uiso   1.00
C1235  C     0.16646   0.29068   0.83461   0.00000  Uiso   1.00
C1236  C     0.16688   0.04265   0.83206   0.00000  Uiso   1.00
C1237  C     0.19054   0.19823   0.69480   0.00000  Uiso   1.00
C1238  C     0.14279   0.13510   0.97186   0.00000  Uiso   1.00
C1239  C     0.19135   0.19844   0.98006   0.00000  Uiso   1.00
C1240  C     0.14199   0.13489   0.68660   0.00000  Uiso   1.00
H1241  H     0.23385   0.29332   0.79987   0.00000  Uiso   1.00
H1242  H     0.09948   0.04001   0.86680   0.00000  Uiso   1.00
H1243  H     0.20962   0.22273   0.71713   0.00000  Uiso   1.00
H1244  H     0.12371   0.11061   0.94954   0.00000  Uiso   1.00
N1245  N     0.16665   0.16666   0.95240   0.00000  Uiso   1.00
N1246  N     0.16668   0.16668   0.71427   0.00000  Uiso   1.00
O1247  O     0.16666   0.10558   0.87154   0.00000  Uiso   1.00
O1248  O     0.16667   0.22775   0.79513   0.00000  Uiso   1.00
O1249  O     0.16666   0.10559   0.79510   0.00000  Uiso   1.00
O1250  O     0.16667   0.22774   0.87157   0.00000  Uiso   1.00
O1251  O     0.09058   0.16666   0.86261   0.00000  Uiso   1.00
O1252  O     0.24275   0.16667   0.80405   0.00000  Uiso   1.00
O1253  O     0.09058   0.16667   0.78617   0.00000  Uiso   1.00
O1254  O     0.24275   0.16666   0.88050   0.00000  Uiso   1.00
Zn1255 Zn    0.16667   0.16666   0.88437   0.00000  Uiso   1.00
Zn1256 Zn    0.16667   0.16667   0.78229   0.00000  Uiso   1.00
N1257  N     0.32200   0.13731   0.77653   0.00000  Uiso   1.00
H1258  H     0.00620   0.10888   0.77253   0.00000  Uiso   1.00
C1259  C     0.31352   0.16023   0.73434   0.00000  Uiso   1.00
H1260  H     0.28534   0.14252   0.70889   0.00000  Uiso   1.00
H1261  H     0.01701   0.16403   0.72002   0.00000  Uiso   1.00
H1262  H     0.29749   0.19173   0.74004   0.00000  Uiso   1.00
N1263  N     0.01133   0.19602   0.89014   0.00000  Uiso   1.00
H1264  H     0.32713   0.22445   0.89414   0.00000  Uiso   1.00
C1265  C     0.01981   0.17310   0.93233   0.00000  Uiso   1.00
H1266  H     0.04799   0.19082   0.95778   0.00000  Uiso   1.00
H1267  H     0.03584   0.14161   0.92663   0.00000  Uiso   1.00
H1268  H     0.31633   0.16930   0.94664   0.00000  Uiso   1.00
N1269  N     0.24492   0.04230   0.79391   0.00000  Uiso   1.00
H1270  H     0.28167   0.03321   0.80807   0.00000  Uiso   1.00
C1271  C     0.23851   0.04107   0.74453   0.00000  Uiso   1.00
H1272  H     0.24172   0.00837   0.73161   0.00000  Uiso   1.00
H1273  H     0.26924   0.06064   0.73270   0.00000  Uiso   1.00
H1274  H     0.20016   0.05371   0.73013   0.00000  Uiso   1.00
N1275  N     0.08841   0.29103   0.87276   0.00000  Uiso   1.00
H1276  H     0.05166   0.30013   0.85860   0.00000  Uiso   1.00
C1277  C     0.09482   0.29226   0.92214   0.00000  Uiso   1.00
H1278  H     0.09162   0.32496   0.93506   0.00000  Uiso   1.00
H1279  H     0.13317   0.27962   0.93654   0.00000  Uiso   1.00
H1280  H     0.06410   0.27269   0.93396   0.00000  Uiso   1.00
N1281  N     0.21816   0.23092   0.96001   0.00000  Uiso   1.00
H1282  H     0.24164   0.22052   0.93729   0.00000  Uiso   1.00
C1283  C     0.23916   0.26722   0.98710   0.00000  Uiso   1.00
H1284  H     0.25375   0.29052   0.96449   0.00000  Uiso   1.00
H1285  H     0.27212   0.25796   0.67981   0.00000  Uiso   1.00
H1286  H     0.20836   0.28241   0.67038   0.00000  Uiso   1.00
N1287  N     0.11517   0.10241   0.70666   0.00000  Uiso   1.00
H1288  H     0.09169   0.11281   0.72937   0.00000  Uiso   1.00
C1289  C     0.09418   0.06611   0.67957   0.00000  Uiso   1.00
H1290  H     0.07958   0.04281   0.70218   0.00000  Uiso   1.00
H1291  H     0.12497   0.05092   0.99629   0.00000  Uiso   1.00
H1292  H     0.06121   0.07537   0.98685   0.00000  Uiso   1.00
C1293  C     0.50045   0.08677   0.83294   0.00000  Uiso   1.00
C1294  C     0.49955   0.24656   0.83373   0.00000  Uiso   1.00
C1295  C     0.40060   0.16652   0.82155   0.00000  Uiso   1.00
C1296  C     0.59940   0.16681   0.84511   0.00000  Uiso   1.00
C1297  C     0.34609   0.16104   0.81580   0.00000  Uiso   1.00
C1298  C     0.65391   0.17229   0.85087   0.00000  Uiso   1.00
C1299  C     0.53821   0.02086   0.81255   0.00000  Uiso   1.00
C1300  C     0.46178   0.31248   0.85412   0.00000  Uiso   1.00
C1301  C     0.53784   0.31101   0.81423   0.00000  Uiso   1.00
C1302  C     0.46216   0.02232   0.85243   0.00000  Uiso   1.00
C1303  C     0.49979   0.29068   0.83461   0.00000  Uiso   1.00
C1304  C     0.50021   0.04265   0.83206   0.00000  Uiso   1.00
C1305  C     0.52388   0.19823   0.69480   0.00000  Uiso   1.00
C1306  C     0.47612   0.13510   0.97186   0.00000  Uiso   1.00
C1307  C     0.52468   0.19844   0.98006   0.00000  Uiso   1.00
C1308  C     0.47532   0.13489   0.68660   0.00000  Uiso   1.00
H1309  H     0.56718   0.29332   0.79987   0.00000  Uiso   1.00
H1310  H     0.43282   0.04001   0.86680   0.00000  Uiso   1.00
H1311  H     0.54296   0.22273   0.71713   0.00000  Uiso   1.00
H1312  H     0.45704   0.11061   0.94954   0.00000  Uiso   1.00
N1313  N     0.49999   0.16666   0.95240   0.00000  Uiso   1.00
N1314  N     0.50001   0.16668   0.71427   0.00000  Uiso   1.00
O1315  O     0.50000   0.10558   0.87154   0.00000  Uiso   1.00
O1316  O     0.50000   0.22775   0.79513   0.00000  Uiso   1.00
O1317  O     0.50000   0.10559   0.79510   0.00000  Uiso   1.00
O1318  O     0.50000   0.22774   0.87157   0.00000  Uiso   1.00
O1319  O     0.42392   0.16666   0.86261   0.00000  Uiso   1.00
O1320  O     0.57608   0.16667   0.80405   0.00000  Uiso   1.00
O1321  O     0.42392   0.16667   0.78617   0.00000  Uiso   1.00
O1322  O     0.57608   0.16666   0.88050   0.00000  Uiso   1.00
Zn1323 Zn    0.50000   0.16666   0.88437   0.00000  Uiso   1.00
Zn1324 Zn    0.50000   0.16667   0.78229   0.00000  Uiso   1.00
N1325  N     0.65533   0.13731   0.77653   0.00000  Uiso   1.00
H1326  H     0.33954   0.10888   0.77253   0.00000  Uiso   1.00
C1327  C     0.64685   0.16023   0.73434   0.00000  Uiso   1.00
H1328  H     0.61867   0.14252   0.70889   0.00000  Uiso   1.00
H1329  H     0.35034   0.16403   0.72002   0.00000  Uiso   1.00
H1330  H     0.63083   0.19173   0.74004   0.00000  Uiso   1.00
N1331  N     0.34466   0.19602   0.89014   0.00000  Uiso   1.00
H1332  H     0.66046   0.22445   0.89414   0.00000  Uiso   1.00
C1333  C     0.35315   0.17310   0.93233   0.00000  Uiso   1.00
H1334  H     0.38133   0.19082   0.95778   0.00000  Uiso   1.00
H1335  H     0.36917   0.14161   0.92663   0.00000  Uiso   1.00
H1336  H     0.64966   0.16930   0.94664   0.00000  Uiso   1.00
N1337  N     0.57826   0.04230   0.79391   0.00000  Uiso   1.00
H1338  H     0.61501   0.03321   0.80807   0.00000  Uiso   1.00
C1339  C     0.57185   0.04107   0.74453   0.00000  Uiso   1.00
H1340  H     0.57505   0.00837   0.73161   0.00000  Uiso   1.00
H1341  H     0.60257   0.06064   0.73270   0.00000  Uiso   1.00
H1342  H     0.53349   0.05371   0.73013   0.00000  Uiso   1.00
N1343  N     0.42174   0.29103   0.87276   0.00000  Uiso   1.00
H1344  H     0.38499   0.30013   0.85860   0.00000  Uiso   1.00
C1345  C     0.42815   0.29226   0.92214   0.00000  Uiso   1.00
H1346  H     0.42495   0.32496   0.93506   0.00000  Uiso   1.00
H1347  H     0.46651   0.27962   0.93654   0.00000  Uiso   1.00
H1348  H     0.39743   0.27269   0.93396   0.00000  Uiso   1.00
N1349  N     0.55150   0.23092   0.96001   0.00000  Uiso   1.00
H1350  H     0.57497   0.22052   0.93729   0.00000  Uiso   1.00
C1351  C     0.57249   0.26722   0.98710   0.00000  Uiso   1.00
H1352  H     0.58709   0.29052   0.96449   0.00000  Uiso   1.00
H1353  H     0.60545   0.25796   0.67981   0.00000  Uiso   1.00
H1354  H     0.54170   0.28241   0.67038   0.00000  Uiso   1.00
N1355  N     0.44850   0.10241   0.70666   0.00000  Uiso   1.00
H1356  H     0.42503   0.11281   0.72937   0.00000  Uiso   1.00
C1357  C     0.42751   0.06611   0.67957   0.00000  Uiso   1.00
H1358  H     0.41292   0.04281   0.70218   0.00000  Uiso   1.00
H1359  H     0.45831   0.05092   0.99629   0.00000  Uiso   1.00
H1360  H     0.39455   0.07537   0.98685   0.00000  Uiso   1.00
C1361  C     0.83379   0.08677   0.83294   0.00000  Uiso   1.00
C1362  C     0.83288   0.24656   0.83373   0.00000  Uiso   1.00
C1363  C     0.73393   0.16652   0.82155   0.00000  Uiso   1.00
C1364  C     0.93273   0.16681   0.84511   0.00000  Uiso   1.00
C1365  C     0.67943   0.16104   0.81580   0.00000  Uiso   1.00
C1366  C     0.98724   0.17229   0.85087   0.00000  Uiso   1.00
C1367  C     0.87155   0.02086   0.81255   0.00000  Uiso   1.00
C1368  C     0.79512   0.31248   0.85412   0.00000  Uiso   1.00
C1369  C     0.87117   0.31101   0.81423   0.00000  Uiso   1.00
C1370  C     0.79549   0.02232   0.85243   0.00000  Uiso   1.00
C1371  C     0.83312   0.29068   0.83461   0.00000  Uiso   1.00
C1372  C     0.83354   0.04265   0.83206   0.00000  Uiso   1.00
C1373  C     0.85721   0.19823   0.69480   0.00000  Uiso   1.00
C1374  C     0.80946   0.13510   0.97186   0.00000  Uiso   1.00
C1375  C     0.85801   0.19844   0.98006   0.00000  Uiso   1.00
C1376  C     0.80865   0.13489   0.68660   0.00000  Uiso   1.00
H1377  H     0.90052   0.29332   0.79987   0.00000  Uiso   1.00
H1378  H     0.76615   0.04001   0.86680   0.00000  Uiso   1.00
H1379  H     0.87629   0.22273   0.71713   0.00000  Uiso   1.00
H1380  H     0.79038   0.11061   0.94954   0.00000  Uiso   1.00
N1381  N     0.83332   0.16666   0.95240   0.00000  Uiso   1.00
N1382  N     0.83335   0.16668   0.71427   0.00000  Uiso   1.00
O1383  O     0.83333   0.10558   0.87154   0.00000  Uiso   1.00
O1384  O     0.83334   0.22775   0.79513   0.00000  Uiso   1.00
O1385  O     0.83333   0.10559   0.79510   0.00000  Uiso   1.00
O1386  O     0.83334   0.22774   0.87157   0.00000  Uiso   1.00
O1387  O     0.75725   0.16666   0.86261   0.00000  Uiso   1.00
O1388  O     0.90942   0.16667   0.80405   0.00000  Uiso   1.00
O1389  O     0.75725   0.16667   0.78617   0.00000  Uiso   1.00
O1390  O     0.90942   0.16666   0.88050   0.00000  Uiso   1.00
Zn1391 Zn    0.83333   0.16666   0.88437   0.00000  Uiso   1.00
Zn1392 Zn    0.83333   0.16667   0.78229   0.00000  Uiso   1.00
N1393  N     0.98867   0.13731   0.77653   0.00000  Uiso   1.00
H1394  H     0.67287   0.10888   0.77253   0.00000  Uiso   1.00
C1395  C     0.98019   0.16023   0.73434   0.00000  Uiso   1.00
H1396  H     0.95201   0.14252   0.70889   0.00000  Uiso   1.00
H1397  H     0.68367   0.16403   0.72002   0.00000  Uiso   1.00
H1398  H     0.96416   0.19173   0.74004   0.00000  Uiso   1.00
N1399  N     0.67800   0.19602   0.89014   0.00000  Uiso   1.00
H1400  H     0.99380   0.22445   0.89414   0.00000  Uiso   1.00
C1401  C     0.68648   0.17310   0.93233   0.00000  Uiso   1.00
H1402  H     0.71466   0.19082   0.95778   0.00000  Uiso   1.00
H1403  H     0.70251   0.14161   0.92663   0.00000  Uiso   1.00
H1404  H     0.98299   0.16930   0.94664   0.00000  Uiso   1.00
N1405  N     0.91159   0.04230   0.79391   0.00000  Uiso   1.00
H1406  H     0.94834   0.03321   0.80807   0.00000  Uiso   1.00
C1407  C     0.90518   0.04107   0.74453   0.00000  Uiso   1.00
H1408  H     0.90839   0.00837   0.73161   0.00000  Uiso   1.00
H1409  H     0.93590   0.06064   0.73270   0.00000  Uiso   1.00
H1410  H     0.86683   0.05371   0.73013   0.00000  Uiso   1.00
N1411  N     0.75507   0.29103   0.87276   0.00000  Uiso   1.00
H1412  H     0.71833   0.30013   0.85860   0.00000  Uiso   1.00
C1413  C     0.76149   0.29226   0.92214   0.00000  Uiso   1.00
H1414  H     0.75829   0.32496   0.93506   0.00000  Uiso   1.00
H1415  H     0.79984   0.27962   0.93654   0.00000  Uiso   1.00
H1416  H     0.73076   0.27269   0.93396   0.00000  Uiso   1.00
N1417  N     0.88483   0.23092   0.96001   0.00000  Uiso   1.00
H1418  H     0.90831   0.22052   0.93729   0.00000  Uiso   1.00
C1419  C     0.90582   0.26722   0.98710   0.00000  Uiso   1.00
H1420  H     0.92042   0.29052   0.96449   0.00000  Uiso   1.00
H1421  H     0.93879   0.25796   0.67981   0.00000  Uiso   1.00
H1422  H     0.87503   0.28241   0.67038   0.00000  Uiso   1.00
N1423  N     0.78184   0.10241   0.70666   0.00000  Uiso   1.00
H1424  H     0.75836   0.11281   0.72937   0.00000  Uiso   1.00
C1425  C     0.76085   0.06611   0.67957   0.00000  Uiso   1.00
H1426  H     0.74625   0.04281   0.70218   0.00000  Uiso   1.00
H1427  H     0.79164   0.05092   0.99629   0.00000  Uiso   1.00
H1428  H     0.72788   0.07537   0.98685   0.00000  Uiso   1.00
C1429  C     0.16712   0.42011   0.83294   0.00000  Uiso   1.00
C1430  C     0.16621   0.57989   0.83373   0.00000  Uiso   1.00
C1431  C     0.06726   0.49986   0.82155   0.00000  Uiso   1.00
C1432  C     0.26607   0.50014   0.84511   0.00000  Uiso   1.00
C1433  C     0.01276   0.49437   0.81580   0.00000  Uiso   1.00
C1434  C     0.32057   0.50563   0.85087   0.00000  Uiso   1.00
C1435  C     0.20488   0.35419   0.81255   0.00000  Uiso   1.00
C1436  C     0.12845   0.64581   0.85412   0.00000  Uiso   1.00
C1437  C     0.20451   0.64435   0.81423   0.00000  Uiso   1.00
C1438  C     0.12882   0.35565   0.85243   0.00000  Uiso   1.00
C1439  C     0.16646   0.62402   0.83461   0.00000  Uiso   1.00
C1440  C     0.16688   0.37598   0.83206   0.00000  Uiso   1.00
C1441  C     0.19054   0.53157   0.69480   0.00000  Uiso   1.00
C1442  C     0.14279   0.46843   0.97186   0.00000  Uiso   1.00
C1443  C     0.19135   0.53178   0.98006   0.00000  Uiso   1.00
C1444  C     0.14199   0.46822   0.68660   0.00000  Uiso   1.00
H1445  H     0.23385   0.62665   0.79987   0.00000  Uiso   1.00
H1446  H     0.09948   0.37335   0.86680   0.00000  Uiso   1.00
H1447  H     0.20962   0.55606   0.71713   0.00000  Uiso   1.00
H1448  H     0.12371   0.44394   0.94954   0.00000  Uiso   1.00
N1449  N     0.16665   0.49999   0.95240   0.00000  Uiso   1.00
N1450  N     0.16668   0.50001   0.71427   0.00000  Uiso   1.00
O1451  O     0.16666   0.43892   0.87154   0.00000  Uiso   1.00
O1452  O     0.16667   0.56108   0.79513   0.00000  Uiso   1.00
O1453  O     0.16666   0.43893   0.79510   0.00000  Uiso   1.00
O1454  O     0.16667   0.56107   0.87157   0.00000  Uiso   1.00
O1455  O     0.09058   0.50000   0.86261   0.00000  Uiso   1.00
O1456  O     0.24275   0.50000   0.80405   0.00000  Uiso   1.00
O1457  O     0.09058   0.50000   0.78617   0.00000  Uiso   1.00
O1458  O     0.24275   0.50000   0.88050   0.00000  Uiso   1.00
Zn1459 Zn    0.16667   0.49999   0.88437   0.00000  Uiso   1.00
Zn1460 Zn    0.16667   0.50001   0.78229   0.00000  Uiso   1.00
N1461  N     0.32200   0.47065   0.77653   0.00000  Uiso   1.00
H1462  H     0.00620   0.44221   0.77253   0.00000  Uiso   1.00
C1463  C     0.31352   0.49357   0.73434   0.00000  Uiso   1.00
H1464  H     0.28534   0.47585   0.70889   0.00000  Uiso   1.00
H1465  H     0.01701   0.49736   0.72002   0.00000  Uiso   1.00
H1466  H     0.29749   0.52506   0.74004   0.00000  Uiso   1.00
N1467  N     0.01133   0.52935   0.89014   0.00000  Uiso   1.00
H1468  H     0.32713   0.55779   0.89414   0.00000  Uiso   1.00
C1469  C     0.01981   0.50643   0.93233   0.00000  Uiso   1.00
H1470  H     0.04799   0.52415   0.95778   0.00000  Uiso   1.00
H1471  H     0.03584   0.47494   0.92663   0.00000  Uiso   1.00
H1472  H     0.31633   0.50264   0.94664   0.00000  Uiso   1.00
N1473  N     0.24492   0.37564   0.79391   0.00000  Uiso   1.00
H1474  H     0.28167   0.36654   0.80807   0.00000  Uiso   1.00
C1475  C     0.23851   0.37441   0.74453   0.00000  Uiso   1.00
H1476  H     0.24172   0.34171   0.73161   0.00000  Uiso   1.00
H1477  H     0.26924   0.39398   0.73270   0.00000  Uiso   1.00
H1478  H     0.20016   0.38705   0.73013   0.00000  Uiso   1.00
N1479  N     0.08841   0.62437   0.87276   0.00000  Uiso   1.00
H1480  H     0.05166   0.63346   0.85860   0.00000  Uiso   1.00
C1481  C     0.09482   0.62559   0.92214   0.00000  Uiso   1.00
H1482  H     0.09162   0.65829   0.93506   0.00000  Uiso   1.00
H1483  H     0.13317   0.61295   0.93654   0.00000  Uiso   1.00
H1484  H     0.06410   0.60602   0.93396   0.00000  Uiso   1.00
N1485  N     0.21816   0.56426   0.96001   0.00000  Uiso   1.00
H1486  H     0.24164   0.55385   0.93729   0.00000  Uiso   1.00
C1487  C     0.23916   0.60055   0.98710   0.00000  Uiso   1.00
H1488  H     0.25375   0.62386   0.96449   0.00000  Uiso   1.00
H1489  H     0.27212   0.59129   0.67981   0.00000  Uiso   1.00
H1490  H     0.20836   0.61574   0.67038   0.00000  Uiso   1.00
N1491  N     0.11517   0.43574   0.70666   0.00000  Uiso   1.00
H1492  H     0.09169   0.44615   0.72937   0.00000  Uiso   1.00
C1493  C     0.09418   0.39945   0.67957   0.00000  Uiso   1.00
H1494  H     0.07958   0.37614   0.70218   0.00000  Uiso   1.00
H1495  H     0.12497   0.38426   0.99629   0.00000  Uiso   1.00
H1496  H     0.06121   0.40871   0.98685   0.00000  Uiso   1.00
C1497  C     0.50045   0.42011   0.83294   0.00000  Uiso   1.00
C1498  C     0.49955   0.57989   0.83373   0.00000  Uiso   1.00
C1499  C     0.40060   0.49986   0.82155   0.00000  Uiso   1.00
C1500  C     0.59940   0.50014   0.84511   0.00000  Uiso   1.00
C1501  C     0.34609   0.49437   0.81580   0.00000  Uiso   1.00
C1502  C     0.65391   0.50563   0.85087   0.00000  Uiso   1.00
C1503  C     0.53821   0.35419   0.81255   0.00000  Uiso   1.00
C1504  C     0.46178   0.64581   0.85412   0.00000  Uiso   1.00
C1505  C     0.53784   0.64435   0.81423   0.00000  Uiso   1.00
C1506  C     0.46216   0.35565   0.85243   0.00000  Uiso   1.00
C1507  C     0.49979   0.62402   0.83461   0.00000  Uiso   1.00
C1508  C     0.50021   0.37598   0.83206   0.00000  Uiso   1.00
C1509  C     0.52388   0.53157   0.69480   0.00000  Uiso   1.00
C1510  C     0.47612   0.46843   0.97186   0.00000  Uiso   1.00
C1511  C     0.52468   0.53178   0.98006   0.00000  Uiso   1.00
C1512  C     0.47532   0.46822   0.68660   0.00000  Uiso   1.00
H1513  H     0.56718   0.62665   0.79987   0.00000  Uiso   1.00
H1514  H     0.43282   0.37335   0.86680   0.00000  Uiso   1.00
H1515  H     0.54296   0.55606   0.71713   0.00000  Uiso   1.00
H1516  H     0.45704   0.44394   0.94954   0.00000  Uiso   1.00
N1517  N     0.49999   0.49999   0.95240   0.00000  Uiso   1.00
N1518  N     0.50001   0.50001   0.71427   0.00000  Uiso   1.00
O1519  O     0.50000   0.43892   0.87154   0.00000  Uiso   1.00
O1520  O     0.50000   0.56108   0.79513   0.00000  Uiso   1.00
O1521  O     0.50000   0.43893   0.79510   0.00000  Uiso   1.00
O1522  O     0.50000   0.56107   0.87157   0.00000  Uiso   1.00
O1523  O     0.42392   0.50000   0.86261   0.00000  Uiso   1.00
O1524  O     0.57608   0.50000   0.80405   0.00000  Uiso   1.00
O1525  O     0.42392   0.50000   0.78617   0.00000  Uiso   1.00
O1526  O     0.57608   0.50000   0.88050   0.00000  Uiso   1.00
Zn1527 Zn    0.50000   0.49999   0.88437   0.00000  Uiso   1.00
Zn1528 Zn    0.50000   0.50001   0.78229   0.00000  Uiso   1.00
N1529  N     0.65533   0.47065   0.77653   0.00000  Uiso   1.00
H1530  H     0.33954   0.44221   0.77253   0.00000  Uiso   1.00
C1531  C     0.64685   0.49357   0.73434   0.00000  Uiso   1.00
H1532  H     0.61867   0.47585   0.70889   0.00000  Uiso   1.00
H1533  H     0.35034   0.49736   0.72002   0.00000  Uiso   1.00
H1534  H     0.63083   0.52506   0.74004   0.00000  Uiso   1.00
N1535  N     0.34466   0.52935   0.89014   0.00000  Uiso   1.00
H1536  H     0.66046   0.55779   0.89414   0.00000  Uiso   1.00
C1537  C     0.35315   0.50643   0.93233   0.00000  Uiso   1.00
H1538  H     0.38133   0.52415   0.95778   0.00000  Uiso   1.00
H1539  H     0.36917   0.47494   0.92663   0.00000  Uiso   1.00
H1540  H     0.64966   0.50264   0.94664   0.00000  Uiso   1.00
N1541  N     0.57826   0.37564   0.79391   0.00000  Uiso   1.00
H1542  H     0.61501   0.36654   0.80807   0.00000  Uiso   1.00
C1543  C     0.57185   0.37441   0.74453   0.00000  Uiso   1.00
H1544  H     0.57505   0.34171   0.73161   0.00000  Uiso   1.00
H1545  H     0.60257   0.39398   0.73270   0.00000  Uiso   1.00
H1546  H     0.53349   0.38705   0.73013   0.00000  Uiso   1.00
N1547  N     0.42174   0.62437   0.87276   0.00000  Uiso   1.00
H1548  H     0.38499   0.63346   0.85860   0.00000  Uiso   1.00
C1549  C     0.42815   0.62559   0.92214   0.00000  Uiso   1.00
H1550  H     0.42495   0.65829   0.93506   0.00000  Uiso   1.00
H1551  H     0.46651   0.61295   0.93654   0.00000  Uiso   1.00
H1552  H     0.39743   0.60602   0.93396   0.00000  Uiso   1.00
N1553  N     0.55150   0.56426   0.96001   0.00000  Uiso   1.00
H1554  H     0.57497   0.55385   0.93729   0.00000  Uiso   1.00
C1555  C     0.57249   0.60055   0.98710   0.00000  Uiso   1.00
H1556  H     0.58709   0.62386   0.96449   0.00000  Uiso   1.00
H1557  H     0.60545   0.59129   0.67981   0.00000  Uiso   1.00
H1558  H     0.54170   0.61574   0.67038   0.00000  Uiso   1.00
N1559  N     0.44850   0.43574   0.70666   0.00000  Uiso   1.00
H1560  H     0.42503   0.44615   0.72937   0.00000  Uiso   1.00
C1561  C     0.42751   0.39945   0.67957   0.00000  Uiso   1.00
H1562  H     0.41292   0.37614   0.70218   0.00000  Uiso   1.00
H1563  H     0.45831   0.38426   0.99629   0.00000  Uiso   1.00
H1564  H     0.39455   0.40871   0.98685   0.00000  Uiso   1.00
C1565  C     0.83379   0.42011   0.83294   0.00000  Uiso   1.00
C1566  C     0.83288   0.57989   0.83373   0.00000  Uiso   1.00
C1567  C     0.73393   0.49986   0.82155   0.00000  Uiso   1.00
C1568  C     0.93273   0.50014   0.84511   0.00000  Uiso   1.00
C1569  C     0.67943   0.49437   0.81580   0.00000  Uiso   1.00
C1570  C     0.98724   0.50563   0.85087   0.00000  Uiso   1.00
C1571  C     0.87155   0.35419   0.81255   0.00000  Uiso   1.00
C1572  C     0.79512   0.64581   0.85412   0.00000  Uiso   1.00
C1573  C     0.87117   0.64435   0.81423   0.00000  Uiso   1.00
C1574  C     0.79549   0.35565   0.85243   0.00000  Uiso   1.00
C1575  C     0.83312   0.62402   0.83461   0.00000  Uiso   1.00
C1576  C     0.83354   0.37598   0.83206   0.00000  Uiso   1.00
C1577  C     0.85721   0.53157   0.69480   0.00000  Uiso   1.00
C1578  C     0.80946   0.46843   0.97186   0.00000  Uiso   1.00
C1579  C     0.85801   0.53178   0.98006   0.00000  Uiso   1.00
C1580  C     0.80865   0.46822   0.68660   0.00000  Uiso   1.00
H1581  H     0.90052   0.62665   0.79987   0.00000  Uiso   1.00
H1582  H     0.76615   0.37335   0.86680   0.00000  Uiso   1.00
H1583  H     0.87629   0.55606   0.71713   0.00000  Uiso   1.00
H1584  H     0.79038   0.44394   0.94954   0.00000  Uiso   1.00
N1585  N     0.83332   0.49999   0.95240   0.00000  Uiso   1.00
N1586  N     0.83335   0.50001   0.71427   0.00000  Uiso   1.00
O1587  O     0.83333   0.43892   0.87154   0.00000  Uiso   1.00
O1588  O     0.83334   0.56108   0.79513   0.00000  Uiso   1.00
O1589  O     0.83333   0.43893   0.79510   0.00000  Uiso   1.00
O1590  O     0.83334   0.56107   0.87157   0.00000  Uiso   1.00
O1591  O     0.75725   0.50000   0.86261   0.00000  Uiso   1.00
O1592  O     0.90942   0.50000   0.80405   0.00000  Uiso   1.00
O1593  O     0.75725   0.50000   0.78617   0.00000  Uiso   1.00
O1594  O     0.90942   0.50000   0.88050   0.00000  Uiso   1.00
Zn1595 Zn    0.83333   0.49999   0.88437   0.00000  Uiso   1.00
Zn1596 Zn    0.83333   0.50001   0.78229   0.00000  Uiso   1.00
N1597  N     0.98867   0.47065   0.77653   0.00000  Uiso   1.00
H1598  H     0.67287   0.44221   0.77253   0.00000  Uiso   1.00
C1599  C     0.98019   0.49357   0.73434   0.00000  Uiso   1.00
H1600  H     0.95201   0.47585   0.70889   0.00000  Uiso   1.00
H1601  H     0.68367   0.49736   0.72002   0.00000  Uiso   1.00
H1602  H     0.96416   0.52506   0.74004   0.00000  Uiso   1.00
N1603  N     0.67800   0.52935   0.89014   0.00000  Uiso   1.00
H1604  H     0.99380   0.55779   0.89414   0.00000  Uiso   1.00
C1605  C     0.68648   0.50643   0.93233   0.00000  Uiso   1.00
H1606  H     0.71466   0.52415   0.95778   0.00000  Uiso   1.00
H1607  H     0.70251   0.47494   0.92663   0.00000  Uiso   1.00
H1608  H     0.98299   0.50264   0.94664   0.00000  Uiso   1.00
N1609  N     0.91159   0.37564   0.79391   0.00000  Uiso   1.00
H1610  H     0.94834   0.36654   0.80807   0.00000  Uiso   1.00
C1611  C     0.90518   0.37441   0.74453   0.00000  Uiso   1.00
H1612  H     0.90839   0.34171   0.73161   0.00000  Uiso   1.00
H1613  H     0.93590   0.39398   0.73270   0.00000  Uiso   1.00
H1614  H     0.86683   0.38705   0.73013   0.00000  Uiso   1.00
N1615  N     0.75507   0.62437   0.87276   0.00000  Uiso   1.00
H1616  H     0.71833   0.63346   0.85860   0.00000  Uiso   1.00
C1617  C     0.76149   0.62559   0.92214   0.00000  Uiso   1.00
H1618  H     0.75829   0.65829   0.93506   0.00000  Uiso   1.00
H1619  H     0.79984   0.61295   0.93654   0.00000  Uiso   1.00
H1620  H     0.73076   0.60602   0.93396   0.00000  Uiso   1.00
N1621  N     0.88483   0.56426   0.96001   0.00000  Uiso   1.00
H1622  H     0.90831   0.55385   0.93729   0.00000  Uiso   1.00
C1623  C     0.90582   0.60055   0.98710   0.00000  Uiso   1.00
H1624  H     0.92042   0.62386   0.96449   0.00000  Uiso   1.00
H1625  H     0.93879   0.59129   0.67981   0.00000  Uiso   1.00
H1626  H     0.87503   0.61574   0.67038   0.00000  Uiso   1.00
N1627  N     0.78184   0.43574   0.70666   0.00000  Uiso   1.00
H1628  H     0.75836   0.44615   0.72937   0.00000  Uiso   1.00
C1629  C     0.76085   0.39945   0.67957   0.00000  Uiso   1.00
H1630  H     0.74625   0.37614   0.70218   0.00000  Uiso   1.00
H1631  H     0.79164   0.38426   0.99629   0.00000  Uiso   1.00
H1632  H     0.72788   0.40871   0.98685   0.00000  Uiso   1.00
C1633  C     0.16712   0.75344   0.83294   0.00000  Uiso   1.00
C1634  C     0.16621   0.91323   0.83373   0.00000  Uiso   1.00
C1635  C     0.06726   0.83319   0.82155   0.00000  Uiso   1.00
C1636  C     0.26607   0.83348   0.84511   0.00000  Uiso   1.00
C1637  C     0.01276   0.82771   0.81580   0.00000  Uiso   1.00
C1638  C     0.32057   0.83896   0.85087   0.00000  Uiso   1.00
C1639  C     0.20488   0.68752   0.81255   0.00000  Uiso   1.00
C1640  C     0.12845   0.97915   0.85412   0.00000  Uiso   1.00
C1641  C     0.20451   0.97768   0.81423   0.00000  Uiso   1.00
C1642  C     0.12882   0.68899   0.85243   0.00000  Uiso   1.00
C1643  C     0.16646   0.95735   0.83461   0.00000  Uiso   1.00
C1644  C     0.16688   0.70932   0.83206   0.00000  Uiso   1.00
C1645  C     0.19054   0.86490   0.69480   0.00000  Uiso   1.00
C1646  C     0.14279   0.80177   0.97186   0.00000  Uiso   1.00
C1647  C     0.19135   0.86511   0.98006   0.00000  Uiso   1.00
C1648  C     0.14199   0.80156   0.68660   0.00000  Uiso   1.00
H1649  H     0.23385   0.95999   0.79987   0.00000  Uiso   1.00
H1650  H     0.09948   0.70668   0.86680   0.00000  Uiso   1.00
H1651  H     0.20962   0.88939   0.71713   0.00000  Uiso   1.00
H1652  H     0.12371   0.77727   0.94954   0.00000  Uiso   1.00
N1653  N     0.16665   0.83332   0.95240   0.00000  Uiso   1.00
N1654  N     0.16668   0.83334   0.71427   0.00000  Uiso   1.00
O1655  O     0.16666   0.77225   0.87154   0.00000  Uiso   1.00
O1656  O     0.16667   0.89442   0.79513   0.00000  Uiso   1.00
O1657  O     0.16666   0.77226   0.79510   0.00000  Uiso   1.00
O1658  O     0.16667   0.89441   0.87157   0.00000  Uiso   1.00
O1659  O     0.09058   0.83333   0.86261   0.00000  Uiso   1.00
O1660  O     0.24275   0.83334   0.80405   0.00000  Uiso   1.00
O1661  O     0.09058   0.83334   0.78617   0.00000  Uiso   1.00
O1662  O     0.24275   0.83333   0.88050   0.00000  Uiso   1.00
Zn1663 Zn    0.16667   0.83333   0.88437   0.00000  Uiso   1.00
Zn1664 Zn    0.16667   0.83334   0.78229   0.00000  Uiso   1.00
N1665  N     0.32200   0.80398   0.77653   0.00000  Uiso   1.00
H1666  H     0.00620   0.77555   0.77253   0.00000  Uiso   1.00
C1667  C     0.31352   0.82690   0.73434   0.00000  Uiso   1.00
H1668  H     0.28534   0.80918   0.70889   0.00000  Uiso   1.00
H1669  H     0.01701   0.83070   0.72002   0.00000  Uiso   1.00
H1670  H     0.29749   0.85839   0.74004   0.00000  Uiso   1.00
N1671  N     0.01133   0.86269   0.89014   0.00000  Uiso   1.00
H1672  H     0.32713   0.89112   0.89414   0.00000  Uiso   1.00
C1673  C     0.01981   0.83977   0.93233   0.00000  Uiso   1.00
H1674  H     0.04799   0.85748   0.95778   0.00000  Uiso   1.00
H1675  H     0.03584   0.80827   0.92663   0.00000  Uiso   1.00
H1676  H     0.31633   0.83597   0.94664   0.00000  Uiso   1.00
N1677  N     0.24492   0.70897   0.79391   0.00000  Uiso   1.00
H1678  H     0.28167   0.69987   0.80807   0.00000  Uiso   1.00
C1679  C     0.23851   0.70774   0.74453   0.00000  Uiso   1.00
H1680  H     0.24172   0.67504   0.73161   0.00000  Uiso   1.00
H1681  H     0.26924   0.72731   0.73270   0.00000  Uiso   1.00
H1682  H     0.20016   0.72038   0.73013   0.00000  Uiso   1.00
N1683  N     0.08841   0.95770   0.87276   0.00000  Uiso   1.00
H1684  H     0.05166   0.96680   0.85860   0.00000  Uiso   1.00
C1685  C     0.09482   0.95892   0.92214   0.00000  Uiso   1.00
H1686  H     0.09162   0.99163   0.93506   0.00000  Uiso   1.00
H1687  H     0.13317   0.94628   0.93654   0.00000  Uiso   1.00
H1688  H     0.06410   0.93936   0.93396   0.00000  Uiso   1.00
N1689  N     0.21816   0.89759   0.96001   0.00000  Uiso   1.00
H1690  H     0.24164   0.88719   0.93729   0.00000  Uiso   1.00
C1691  C     0.23916   0.93389   0.98710   0.00000  Uiso   1.00
H1692  H     0.25375   0.95719   0.96449   0.00000  Uiso   1.00
H1693  H     0.27212   0.92463   0.67981   0.00000  Uiso   1.00
H1694  H     0.20836   0.94908   0.67038   0.00000  Uiso   1.00
N1695  N     0.11517   0.76908   0.70666   0.00000  Uiso   1.00
H1696  H     0.09169   0.77948   0.72937   0.00000  Uiso   1.00
C1697  C     0.09418   0.73278   0.67957   0.00000  Uiso   1.00
H1698  H     0.07958   0.70948   0.70218   0.00000  Uiso   1.00
H1699  H     0.12497   0.71759   0.99629   0.00000  Uiso   1.00
H1700  H     0.06121   0.74204   0.98685   0.00000  Uiso   1.00
C1701  C     0.50045   0.75344   0.83294   0.00000  Uiso   1.00
C1702  C     0.49955   0.91323   0.83373   0.00000  Uiso   1.00
C1703  C     0.40060   0.83319   0.82155   0.00000  Uiso   1.00
C1704  C     0.59940   0.83348   0.84511   0.00000  Uiso   1.00
C1705  C     0.34609   0.82771   0.81580   0.00000  Uiso   1.00
C1706  C     0.65391   0.83896   0.85087   0.00000  Uiso   1.00
C1707  C     0.53821   0.68752   0.81255   0.00000  Uiso   1.00
C1708  C     0.46178   0.97915   0.85412   0.00000  Uiso   1.00
C1709  C     0.53784   0.97768   0.81423   0.00000  Uiso   1.00
C1710  C     0.46216   0.68899   0.85243   0.00000  Uiso   1.00
C1711  C     0.49979   0.95735   0.83461   0.00000  Uiso   1.00
C1712  C     0.50021   0.70932   0.83206   0.00000  Uiso   1.00
C1713  C     0.52388   0.86490   0.69480   0.00000  Uiso   1.00
C1714  C     0.47612   0.80177   0.97186   0.00000  Uiso   1.00
C1715  C     0.52468   0.86511   0.98006   0.00000  Uiso   1.00
C1716  C     0.47532   0.80156   0.68660   0.00000  Uiso   1.00
H1717  H     0.56718   0.95999   0.79987   0.00000  Uiso   1.00
H1718  H     0.43282   0.70668   0.86680   0.00000  Uiso   1.00
H1719  H     0.54296   0.88939   0.71713   0.00000  Uiso   1.00
H1720  H     0.45704   0.77727   0.94954   0.00000  Uiso   1.00
N1721  N     0.49999   0.83332   0.95240   0.00000  Uiso   1.00
N1722  N     0.50001   0.83334   0.71427   0.00000  Uiso   1.00
O1723  O     0.50000   0.77225   0.87154   0.00000  Uiso   1.00
O1724  O     0.50000   0.89442   0.79513   0.00000  Uiso   1.00
O1725  O     0.50000   0.77226   0.79510   0.00000  Uiso   1.00
O1726  O     0.50000   0.89441   0.87157   0.00000  Uiso   1.00
O1727  O     0.42392   0.83333   0.86261   0.00000  Uiso   1.00
O1728  O     0.57608   0.83334   0.80405   0.00000  Uiso   1.00
O1729  O     0.42392   0.83334   0.78617   0.00000  Uiso   1.00
O1730  O     0.57608   0.83333   0.88050   0.00000  Uiso   1.00
Zn1731 Zn    0.50000   0.83333   0.88437   0.00000  Uiso   1.00
Zn1732 Zn    0.50000   0.83334   0.78229   0.00000  Uiso   1.00
N1733  N     0.65533   0.80398   0.77653   0.00000  Uiso   1.00
H1734  H     0.33954   0.77555   0.77253   0.00000  Uiso   1.00
C1735  C     0.64685   0.82690   0.73434   0.00000  Uiso   1.00
H1736  H     0.61867   0.80918   0.70889   0.00000  Uiso   1.00
H1737  H     0.35034   0.83070   0.72002   0.00000  Uiso   1.00
H1738  H     0.63083   0.85839   0.74004   0.00000  Uiso   1.00
N1739  N     0.34466   0.86269   0.89014   0.00000  Uiso   1.00
H1740  H     0.66046   0.89112   0.89414   0.00000  Uiso   1.00
C1741  C     0.35315   0.83977   0.93233   0.00000  Uiso   1.00
H1742  H     0.38133   0.85748   0.95778   0.00000  Uiso   1.00
H1743  H     0.36917   0.80827   0.92663   0.00000  Uiso   1.00
H1744  H     0.64966   0.83597   0.94664   0.00000  Uiso   1.00
N1745  N     0.57826   0.70897   0.79391   0.00000  Uiso   1.00
H1746  H     0.61501   0.69987   0.80807   0.00000  Uiso   1.00
C1747  C     0.57185   0.70774   0.74453   0.00000  Uiso   1.00
H1748  H     0.57505   0.67504   0.73161   0.00000  Uiso   1.00
H1749  H     0.60257   0.72731   0.73270   0.00000  Uiso   1.00
H1750  H     0.53349   0.72038   0.73013   0.00000  Uiso   1.00
N1751  N     0.42174   0.95770   0.87276   0.00000  Uiso   1.00
H1752  H     0.38499   0.96680   0.85860   0.00000  Uiso   1.00
C1753  C     0.42815   0.95892   0.92214   0.00000  Uiso   1.00
H1754  H     0.42495   0.99163   0.93506   0.00000  Uiso   1.00
H1755  H     0.46651   0.94628   0.93654   0.00000  Uiso   1.00
H1756  H     0.39743   0.93936   0.93396   0.00000  Uiso   1.00
N1757  N     0.55150   0.89759   0.96001   0.00000  Uiso   1.00
H1758  H     0.57497   0.88719   0.93729   0.00000  Uiso   1.00
C1759  C     0.57249   0.93389   0.98710   0.00000  Uiso   1.00
H1760  H     0.58709   0.95719   0.96449   0.00000  Uiso   1.00
H1761  H     0.60545   0.92463   0.67981   0.00000  Uiso   1.00
H1762  H     0.54170   0.94908   0.67038   0.00000  Uiso   1.00
N1763  N     0.44850   0.76908   0.70666   0.00000  Uiso   1.00
H1764  H     0.42503   0.77948   0.72937   0.00000  Uiso   1.00
C1765  C     0.42751   0.73278   0.67957   0.00000  Uiso   1.00
H1766  H     0.41292   0.70948   0.70218   0.00000  Uiso   1.00
H1767  H     0.45831   0.71759   0.99629   0.00000  Uiso   1.00
H1768  H     0.39455   0.74204   0.98685   0.00000  Uiso   1.00
C1769  C     0.83379   0.75344   0.83294   0.00000  Uiso   1.00
C1770  C     0.83288   0.91323   0.83373   0.00000  Uiso   1.00
C1771  C     0.73393   0.83319   0.82155   0.00000  Uiso   1.00
C1772  C     0.93273   0.83348   0.84511   0.00000  Uiso   1.00
C1773  C     0.67943   0.82771   0.81580   0.00000  Uiso   1.00
C1774  C     0.98724   0.83896   0.85087   0.00000  Uiso   1.00
C1775  C     0.87155   0.68752   0.81255   0.00000  Uiso   1.00
C1776  C     0.79512   0.97915   0.85412   0.00000  Uiso   1.00
C1777  C     0.87117   0.97768   0.81423   0.00000  Uiso   1.00
C1778  C     0.79549   0.68899   0.85243   0.00000  Uiso   1.00
C1779  C     0.83312   0.95735   0.83461   0.00000  Uiso   1.00
C1780  C     0.83354   0.70932   0.83206   0.00000  Uiso   1.00
C1781  C     0.85721   0.86490   0.69480   0.00000  Uiso   1.00
C1782  C     0.80946   0.80177   0.97186   0.00000  Uiso   1.00
C1783  C     0.85801   0.86511   0.98006   0.00000  Uiso   1.00
C1784  C     0.80865   0.80156   0.68660   0.00000  Uiso   1.00
H1785  H     0.90052   0.95999   0.79987   0.00000  Uiso   1.00
H1786  H     0.76615   0.70668   0.86680   0.00000  Uiso   1.00
H1787  H     0.87629   0.88939   0.71713   0.00000  Uiso   1.00
H1788  H     0.79038   0.77727   0.94954   0.00000  Uiso   1.00
N1789  N     0.83332   0.83332   0.95240   0.00000  Uiso   1.00
N1790  N     0.83335   0.83334   0.71427   0.00000  Uiso   1.00
O1791  O     0.83333   0.77225   0.87154   0.00000  Uiso   1.00
O1792  O     0.83334   0.89442   0.79513   0.00000  Uiso   1.00
O1793  O     0.83333   0.77226   0.79510   0.00000  Uiso   1.00
O1794  O     0.83334   0.89441   0.87157   0.00000  Uiso   1.00
O1795  O     0.75725   0.83333   0.86261   0.00000  Uiso   1.00
O1796  O     0.90942   0.83334   0.80405   0.00000  Uiso   1.00
O1797  O     0.75725   0.83334   0.78617   0.00000  Uiso   1.00
O1798  O     0.90942   0.83333   0.88050   0.00000  Uiso   1.00
Zn1799 Zn    0.83333   0.83333   0.88437   0.00000  Uiso   1.00
Zn1800 Zn    0.83333   0.83334   0.78229   0.00000  Uiso   1.00
N1801  N     0.98867   0.80398   0.77653   0.00000  Uiso   1.00
H1802  H     0.67287   0.77555   0.77253   0.00000  Uiso   1.00
C1803  C     0.98019   0.82690   0.73434   0.00000  Uiso   1.00
H1804  H     0.95201   0.80918   0.70889   0.00000  Uiso   1.00
H1805  H     0.68367   0.83070   0.72002   0.00000  Uiso   1.00
H1806  H     0.96416   0.85839   0.74004   0.00000  Uiso   1.00
N1807  N     0.67800   0.86269   0.89014   0.00000  Uiso   1.00
H1808  H     0.99380   0.89112   0.89414   0.00000  Uiso   1.00
C1809  C     0.68648   0.83977   0.93233   0.00000  Uiso   1.00
H1810  H     0.71466   0.85748   0.95778   0.00000  Uiso   1.00
H1811  H     0.70251   0.80827   0.92663   0.00000  Uiso   1.00
H1812  H     0.98299   0.83597   0.94664   0.00000  Uiso   1.00
N1813  N     0.91159   0.70897   0.79391   0.00000  Uiso   1.00
H1814  H     0.94834   0.69987   0.80807   0.00000  Uiso   1.00
C1815  C     0.90518   0.70774   0.74453   0.00000  Uiso   1.00
H1816  H     0.90839   0.67504   0.73161   0.00000  Uiso   1.00
H1817  H     0.93590   0.72731   0.73270   0.00000  Uiso   1.00
H1818  H     0.86683   0.72038   0.73013   0.00000  Uiso   1.00
N1819  N     0.75507   0.95770   0.87276   0.00000  Uiso   1.00
H1820  H     0.71833   0.96680   0.85860   0.00000  Uiso   1.00
C1821  C     0.76149   0.95892   0.92214   0.00000  Uiso   1.00
H1822  H     0.75829   0.99163   0.93506   0.00000  Uiso   1.00
H1823  H     0.79984   0.94628   0.93654   0.00000  Uiso   1.00
H1824  H     0.73076   0.93936   0.93396   0.00000  Uiso   1.00
N1825  N     0.88483   0.89759   0.96001   0.00000  Uiso   1.00
H1826  H     0.90831   0.88719   0.93729   0.00000  Uiso   1.00
C1827  C     0.90582   0.93389   0.98710   0.00000  Uiso   1.00
H1828  H     0.92042   0.95719   0.96449   0.00000  Uiso   1.00
H1829  H     0.93879   0.92463   0.67981   0.00000  Uiso   1.00
H1830  H     0.87503   0.94908   0.67038   0.00000  Uiso   1.00
N1831  N     0.78184   0.76908   0.70666   0.00000  Uiso   1.00
H1832  H     0.75836   0.77948   0.72937   0.00000  Uiso   1.00
C1833  C     0.76085   0.73278   0.67957   0.00000  Uiso   1.00
H1834  H     0.74625   0.70948   0.70218   0.00000  Uiso   1.00
H1835  H     0.79164   0.71759   0.99629   0.00000  Uiso   1.00
H1836  H     0.72788   0.74204   0.98685   0.00000  Uiso   1.00
loop_
_geom_bond_atom_site_label_1
_geom_bond_atom_site_label_2
_geom_bond_distance
_geom_bond_site_symmetry_2
_ccdc_geom_bond_type
C1     O25     1.280   .     A
C1     C12     1.406   .     S
C1     O23     1.281   .     A
C2     C11     1.406   .     S
C2     O24     1.281   .     A
C2     O26     1.280   .     A
C3     O27     1.275   .     A
C3     O29     1.286   .     A
C3     C5      1.410   .     S
C4     C6      1.410   .     S
C4     O28     1.275   .     A
C4     O30     1.286   .     A
C5     C142    1.358   1_455 S
C5     N169    1.433   1_455 S
C6     C73     1.358   .     S
C6     N107    1.433   .     S
C7     C12     1.401   .     A
C7     N45     1.423   .     S
C7     C417    1.378   1_545 S
C8     N51     1.423   .     S
C8     C11     1.401   .     A
C8     C214    1.378   .     S
C9     C11     1.394   .     A
C9     H17     1.085   .     S
C9     C211    1.378   .     S
C10    H18     1.085   .     S
C10    C12     1.394   .     A
C10    C416    1.378   1_545 S
C13    N22     1.358   .     A
C13    H19     1.079   .     S
C13    C1239   1.427   1_554 S
C14    H20     1.079   .     S
C14    N21     1.358   .     A
C14    C628    1.427   .     S
C15    N57     1.429   .     S
C15    N21     1.380   .     A
C15    C625    1.427   .     S
C16    N63     1.429   .     S
C16    N22     1.380   .     A
C16    C1238   1.427   1_554 S
N21    Zn31    2.014   .     S
N22    Zn32    2.014   .     S
O23    Zn31    1.976   .     S
O24    Zn32    1.976   .     S
O25    Zn32    1.991   .     S
O26    Zn31    1.991   .     S
O27    Zn31    1.987   .     S
O28    Zn32    1.987   .     S
O29    Zn32    1.999   .     S
O30    Zn31    1.999   .     S
N33    C35     1.449   .     S
N33    C73     1.433   .     S
N33    H102    1.032   .     S
H34    N169    1.032   1_455 S
C35    H36     1.110   .     S
C35    H38     1.111   .     S
C35    H105    1.110   .     S
H37    C171    1.110   1_455 S
N39    C41     1.449   .     S
N39    C142    1.433   1_455 S
N39    H176    1.032   1_455 S
H40    N107    1.032   .     S
C41    H42     1.110   .     S
C41    H43     1.111   .     S
C41    H180    1.110   1_455 S
H44    C109    1.110   .     S
N45    H46     1.032   .     S
N45    C47     1.446   .     S
C47    H50     1.108   .     S
C47    H49     1.109   .     S
C47    H48     1.111   .     S
N51    C53     1.446   .     S
N51    H52     1.032   .     S
C53    H55     1.108   .     S
C53    H56     1.109   .     S
C53    H54     1.111   .     S
N57    H58     1.026   .     S
N57    C59     1.448   .     S
C59    H60     1.111   .     S
C59    H673    1.111   .     S
C59    H674    1.111   .     S
H61    C1283   1.111   1_554 S
H62    C1283   1.111   1_554 S
N63    C65     1.448   .     S
N63    H64     1.026   .     S
C65    H66     1.111   .     S
C65    H1291   1.111   1_554 S
C65    H1292   1.111   1_554 S
H67    C677    1.111   .     S
H68    C677    1.111   .     S
C69    O93     1.280   .     A
C69    C80     1.406   .     S
C69    O91     1.281   .     A
C70    C79     1.406   .     S
C70    O92     1.281   .     A
C70    O94     1.280   .     A
C71    O95     1.275   .     A
C71    O97     1.286   .     A
C71    C73     1.410   .     S
C72    C74     1.410   .     S
C72    O96     1.275   .     A
C72    O98     1.286   .     A
C74    C141    1.358   .     S
C74    N175    1.433   .     S
C75    C80     1.401   .     A
C75    N113    1.423   .     S
C75    C485    1.378   1_545 S
C76    N119    1.423   .     S
C76    C79     1.401   .     A
C76    C282    1.378   .     S
C77    C79     1.394   .     A
C77    H85     1.085   .     S
C77    C279    1.378   .     S
C78    H86     1.085   .     S
C78    C80     1.394   .     A
C78    C484    1.378   1_545 S
C81    N90     1.358   .     A
C81    H87     1.079   .     S
C81    C1307   1.427   1_554 S
C82    H88     1.079   .     S
C82    N89     1.358   .     A
C82    C696    1.427   .     S
C83    N125    1.429   .     S
C83    N89     1.380   .     A
C83    C693    1.427   .     S
C84    N131    1.429   .     S
C84    N90     1.380   .     A
C84    C1306   1.427   1_554 S
N89    Zn99    2.014   .     S
N90    Zn100   2.014   .     S
O91    Zn99    1.976   .     S
O92    Zn100   1.976   .     S
O93    Zn100   1.991   .     S
O94    Zn99    1.991   .     S
O95    Zn99    1.987   .     S
O96    Zn100   1.987   .     S
O97    Zn100   1.999   .     S
O98    Zn99    1.999   .     S
N101   C103    1.449   .     S
N101   C141    1.433   .     S
N101   H170    1.032   .     S
C103   H104    1.110   .     S
C103   H106    1.111   .     S
C103   H173    1.110   .     S
N107   C109    1.449   .     S
H108   N175    1.032   .     S
C109   H110    1.110   .     S
C109   H111    1.111   .     S
H112   C177    1.110   .     S
N113   H114    1.032   .     S
N113   C115    1.446   .     S
C115   H118    1.108   .     S
C115   H117    1.109   .     S
C115   H116    1.111   .     S
N119   C121    1.446   .     S
N119   H120    1.032   .     S
C121   H123    1.108   .     S
C121   H124    1.109   .     S
C121   H122    1.111   .     S
N125   H126    1.026   .     S
N125   C127    1.448   .     S
C127   H128    1.111   .     S
C127   H741    1.111   .     S
C127   H742    1.111   .     S
H129   C1351   1.111   1_554 S
H130   C1351   1.111   1_554 S
N131   C133    1.448   .     S
N131   H132    1.026   .     S
C133   H134    1.111   .     S
C133   H1359   1.111   1_554 S
C133   H1360   1.111   1_554 S
H135   C745    1.111   .     S
H136   C745    1.111   .     S
C137   O161    1.280   .     A
C137   C148    1.406   .     S
C137   O159    1.281   .     A
C138   C147    1.406   .     S
C138   O160    1.281   .     A
C138   O162    1.280   .     A
C139   O163    1.275   .     A
C139   O165    1.286   .     A
C139   C141    1.410   .     S
C140   C142    1.410   .     S
C140   O164    1.275   .     A
C140   O166    1.286   .     A
C142   C5      1.358   1_655 S
C142   N39     1.433   1_655 S
C143   C148    1.401   .     A
C143   N181    1.423   .     S
C143   C553    1.378   1_545 S
C144   N187    1.423   .     S
C144   C147    1.401   .     A
C144   C350    1.378   .     S
C145   C147    1.394   .     A
C145   H153    1.085   .     S
C145   C347    1.378   .     S
C146   H154    1.085   .     S
C146   C148    1.394   .     A
C146   C552    1.378   1_545 S
C149   N158    1.358   .     A
C149   H155    1.079   .     S
C149   C1375   1.427   1_554 S
C150   H156    1.079   .     S
C150   N157    1.358   .     A
C150   C764    1.427   .     S
C151   N193    1.429   .     S
C151   N157    1.380   .     A
C151   C761    1.427   .     S
C152   N199    1.429   .     S
C152   N158    1.380   .     A
C152   C1374   1.427   1_554 S
N157   Zn167   2.014   .     S
N158   Zn168   2.014   .     S
O159   Zn167   1.976   .     S
O160   Zn168   1.976   .     S
O161   Zn168   1.991   .     S
O162   Zn167   1.991   .     S
O163   Zn167   1.987   .     S
O164   Zn168   1.987   .     S
O165   Zn168   1.999   .     S
O166   Zn167   1.999   .     S
N169   C171    1.449   .     S
N169   C5      1.433   1_655 S
N169   H34     1.032   1_655 S
C171   H172    1.110   .     S
C171   H174    1.111   .     S
C171   H37     1.110   1_655 S
N175   C177    1.449   .     S
H176   N39     1.032   1_655 S
C177   H178    1.110   .     S
C177   H179    1.111   .     S
H180   C41     1.110   1_655 S
N181   H182    1.032   .     S
N181   C183    1.446   .     S
C183   H186    1.108   .     S
C183   H185    1.109   .     S
C183   H184    1.111   .     S
N187   C189    1.446   .     S
N187   H188    1.032   .     S
C189   H191    1.108   .     S
C189   H192    1.109   .     S
C189   H190    1.111   .     S
N193   H194    1.026   .     S
N193   C195    1.448   .     S
C195   H196    1.111   .     S
C195   H809    1.111   .     S
C195   H810    1.111   .     S
H197   C1419   1.111   1_554 S
H198   C1419   1.111   1_554 S
N199   C201    1.448   .     S
N199   H200    1.026   .     S
C201   H202    1.111   .     S
C201   H1427   1.111   1_554 S
C201   H1428   1.111   1_554 S
H203   C813    1.111   .     S
H204   C813    1.111   .     S
C205   O229    1.280   .     A
C205   C216    1.406   .     S
C205   O227    1.281   .     A
C206   C215    1.406   .     S
C206   O228    1.281   .     A
C206   O230    1.280   .     A
C207   O231    1.275   .     A
C207   O233    1.286   .     A
C207   C209    1.410   .     S
C208   C210    1.410   .     S
C208   O232    1.275   .     A
C208   O234    1.286   .     A
C209   C346    1.358   1_455 S
C209   N373    1.433   1_455 S
C210   C277    1.358   .     S
C210   N311    1.433   .     S
C211   C216    1.401   .     A
C211   N249    1.423   .     S
C212   N255    1.423   .     S
C212   C215    1.401   .     A
C212   C418    1.378   .     S
C213   C215    1.394   .     A
C213   H221    1.085   .     S
C213   C415    1.378   .     S
C214   H222    1.085   .     S
C214   C216    1.394   .     A
C217   N226    1.358   .     A
C217   H223    1.079   .     S
C217   C1443   1.427   1_554 S
C218   H224    1.079   .     S
C218   N225    1.358   .     A
C218   C832    1.427   .     S
C219   N261    1.429   .     S
C219   N225    1.380   .     A
C219   C829    1.427   .     S
C220   N267    1.429   .     S
C220   N226    1.380   .     A
C220   C1442   1.427   1_554 S
N225   Zn235   2.014   .     S
N226   Zn236   2.014   .     S
O227   Zn235   1.976   .     S
O228   Zn236   1.976   .     S
O229   Zn236   1.991   .     S
O230   Zn235   1.991   .     S
O231   Zn235   1.987   .     S
O232   Zn236   1.987   .     S
O233   Zn236   1.999   .     S
O234   Zn235   1.999   .     S
N237   C239    1.449   .     S
N237   C277    1.433   .     S
N237   H306    1.032   .     S
H238   N373    1.032   1_455 S
C239   H240    1.110   .     S
C239   H242    1.111   .     S
C239   H309    1.110   .     S
H241   C375    1.110   1_455 S
N243   C245    1.449   .     S
N243   C346    1.433   1_455 S
N243   H380    1.032   1_455 S
H244   N311    1.032   .     S
C245   H246    1.110   .     S
C245   H247    1.111   .     S
C245   H384    1.110   1_455 S
H248   C313    1.110   .     S
N249   H250    1.032   .     S
N249   C251    1.446   .     S
C251   H254    1.108   .     S
C251   H253    1.109   .     S
C251   H252    1.111   .     S
N255   C257    1.446   .     S
N255   H256    1.032   .     S
C257   H259    1.108   .     S
C257   H260    1.109   .     S
C257   H258    1.111   .     S
N261   H262    1.026   .     S
N261   C263    1.448   .     S
C263   H264    1.111   .     S
C263   H877    1.111   .     S
C263   H878    1.111   .     S
H265   C1487   1.111   1_554 S
H266   C1487   1.111   1_554 S
N267   C269    1.448   .     S
N267   H268    1.026   .     S
C269   H270    1.111   .     S
C269   H1495   1.111   1_554 S
C269   H1496   1.111   1_554 S
H271   C881    1.111   .     S
H272   C881    1.111   .     S
C273   O297    1.280   .     A
C273   C284    1.406   .     S
C273   O295    1.281   .     A
C274   C283    1.406   .     S
C274   O296    1.281   .     A
C274   O298    1.280   .     A
C275   O299    1.275   .     A
C275   O301    1.286   .     A
C275   C277    1.410   .     S
C276   C278    1.410   .     S
C276   O300    1.275   .     A
C276   O302    1.286   .     A
C278   C345    1.358   .     S
C278   N379    1.433   .     S
C279   C284    1.401   .     A
C279   N317    1.423   .     S
C280   N323    1.423   .     S
C280   C283    1.401   .     A
C280   C486    1.378   .     S
C281   C283    1.394   .     A
C281   H289    1.085   .     S
C281   C483    1.378   .     S
C282   H290    1.085   .     S
C282   C284    1.394   .     A
C285   N294    1.358   .     A
C285   H291    1.079   .     S
C285   C1511   1.427   1_554 S
C286   H292    1.079   .     S
C286   N293    1.358   .     A
C286   C900    1.427   .     S
C287   N329    1.429   .     S
C287   N293    1.380   .     A
C287   C897    1.427   .     S
C288   N335    1.429   .     S
C288   N294    1.380   .     A
C288   C1510   1.427   1_554 S
N293   Zn303   2.014   .     S
N294   Zn304   2.014   .     S
O295   Zn303   1.976   .     S
O296   Zn304   1.976   .     S
O297   Zn304   1.991   .     S
O298   Zn303   1.991   .     S
O299   Zn303   1.987   .     S
O300   Zn304   1.987   .     S
O301   Zn304   1.999   .     S
O302   Zn303   1.999   .     S
N305   C307    1.449   .     S
N305   C345    1.433   .     S
N305   H374    1.032   .     S
C307   H308    1.110   .     S
C307   H310    1.111   .     S
C307   H377    1.110   .     S
N311   C313    1.449   .     S
H312   N379    1.032   .     S
C313   H314    1.110   .     S
C313   H315    1.111   .     S
H316   C381    1.110   .     S
N317   H318    1.032   .     S
N317   C319    1.446   .     S
C319   H322    1.108   .     S
C319   H321    1.109   .     S
C319   H320    1.111   .     S
N323   C325    1.446   .     S
N323   H324    1.032   .     S
C325   H327    1.108   .     S
C325   H328    1.109   .     S
C325   H326    1.111   .     S
N329   H330    1.026   .     S
N329   C331    1.448   .     S
C331   H332    1.111   .     S
C331   H945    1.111   .     S
C331   H946    1.111   .     S
H333   C1555   1.111   1_554 S
H334   C1555   1.111   1_554 S
N335   C337    1.448   .     S
N335   H336    1.026   .     S
C337   H338    1.111   .     S
C337   H1563   1.111   1_554 S
C337   H1564   1.111   1_554 S
H339   C949    1.111   .     S
H340   C949    1.111   .     S
C341   O365    1.280   .     A
C341   C352    1.406   .     S
C341   O363    1.281   .     A
C342   C351    1.406   .     S
C342   O364    1.281   .     A
C342   O366    1.280   .     A
C343   O367    1.275   .     A
C343   O369    1.286   .     A
C343   C345    1.410   .     S
C344   C346    1.410   .     S
C344   O368    1.275   .     A
C344   O370    1.286   .     A
C346   C209    1.358   1_655 S
C346   N243    1.433   1_655 S
C347   C352    1.401   .     A
C347   N385    1.423   .     S
C348   N391    1.423   .     S
C348   C351    1.401   .     A
C348   C554    1.378   .     S
C349   C351    1.394   .     A
C349   H357    1.085   .     S
C349   C551    1.378   .     S
C350   H358    1.085   .     S
C350   C352    1.394   .     A
C353   N362    1.358   .     A
C353   H359    1.079   .     S
C353   C1579   1.427   1_554 S
C354   H360    1.079   .     S
C354   N361    1.358   .     A
C354   C968    1.427   .     S
C355   N397    1.429   .     S
C355   N361    1.380   .     A
C355   C965    1.427   .     S
C356   N403    1.429   .     S
C356   N362    1.380   .     A
C356   C1578   1.427   1_554 S
N361   Zn371   2.014   .     S
N362   Zn372   2.014   .     S
O363   Zn371   1.976   .     S
O364   Zn372   1.976   .     S
O365   Zn372   1.991   .     S
O366   Zn371   1.991   .     S
O367   Zn371   1.987   .     S
O368   Zn372   1.987   .     S
O369   Zn372   1.999   .     S
O370   Zn371   1.999   .     S
N373   C375    1.449   .     S
N373   C209    1.433   1_655 S
N373   H238    1.032   1_655 S
C375   H376    1.110   .     S
C375   H378    1.111   .     S
C375   H241    1.110   1_655 S
N379   C381    1.449   .     S
H380   N243    1.032   1_655 S
C381   H382    1.110   .     S
C381   H383    1.111   .     S
H384   C245    1.110   1_655 S
N385   H386    1.032   .     S
N385   C387    1.446   .     S
C387   H390    1.108   .     S
C387   H389    1.109   .     S
C387   H388    1.111   .     S
N391   C393    1.446   .     S
N391   H392    1.032   .     S
C393   H395    1.108   .     S
C393   H396    1.109   .     S
C393   H394    1.111   .     S
N397   H398    1.026   .     S
N397   C399    1.448   .     S
C399   H400    1.111   .     S
C399   H1013   1.111   .     S
C399   H1014   1.111   .     S
H401   C1623   1.111   1_554 S
H402   C1623   1.111   1_554 S
N403   C405    1.448   .     S
N403   H404    1.026   .     S
C405   H406    1.111   .     S
C405   H1631   1.111   1_554 S
C405   H1632   1.111   1_554 S
H407   C1017   1.111   .     S
H408   C1017   1.111   .     S
C409   O433    1.280   .     A
C409   C420    1.406   .     S
C409   O431    1.281   .     A
C410   C419    1.406   .     S
C410   O432    1.281   .     A
C410   O434    1.280   .     A
C411   O435    1.275   .     A
C411   O437    1.286   .     A
C411   C413    1.410   .     S
C412   C414    1.410   .     S
C412   O436    1.275   .     A
C412   O438    1.286   .     A
C413   C550    1.358   1_455 S
C413   N577    1.433   1_455 S
C414   C481    1.358   .     S
C414   N515    1.433   .     S
C415   C420    1.401   .     A
C415   N453    1.423   .     S
C416   N459    1.423   .     S
C416   C419    1.401   .     A
C416   C10     1.378   1_565 S
C417   C419    1.394   .     A
C417   H425    1.085   .     S
C417   C7      1.378   1_565 S
C418   H426    1.085   .     S
C418   C420    1.394   .     A
C421   N430    1.358   .     A
C421   H427    1.079   .     S
C421   C1647   1.427   1_554 S
C422   H428    1.079   .     S
C422   N429    1.358   .     A
C422   C1036   1.427   .     S
C423   N465    1.429   .     S
C423   N429    1.380   .     A
C423   C1033   1.427   .     S
C424   N471    1.429   .     S
C424   N430    1.380   .     A
C424   C1646   1.427   1_554 S
N429   Zn439   2.014   .     S
N430   Zn440   2.014   .     S
O431   Zn439   1.976   .     S
O432   Zn440   1.976   .     S
O433   Zn440   1.991   .     S
O434   Zn439   1.991   .     S
O435   Zn439   1.987   .     S
O436   Zn440   1.987   .     S
O437   Zn440   1.999   .     S
O438   Zn439   1.999   .     S
N441   C443    1.449   .     S
N441   C481    1.433   .     S
N441   H510    1.032   .     S
H442   N577    1.032   1_455 S
C443   H444    1.110   .     S
C443   H446    1.111   .     S
C443   H513    1.110   .     S
H445   C579    1.110   1_455 S
N447   C449    1.449   .     S
N447   C550    1.433   1_455 S
N447   H584    1.032   1_455 S
H448   N515    1.032   .     S
C449   H450    1.110   .     S
C449   H451    1.111   .     S
C449   H588    1.110   1_455 S
H452   C517    1.110   .     S
N453   H454    1.032   .     S
N453   C455    1.446   .     S
C455   H458    1.108   .     S
C455   H457    1.109   .     S
C455   H456    1.111   .     S
N459   C461    1.446   .     S
N459   H460    1.032   .     S
C461   H463    1.108   .     S
C461   H464    1.109   .     S
C461   H462    1.111   .     S
N465   H466    1.026   .     S
N465   C467    1.448   .     S
C467   H468    1.111   .     S
C467   H1081   1.111   .     S
C467   H1082   1.111   .     S
H469   C1691   1.111   1_554 S
H470   C1691   1.111   1_554 S
N471   C473    1.448   .     S
N471   H472    1.026   .     S
C473   H474    1.111   .     S
C473   H1699   1.111   1_554 S
C473   H1700   1.111   1_554 S
H475   C1085   1.111   .     S
H476   C1085   1.111   .     S
C477   O501    1.280   .     A
C477   C488    1.406   .     S
C477   O499    1.281   .     A
C478   C487    1.406   .     S
C478   O500    1.281   .     A
C478   O502    1.280   .     A
C479   O503    1.275   .     A
C479   O505    1.286   .     A
C479   C481    1.410   .     S
C480   C482    1.410   .     S
C480   O504    1.275   .     A
C480   O506    1.286   .     A
C482   C549    1.358   .     S
C482   N583    1.433   .     S
C483   C488    1.401   .     A
C483   N521    1.423   .     S
C484   N527    1.423   .     S
C484   C487    1.401   .     A
C484   C78     1.378   1_565 S
C485   C487    1.394   .     A
C485   H493    1.085   .     S
C485   C75     1.378   1_565 S
C486   H494    1.085   .     S
C486   C488    1.394   .     A
C489   N498    1.358   .     A
C489   H495    1.079   .     S
C489   C1715   1.427   1_554 S
C490   H496    1.079   .     S
C490   N497    1.358   .     A
C490   C1104   1.427   .     S
C491   N533    1.429   .     S
C491   N497    1.380   .     A
C491   C1101   1.427   .     S
C492   N539    1.429   .     S
C492   N498    1.380   .     A
C492   C1714   1.427   1_554 S
N497   Zn507   2.014   .     S
N498   Zn508   2.014   .     S
O499   Zn507   1.976   .     S
O500   Zn508   1.976   .     S
O501   Zn508   1.991   .     S
O502   Zn507   1.991   .     S
O503   Zn507   1.987   .     S
O504   Zn508   1.987   .     S
O505   Zn508   1.999   .     S
O506   Zn507   1.999   .     S
N509   C511    1.449   .     S
N509   C549    1.433   .     S
N509   H578    1.032   .     S
C511   H512    1.110   .     S
C511   H514    1.111   .     S
C511   H581    1.110   .     S
N515   C517    1.449   .     S
H516   N583    1.032   .     S
C517   H518    1.110   .     S
C517   H519    1.111   .     S
H520   C585    1.110   .     S
N521   H522    1.032   .     S
N521   C523    1.446   .     S
C523   H526    1.108   .     S
C523   H525    1.109   .     S
C523   H524    1.111   .     S
N527   C529    1.446   .     S
N527   H528    1.032   .     S
C529   H531    1.108   .     S
C529   H532    1.109   .     S
C529   H530    1.111   .     S
N533   H534    1.026   .     S
N533   C535    1.448   .     S
C535   H536    1.111   .     S
C535   H1149   1.111   .     S
C535   H1150   1.111   .     S
H537   C1759   1.111   1_554 S
H538   C1759   1.111   1_554 S
N539   C541    1.448   .     S
N539   H540    1.026   .     S
C541   H542    1.111   .     S
C541   H1767   1.111   1_554 S
C541   H1768   1.111   1_554 S
H543   C1153   1.111   .     S
H544   C1153   1.111   .     S
C545   O569    1.280   .     A
C545   C556    1.406   .     S
C545   O567    1.281   .     A
C546   C555    1.406   .     S
C546   O568    1.281   .     A
C546   O570    1.280   .     A
C547   O571    1.275   .     A
C547   O573    1.286   .     A
C547   C549    1.410   .     S
C548   C550    1.410   .     S
C548   O572    1.275   .     A
C548   O574    1.286   .     A
C550   C413    1.358   1_655 S
C550   N447    1.433   1_655 S
C551   C556    1.401   .     A
C551   N589    1.423   .     S
C552   N595    1.423   .     S
C552   C555    1.401   .     A
C552   C146    1.378   1_565 S
C553   C555    1.394   .     A
C553   H561    1.085   .     S
C553   C143    1.378   1_565 S
C554   H562    1.085   .     S
C554   C556    1.394   .     A
C557   N566    1.358   .     A
C557   H563    1.079   .     S
C557   C1783   1.427   1_554 S
C558   H564    1.079   .     S
C558   N565    1.358   .     A
C558   C1172   1.427   .     S
C559   N601    1.429   .     S
C559   N565    1.380   .     A
C559   C1169   1.427   .     S
C560   N607    1.429   .     S
C560   N566    1.380   .     A
C560   C1782   1.427   1_554 S
N565   Zn575   2.014   .     S
N566   Zn576   2.014   .     S
O567   Zn575   1.976   .     S
O568   Zn576   1.976   .     S
O569   Zn576   1.991   .     S
O570   Zn575   1.991   .     S
O571   Zn575   1.987   .     S
O572   Zn576   1.987   .     S
O573   Zn576   1.999   .     S
O574   Zn575   1.999   .     S
N577   C579    1.449   .     S
N577   C413    1.433   1_655 S
N577   H442    1.032   1_655 S
C579   H580    1.110   .     S
C579   H582    1.111   .     S
C579   H445    1.110   1_655 S
N583   C585    1.449   .     S
H584   N447    1.032   1_655 S
C585   H586    1.110   .     S
C585   H587    1.111   .     S
H588   C449    1.110   1_655 S
N589   H590    1.032   .     S
N589   C591    1.446   .     S
C591   H594    1.108   .     S
C591   H593    1.109   .     S
C591   H592    1.111   .     S
N595   C597    1.446   .     S
N595   H596    1.032   .     S
C597   H599    1.108   .     S
C597   H600    1.109   .     S
C597   H598    1.111   .     S
N601   H602    1.026   .     S
N601   C603    1.448   .     S
C603   H604    1.111   .     S
C603   H1217   1.111   .     S
C603   H1218   1.111   .     S
H605   C1827   1.111   1_554 S
H606   C1827   1.111   1_554 S
N607   C609    1.448   .     S
N607   H608    1.026   .     S
C609   H610    1.111   .     S
C609   H1835   1.111   1_554 S
C609   H1836   1.111   1_554 S
H611   C1221   1.111   .     S
H612   C1221   1.111   .     S
C613   O637    1.280   .     A
C613   C624    1.406   .     S
C613   O635    1.281   .     A
C614   C623    1.406   .     S
C614   O636    1.281   .     A
C614   O638    1.280   .     A
C615   O639    1.275   .     A
C615   O641    1.286   .     A
C615   C617    1.410   .     S
C616   C618    1.410   .     S
C616   O640    1.275   .     A
C616   O642    1.286   .     A
C617   C754    1.358   1_455 S
C617   N781    1.433   1_455 S
C618   C685    1.358   .     S
C618   N719    1.433   .     S
C619   C624    1.401   .     A
C619   N657    1.423   .     S
C619   C1029   1.378   1_545 S
C620   N663    1.423   .     S
C620   C623    1.401   .     A
C620   C826    1.378   .     S
C621   C623    1.394   .     A
C621   H629    1.085   .     S
C621   C823    1.378   .     S
C622   H630    1.085   .     S
C622   C624    1.394   .     A
C622   C1028   1.378   1_545 S
C625   N634    1.358   .     A
C625   H631    1.079   .     S
C626   H632    1.079   .     S
C626   N633    1.358   .     A
C626   C1240   1.427   .     S
C627   N669    1.429   .     S
C627   N633    1.380   .     A
C627   C1237   1.427   .     S
C628   N675    1.429   .     S
C628   N634    1.380   .     A
N633   Zn643   2.014   .     S
N634   Zn644   2.014   .     S
O635   Zn643   1.976   .     S
O636   Zn644   1.976   .     S
O637   Zn644   1.991   .     S
O638   Zn643   1.991   .     S
O639   Zn643   1.987   .     S
O640   Zn644   1.987   .     S
O641   Zn644   1.999   .     S
O642   Zn643   1.999   .     S
N645   C647    1.449   .     S
N645   C685    1.433   .     S
N645   H714    1.032   .     S
H646   N781    1.032   1_455 S
C647   H648    1.110   .     S
C647   H650    1.111   .     S
C647   H717    1.110   .     S
H649   C783    1.110   1_455 S
N651   C653    1.449   .     S
N651   C754    1.433   1_455 S
N651   H788    1.032   1_455 S
H652   N719    1.032   .     S
C653   H654    1.110   .     S
C653   H655    1.111   .     S
C653   H792    1.110   1_455 S
H656   C721    1.110   .     S
N657   H658    1.032   .     S
N657   C659    1.446   .     S
C659   H662    1.108   .     S
C659   H661    1.109   .     S
C659   H660    1.111   .     S
N663   C665    1.446   .     S
N663   H664    1.032   .     S
C665   H667    1.108   .     S
C665   H668    1.109   .     S
C665   H666    1.111   .     S
N669   H670    1.026   .     S
N669   C671    1.448   .     S
C671   H672    1.111   .     S
C671   H1285   1.111   .     S
C671   H1286   1.111   .     S
N675   C677    1.448   .     S
N675   H676    1.026   .     S
C677   H678    1.111   .     S
H679   C1289   1.111   .     S
H680   C1289   1.111   .     S
C681   O705    1.280   .     A
C681   C692    1.406   .     S
C681   O703    1.281   .     A
C682   C691    1.406   .     S
C682   O704    1.281   .     A
C682   O706    1.280   .     A
C683   O707    1.275   .     A
C683   O709    1.286   .     A
C683   C685    1.410   .     S
C684   C686    1.410   .     S
C684   O708    1.275   .     A
C684   O710    1.286   .     A
C686   C753    1.358   .     S
C686   N787    1.433   .     S
C687   C692    1.401   .     A
C687   N725    1.423   .     S
C687   C1097   1.378   1_545 S
C688   N731    1.423   .     S
C688   C691    1.401   .     A
C688   C894    1.378   .     S
C689   C691    1.394   .     A
C689   H697    1.085   .     S
C689   C891    1.378   .     S
C690   H698    1.085   .     S
C690   C692    1.394   .     A
C690   C1096   1.378   1_545 S
C693   N702    1.358   .     A
C693   H699    1.079   .     S
C694   H700    1.079   .     S
C694   N701    1.358   .     A
C694   C1308   1.427   .     S
C695   N737    1.429   .     S
C695   N701    1.380   .     A
C695   C1305   1.427   .     S
C696   N743    1.429   .     S
C696   N702    1.380   .     A
N701   Zn711   2.014   .     S
N702   Zn712   2.014   .     S
O703   Zn711   1.976   .     S
O704   Zn712   1.976   .     S
O705   Zn712   1.991   .     S
O706   Zn711   1.991   .     S
O707   Zn711   1.987   .     S
O708   Zn712   1.987   .     S
O709   Zn712   1.999   .     S
O710   Zn711   1.999   .     S
N713   C715    1.449   .     S
N713   C753    1.433   .     S
N713   H782    1.032   .     S
C715   H716    1.110   .     S
C715   H718    1.111   .     S
C715   H785    1.110   .     S
N719   C721    1.449   .     S
H720   N787    1.032   .     S
C721   H722    1.110   .     S
C721   H723    1.111   .     S
H724   C789    1.110   .     S
N725   H726    1.032   .     S
N725   C727    1.446   .     S
C727   H730    1.108   .     S
C727   H729    1.109   .     S
C727   H728    1.111   .     S
N731   C733    1.446   .     S
N731   H732    1.032   .     S
C733   H735    1.108   .     S
C733   H736    1.109   .     S
C733   H734    1.111   .     S
N737   H738    1.026   .     S
N737   C739    1.448   .     S
C739   H740    1.111   .     S
C739   H1353   1.111   .     S
C739   H1354   1.111   .     S
N743   C745    1.448   .     S
N743   H744    1.026   .     S
C745   H746    1.111   .     S
H747   C1357   1.111   .     S
H748   C1357   1.111   .     S
C749   O773    1.280   .     A
C749   C760    1.406   .     S
C749   O771    1.281   .     A
C750   C759    1.406   .     S
C750   O772    1.281   .     A
C750   O774    1.280   .     A
C751   O775    1.275   .     A
C751   O777    1.286   .     A
C751   C753    1.410   .     S
C752   C754    1.410   .     S
C752   O776    1.275   .     A
C752   O778    1.286   .     A
C754   C617    1.358   1_655 S
C754   N651    1.433   1_655 S
C755   C760    1.401   .     A
C755   N793    1.423   .     S
C755   C1165   1.378   1_545 S
C756   N799    1.423   .     S
C756   C759    1.401   .     A
C756   C962    1.378   .     S
C757   C759    1.394   .     A
C757   H765    1.085   .     S
C757   C959    1.378   .     S
C758   H766    1.085   .     S
C758   C760    1.394   .     A
C758   C1164   1.378   1_545 S
C761   N770    1.358   .     A
C761   H767    1.079   .     S
C762   H768    1.079   .     S
C762   N769    1.358   .     A
C762   C1376   1.427   .     S
C763   N805    1.429   .     S
C763   N769    1.380   .     A
C763   C1373   1.427   .     S
C764   N811    1.429   .     S
C764   N770    1.380   .     A
N769   Zn779   2.014   .     S
N770   Zn780   2.014   .     S
O771   Zn779   1.976   .     S
O772   Zn780   1.976   .     S
O773   Zn780   1.991   .     S
O774   Zn779   1.991   .     S
O775   Zn779   1.987   .     S
O776   Zn780   1.987   .     S
O777   Zn780   1.999   .     S
O778   Zn779   1.999   .     S
N781   C783    1.449   .     S
N781   C617    1.433   1_655 S
N781   H646    1.032   1_655 S
C783   H784    1.110   .     S
C783   H786    1.111   .     S
C783   H649    1.110   1_655 S
N787   C789    1.449   .     S
H788   N651    1.032   1_655 S
C789   H790    1.110   .     S
C789   H791    1.111   .     S
H792   C653    1.110   1_655 S
N793   H794    1.032   .     S
N793   C795    1.446   .     S
C795   H798    1.108   .     S
C795   H797    1.109   .     S
C795   H796    1.111   .     S
N799   C801    1.446   .     S
N799   H800    1.032   .     S
C801   H803    1.108   .     S
C801   H804    1.109   .     S
C801   H802    1.111   .     S
N805   H806    1.026   .     S
N805   C807    1.448   .     S
C807   H808    1.111   .     S
C807   H1421   1.111   .     S
C807   H1422   1.111   .     S
N811   C813    1.448   .     S
N811   H812    1.026   .     S
C813   H814    1.111   .     S
H815   C1425   1.111   .     S
H816   C1425   1.111   .     S
C817   O841    1.280   .     A
C817   C828    1.406   .     S
C817   O839    1.281   .     A
C818   C827    1.406   .     S
C818   O840    1.281   .     A
C818   O842    1.280   .     A
C819   O843    1.275   .     A
C819   O845    1.286   .     A
C819   C821    1.410   .     S
C820   C822    1.410   .     S
C820   O844    1.275   .     A
C820   O846    1.286   .     A
C821   C958    1.358   1_455 S
C821   N985    1.433   1_455 S
C822   C889    1.358   .     S
C822   N923    1.433   .     S
C823   C828    1.401   .     A
C823   N861    1.423   .     S
C824   N867    1.423   .     S
C824   C827    1.401   .     A
C824   C1030   1.378   .     S
C825   C827    1.394   .     A
C825   H833    1.085   .     S
C825   C1027   1.378   .     S
C826   H834    1.085   .     S
C826   C828    1.394   .     A
C829   N838    1.358   .     A
C829   H835    1.079   .     S
C830   H836    1.079   .     S
C830   N837    1.358   .     A
C830   C1444   1.427   .     S
C831   N873    1.429   .     S
C831   N837    1.380   .     A
C831   C1441   1.427   .     S
C832   N879    1.429   .     S
C832   N838    1.380   .     A
N837   Zn847   2.014   .     S
N838   Zn848   2.014   .     S
O839   Zn847   1.976   .     S
O840   Zn848   1.976   .     S
O841   Zn848   1.991   .     S
O842   Zn847   1.991   .     S
O843   Zn847   1.987   .     S
O844   Zn848   1.987   .     S
O845   Zn848   1.999   .     S
O846   Zn847   1.999   .     S
N849   C851    1.449   .     S
N849   C889    1.433   .     S
N849   H918    1.032   .     S
H850   N985    1.032   1_455 S
C851   H852    1.110   .     S
C851   H854    1.111   .     S
C851   H921    1.110   .     S
H853   C987    1.110   1_455 S
N855   C857    1.449   .     S
N855   C958    1.433   1_455 S
N855   H992    1.032   1_455 S
H856   N923    1.032   .     S
C857   H858    1.110   .     S
C857   H859    1.111   .     S
C857   H996    1.110   1_455 S
H860   C925    1.110   .     S
N861   H862    1.032   .     S
N861   C863    1.446   .     S
C863   H866    1.108   .     S
C863   H865    1.109   .     S
C863   H864    1.111   .     S
N867   C869    1.446   .     S
N867   H868    1.032   .     S
C869   H871    1.108   .     S
C869   H872    1.109   .     S
C869   H870    1.111   .     S
N873   H874    1.026   .     S
N873   C875    1.448   .     S
C875   H876    1.111   .     S
C875   H1489   1.111   .     S
C875   H1490   1.111   .     S
N879   C881    1.448   .     S
N879   H880    1.026   .     S
C881   H882    1.111   .     S
H883   C1493   1.111   .     S
H884   C1493   1.111   .     S
C885   O909    1.280   .     A
C885   C896    1.406   .     S
C885   O907    1.281   .     A
C886   C895    1.406   .     S
C886   O908    1.281   .     A
C886   O910    1.280   .     A
C887   O911    1.275   .     A
C887   O913    1.286   .     A
C887   C889    1.410   .     S
C888   C890    1.410   .     S
C888   O912    1.275   .     A
C888   O914    1.286   .     A
C890   C957    1.358   .     S
C890   N991    1.433   .     S
C891   C896    1.401   .     A
C891   N929    1.423   .     S
C892   N935    1.423   .     S
C892   C895    1.401   .     A
C892   C1098   1.378   .     S
C893   C895    1.394   .     A
C893   H901    1.085   .     S
C893   C1095   1.378   .     S
C894   H902    1.085   .     S
C894   C896    1.394   .     A
C897   N906    1.358   .     A
C897   H903    1.079   .     S
C898   H904    1.079   .     S
C898   N905    1.358   .     A
C898   C1512   1.427   .     S
C899   N941    1.429   .     S
C899   N905    1.380   .     A
C899   C1509   1.427   .     S
C900   N947    1.429   .     S
C900   N906    1.380   .     A
N905   Zn915   2.014   .     S
N906   Zn916   2.014   .     S
O907   Zn915   1.976   .     S
O908   Zn916   1.976   .     S
O909   Zn916   1.991   .     S
O910   Zn915   1.991   .     S
O911   Zn915   1.987   .     S
O912   Zn916   1.987   .     S
O913   Zn916   1.999   .     S
O914   Zn915   1.999   .     S
N917   C919    1.449   .     S
N917   C957    1.433   .     S
N917   H986    1.032   .     S
C919   H920    1.110   .     S
C919   H922    1.111   .     S
C919   H989    1.110   .     S
N923   C925    1.449   .     S
H924   N991    1.032   .     S
C925   H926    1.110   .     S
C925   H927    1.111   .     S
H928   C993    1.110   .     S
N929   H930    1.032   .     S
N929   C931    1.446   .     S
C931   H934    1.108   .     S
C931   H933    1.109   .     S
C931   H932    1.111   .     S
N935   C937    1.446   .     S
N935   H936    1.032   .     S
C937   H939    1.108   .     S
C937   H940    1.109   .     S
C937   H938    1.111   .     S
N941   H942    1.026   .     S
N941   C943    1.448   .     S
C943   H944    1.111   .     S
C943   H1557   1.111   .     S
C943   H1558   1.111   .     S
N947   C949    1.448   .     S
N947   H948    1.026   .     S
C949   H950    1.111   .     S
H951   C1561   1.111   .     S
H952   C1561   1.111   .     S
C953   O977    1.280   .     A
C953   C964    1.406   .     S
C953   O975    1.281   .     A
C954   C963    1.406   .     S
C954   O976    1.281   .     A
C954   O978    1.280   .     A
C955   O979    1.275   .     A
C955   O981    1.286   .     A
C955   C957    1.410   .     S
C956   C958    1.410   .     S
C956   O980    1.275   .     A
C956   O982    1.286   .     A
C958   C821    1.358   1_655 S
C958   N855    1.433   1_655 S
C959   C964    1.401   .     A
C959   N997    1.423   .     S
C960   N1003   1.423   .     S
C960   C963    1.401   .     A
C960   C1166   1.378   .     S
C961   C963    1.394   .     A
C961   H969    1.085   .     S
C961   C1163   1.378   .     S
C962   H970    1.085   .     S
C962   C964    1.394   .     A
C965   N974    1.358   .     A
C965   H971    1.079   .     S
C966   H972    1.079   .     S
C966   N973    1.358   .     A
C966   C1580   1.427   .     S
C967   N1009   1.429   .     S
C967   N973    1.380   .     A
C967   C1577   1.427   .     S
C968   N1015   1.429   .     S
C968   N974    1.380   .     A
N973   Zn983   2.014   .     S
N974   Zn984   2.014   .     S
O975   Zn983   1.976   .     S
O976   Zn984   1.976   .     S
O977   Zn984   1.991   .     S
O978   Zn983   1.991   .     S
O979   Zn983   1.987   .     S
O980   Zn984   1.987   .     S
O981   Zn984   1.999   .     S
O982   Zn983   1.999   .     S
N985   C987    1.449   .     S
N985   C821    1.433   1_655 S
N985   H850    1.032   1_655 S
C987   H988    1.110   .     S
C987   H990    1.111   .     S
C987   H853    1.110   1_655 S
N991   C993    1.449   .     S
H992   N855    1.032   1_655 S
C993   H994    1.110   .     S
C993   H995    1.111   .     S
H996   C857    1.110   1_655 S
N997   H998    1.032   .     S
N997   C999    1.446   .     S
C999   H1002   1.108   .     S
C999   H1001   1.109   .     S
C999   H1000   1.111   .     S
N1003  C1005   1.446   .     S
N1003  H1004   1.032   .     S
C1005  H1007   1.108   .     S
C1005  H1008   1.109   .     S
C1005  H1006   1.111   .     S
N1009  H1010   1.026   .     S
N1009  C1011   1.448   .     S
C1011  H1012   1.111   .     S
C1011  H1625   1.111   .     S
C1011  H1626   1.111   .     S
N1015  C1017   1.448   .     S
N1015  H1016   1.026   .     S
C1017  H1018   1.111   .     S
H1019  C1629   1.111   .     S
H1020  C1629   1.111   .     S
C1021  O1045   1.280   .     A
C1021  C1032   1.406   .     S
C1021  O1043   1.281   .     A
C1022  C1031   1.406   .     S
C1022  O1044   1.281   .     A
C1022  O1046   1.280   .     A
C1023  O1047   1.275   .     A
C1023  O1049   1.286   .     A
C1023  C1025   1.410   .     S
C1024  C1026   1.410   .     S
C1024  O1048   1.275   .     A
C1024  O1050   1.286   .     A
C1025  C1162   1.358   1_455 S
C1025  N1189   1.433   1_455 S
C1026  C1093   1.358   .     S
C1026  N1127   1.433   .     S
C1027  C1032   1.401   .     A
C1027  N1065   1.423   .     S
C1028  N1071   1.423   .     S
C1028  C1031   1.401   .     A
C1028  C622    1.378   1_565 S
C1029  C1031   1.394   .     A
C1029  H1037   1.085   .     S
C1029  C619    1.378   1_565 S
C1030  H1038   1.085   .     S
C1030  C1032   1.394   .     A
C1033  N1042   1.358   .     A
C1033  H1039   1.079   .     S
C1034  H1040   1.079   .     S
C1034  N1041   1.358   .     A
C1034  C1648   1.427   .     S
C1035  N1077   1.429   .     S
C1035  N1041   1.380   .     A
C1035  C1645   1.427   .     S
C1036  N1083   1.429   .     S
C1036  N1042   1.380   .     A
N1041  Zn1051  2.014   .     S
N1042  Zn1052  2.014   .     S
O1043  Zn1051  1.976   .     S
O1044  Zn1052  1.976   .     S
O1045  Zn1052  1.991   .     S
O1046  Zn1051  1.991   .     S
O1047  Zn1051  1.987   .     S
O1048  Zn1052  1.987   .     S
O1049  Zn1052  1.999   .     S
O1050  Zn1051  1.999   .     S
N1053  C1055   1.449   .     S
N1053  C1093   1.433   .     S
N1053  H1122   1.032   .     S
H1054  N1189   1.032   1_455 S
C1055  H1056   1.110   .     S
C1055  H1058   1.111   .     S
C1055  H1125   1.110   .     S
H1057  C1191   1.110   1_455 S
N1059  C1061   1.449   .     S
N1059  C1162   1.433   1_455 S
N1059  H1196   1.032   1_455 S
H1060  N1127   1.032   .     S
C1061  H1062   1.110   .     S
C1061  H1063   1.111   .     S
C1061  H1200   1.110   1_455 S
H1064  C1129   1.110   .     S
N1065  H1066   1.032   .     S
N1065  C1067   1.446   .     S
C1067  H1070   1.108   .     S
C1067  H1069   1.109   .     S
C1067  H1068   1.111   .     S
N1071  C1073   1.446   .     S
N1071  H1072   1.032   .     S
C1073  H1075   1.108   .     S
C1073  H1076   1.109   .     S
C1073  H1074   1.111   .     S
N1077  H1078   1.026   .     S
N1077  C1079   1.448   .     S
C1079  H1080   1.111   .     S
C1079  H1693   1.111   .     S
C1079  H1694   1.111   .     S
N1083  C1085   1.448   .     S
N1083  H1084   1.026   .     S
C1085  H1086   1.111   .     S
H1087  C1697   1.111   .     S
H1088  C1697   1.111   .     S
C1089  O1113   1.280   .     A
C1089  C1100   1.406   .     S
C1089  O1111   1.281   .     A
C1090  C1099   1.406   .     S
C1090  O1112   1.281   .     A
C1090  O1114   1.280   .     A
C1091  O1115   1.275   .     A
C1091  O1117   1.286   .     A
C1091  C1093   1.410   .     S
C1092  C1094   1.410   .     S
C1092  O1116   1.275   .     A
C1092  O1118   1.286   .     A
C1094  C1161   1.358   .     S
C1094  N1195   1.433   .     S
C1095  C1100   1.401   .     A
C1095  N1133   1.423   .     S
C1096  N1139   1.423   .     S
C1096  C1099   1.401   .     A
C1096  C690    1.378   1_565 S
C1097  C1099   1.394   .     A
C1097  H1105   1.085   .     S
C1097  C687    1.378   1_565 S
C1098  H1106   1.085   .     S
C1098  C1100   1.394   .     A
C1101  N1110   1.358   .     A
C1101  H1107   1.079   .     S
C1102  H1108   1.079   .     S
C1102  N1109   1.358   .     A
C1102  C1716   1.427   .     S
C1103  N1145   1.429   .     S
C1103  N1109   1.380   .     A
C1103  C1713   1.427   .     S
C1104  N1151   1.429   .     S
C1104  N1110   1.380   .     A
N1109  Zn1119  2.014   .     S
N1110  Zn1120  2.014   .     S
O1111  Zn1119  1.976   .     S
O1112  Zn1120  1.976   .     S
O1113  Zn1120  1.991   .     S
O1114  Zn1119  1.991   .     S
O1115  Zn1119  1.987   .     S
O1116  Zn1120  1.987   .     S
O1117  Zn1120  1.999   .     S
O1118  Zn1119  1.999   .     S
N1121  C1123   1.449   .     S
N1121  C1161   1.433   .     S
N1121  H1190   1.032   .     S
C1123  H1124   1.110   .     S
C1123  H1126   1.111   .     S
C1123  H1193   1.110   .     S
N1127  C1129   1.449   .     S
H1128  N1195   1.032   .     S
C1129  H1130   1.110   .     S
C1129  H1131   1.111   .     S
H1132  C1197   1.110   .     S
N1133  H1134   1.032   .     S
N1133  C1135   1.446   .     S
C1135  H1138   1.108   .     S
C1135  H1137   1.109   .     S
C1135  H1136   1.111   .     S
N1139  C1141   1.446   .     S
N1139  H1140   1.032   .     S
C1141  H1143   1.108   .     S
C1141  H1144   1.109   .     S
C1141  H1142   1.111   .     S
N1145  H1146   1.026   .     S
N1145  C1147   1.448   .     S
C1147  H1148   1.111   .     S
C1147  H1761   1.111   .     S
C1147  H1762   1.111   .     S
N1151  C1153   1.448   .     S
N1151  H1152   1.026   .     S
C1153  H1154   1.111   .     S
H1155  C1765   1.111   .     S
H1156  C1765   1.111   .     S
C1157  O1181   1.280   .     A
C1157  C1168   1.406   .     S
C1157  O1179   1.281   .     A
C1158  C1167   1.406   .     S
C1158  O1180   1.281   .     A
C1158  O1182   1.280   .     A
C1159  O1183   1.275   .     A
C1159  O1185   1.286   .     A
C1159  C1161   1.410   .     S
C1160  C1162   1.410   .     S
C1160  O1184   1.275   .     A
C1160  O1186   1.286   .     A
C1162  C1025   1.358   1_655 S
C1162  N1059   1.433   1_655 S
C1163  C1168   1.401   .     A
C1163  N1201   1.423   .     S
C1164  N1207   1.423   .     S
C1164  C1167   1.401   .     A
C1164  C758    1.378   1_565 S
C1165  C1167   1.394   .     A
C1165  H1173   1.085   .     S
C1165  C755    1.378   1_565 S
C1166  H1174   1.085   .     S
C1166  C1168   1.394   .     A
C1169  N1178   1.358   .     A
C1169  H1175   1.079   .     S
C1170  H1176   1.079   .     S
C1170  N1177   1.358   .     A
C1170  C1784   1.427   .     S
C1171  N1213   1.429   .     S
C1171  N1177   1.380   .     A
C1171  C1781   1.427   .     S
C1172  N1219   1.429   .     S
C1172  N1178   1.380   .     A
N1177  Zn1187  2.014   .     S
N1178  Zn1188  2.014   .     S
O1179  Zn1187  1.976   .     S
O1180  Zn1188  1.976   .     S
O1181  Zn1188  1.991   .     S
O1182  Zn1187  1.991   .     S
O1183  Zn1187  1.987   .     S
O1184  Zn1188  1.987   .     S
O1185  Zn1188  1.999   .     S
O1186  Zn1187  1.999   .     S
N1189  C1191   1.449   .     S
N1189  C1025   1.433   1_655 S
N1189  H1054   1.032   1_655 S
C1191  H1192   1.110   .     S
C1191  H1194   1.111   .     S
C1191  H1057   1.110   1_655 S
N1195  C1197   1.449   .     S
H1196  N1059   1.032   1_655 S
C1197  H1198   1.110   .     S
C1197  H1199   1.111   .     S
H1200  C1061   1.110   1_655 S
N1201  H1202   1.032   .     S
N1201  C1203   1.446   .     S
C1203  H1206   1.108   .     S
C1203  H1205   1.109   .     S
C1203  H1204   1.111   .     S
N1207  C1209   1.446   .     S
N1207  H1208   1.032   .     S
C1209  H1211   1.108   .     S
C1209  H1212   1.109   .     S
C1209  H1210   1.111   .     S
N1213  H1214   1.026   .     S
N1213  C1215   1.448   .     S
C1215  H1216   1.111   .     S
C1215  H1829   1.111   .     S
C1215  H1830   1.111   .     S
N1219  C1221   1.448   .     S
N1219  H1220   1.026   .     S
C1221  H1222   1.111   .     S
H1223  C1833   1.111   .     S
H1224  C1833   1.111   .     S
C1225  O1249   1.280   .     A
C1225  C1236   1.406   .     S
C1225  O1247   1.281   .     A
C1226  C1235   1.406   .     S
C1226  O1248   1.281   .     A
C1226  O1250   1.280   .     A
C1227  O1251   1.275   .     A
C1227  O1253   1.286   .     A
C1227  C1229   1.410   .     S
C1228  C1230   1.410   .     S
C1228  O1252   1.275   .     A
C1228  O1254   1.286   .     A
C1229  C1366   1.358   1_455 S
C1229  N1393   1.433   1_455 S
C1230  C1297   1.358   .     S
C1230  N1331   1.433   .     S
C1231  C1236   1.401   .     A
C1231  N1269   1.423   .     S
C1231  C1641   1.378   1_545 S
C1232  N1275   1.423   .     S
C1232  C1235   1.401   .     A
C1232  C1438   1.378   .     S
C1233  C1235   1.394   .     A
C1233  H1241   1.085   .     S
C1233  C1435   1.378   .     S
C1234  H1242   1.085   .     S
C1234  C1236   1.394   .     A
C1234  C1640   1.378   1_545 S
C1237  N1246   1.358   .     A
C1237  H1243   1.079   .     S
C1238  H1244   1.079   .     S
C1238  N1245   1.358   .     A
C1238  C16     1.427   1_556 S
C1239  N1281   1.429   .     S
C1239  N1245   1.380   .     A
C1239  C13     1.427   1_556 S
C1240  N1287   1.429   .     S
C1240  N1246   1.380   .     A
N1245  Zn1255  2.014   .     S
N1246  Zn1256  2.014   .     S
O1247  Zn1255  1.976   .     S
O1248  Zn1256  1.976   .     S
O1249  Zn1256  1.991   .     S
O1250  Zn1255  1.991   .     S
O1251  Zn1255  1.987   .     S
O1252  Zn1256  1.987   .     S
O1253  Zn1256  1.999   .     S
O1254  Zn1255  1.999   .     S
N1257  C1259   1.449   .     S
N1257  C1297   1.433   .     S
N1257  H1326   1.032   .     S
H1258  N1393   1.032   1_455 S
C1259  H1260   1.110   .     S
C1259  H1262   1.111   .     S
C1259  H1329   1.110   .     S
H1261  C1395   1.110   1_455 S
N1263  C1265   1.449   .     S
N1263  C1366   1.433   1_455 S
N1263  H1400   1.032   1_455 S
H1264  N1331   1.032   .     S
C1265  H1266   1.110   .     S
C1265  H1267   1.111   .     S
C1265  H1404   1.110   1_455 S
H1268  C1333   1.110   .     S
N1269  H1270   1.032   .     S
N1269  C1271   1.446   .     S
C1271  H1274   1.108   .     S
C1271  H1273   1.109   .     S
C1271  H1272   1.111   .     S
N1275  C1277   1.446   .     S
N1275  H1276   1.032   .     S
C1277  H1279   1.108   .     S
C1277  H1280   1.109   .     S
C1277  H1278   1.111   .     S
N1281  H1282   1.026   .     S
N1281  C1283   1.448   .     S
C1283  H1284   1.111   .     S
C1283  H61     1.111   1_556 S
C1283  H62     1.111   1_556 S
N1287  C1289   1.448   .     S
N1287  H1288   1.026   .     S
C1289  H1290   1.111   .     S
H1291  C65     1.111   1_556 S
H1292  C65     1.111   1_556 S
C1293  O1317   1.280   .     A
C1293  C1304   1.406   .     S
C1293  O1315   1.281   .     A
C1294  C1303   1.406   .     S
C1294  O1316   1.281   .     A
C1294  O1318   1.280   .     A
C1295  O1319   1.275   .     A
C1295  O1321   1.286   .     A
C1295  C1297   1.410   .     S
C1296  C1298   1.410   .     S
C1296  O1320   1.275   .     A
C1296  O1322   1.286   .     A
C1298  C1365   1.358   .     S
C1298  N1399   1.433   .     S
C1299  C1304   1.401   .     A
C1299  N1337   1.423   .     S
C1299  C1709   1.378   1_545 S
C1300  N1343   1.423   .     S
C1300  C1303   1.401   .     A
C1300  C1506   1.378   .     S
C1301  C1303   1.394   .     A
C1301  H1309   1.085   .     S
C1301  C1503   1.378   .     S
C1302  H1310   1.085   .     S
C1302  C1304   1.394   .     A
C1302  C1708   1.378   1_545 S
C1305  N1314   1.358   .     A
C1305  H1311   1.079   .     S
C1306  H1312   1.079   .     S
C1306  N1313   1.358   .     A
C1306  C84     1.427   1_556 S
C1307  N1349   1.429   .     S
C1307  N1313   1.380   .     A
C1307  C81     1.427   1_556 S
C1308  N1355   1.429   .     S
C1308  N1314   1.380   .     A
N1313  Zn1323  2.014   .     S
N1314  Zn1324  2.014   .     S
O1315  Zn1323  1.976   .     S
O1316  Zn1324  1.976   .     S
O1317  Zn1324  1.991   .     S
O1318  Zn1323  1.991   .     S
O1319  Zn1323  1.987   .     S
O1320  Zn1324  1.987   .     S
O1321  Zn1324  1.999   .     S
O1322  Zn1323  1.999   .     S
N1325  C1327   1.449   .     S
N1325  C1365   1.433   .     S
N1325  H1394   1.032   .     S
C1327  H1328   1.110   .     S
C1327  H1330   1.111   .     S
C1327  H1397   1.110   .     S
N1331  C1333   1.449   .     S
H1332  N1399   1.032   .     S
C1333  H1334   1.110   .     S
C1333  H1335   1.111   .     S
H1336  C1401   1.110   .     S
N1337  H1338   1.032   .     S
N1337  C1339   1.446   .     S
C1339  H1342   1.108   .     S
C1339  H1341   1.109   .     S
C1339  H1340   1.111   .     S
N1343  C1345   1.446   .     S
N1343  H1344   1.032   .     S
C1345  H1347   1.108   .     S
C1345  H1348   1.109   .     S
C1345  H1346   1.111   .     S
N1349  H1350   1.026   .     S
N1349  C1351   1.448   .     S
C1351  H1352   1.111   .     S
C1351  H129    1.111   1_556 S
C1351  H130    1.111   1_556 S
N1355  C1357   1.448   .     S
N1355  H1356   1.026   .     S
C1357  H1358   1.111   .     S
H1359  C133    1.111   1_556 S
H1360  C133    1.111   1_556 S
C1361  O1385   1.280   .     A
C1361  C1372   1.406   .     S
C1361  O1383   1.281   .     A
C1362  C1371   1.406   .     S
C1362  O1384   1.281   .     A
C1362  O1386   1.280   .     A
C1363  O1387   1.275   .     A
C1363  O1389   1.286   .     A
C1363  C1365   1.410   .     S
C1364  C1366   1.410   .     S
C1364  O1388   1.275   .     A
C1364  O1390   1.286   .     A
C1366  C1229   1.358   1_655 S
C1366  N1263   1.433   1_655 S
C1367  C1372   1.401   .     A
C1367  N1405   1.423   .     S
C1367  C1777   1.378   1_545 S
C1368  N1411   1.423   .     S
C1368  C1371   1.401   .     A
C1368  C1574   1.378   .     S
C1369  C1371   1.394   .     A
C1369  H1377   1.085   .     S
C1369  C1571   1.378   .     S
C1370  H1378   1.085   .     S
C1370  C1372   1.394   .     A
C1370  C1776   1.378   1_545 S
C1373  N1382   1.358   .     A
C1373  H1379   1.079   .     S
C1374  H1380   1.079   .     S
C1374  N1381   1.358   .     A
C1374  C152    1.427   1_556 S
C1375  N1417   1.429   .     S
C1375  N1381   1.380   .     A
C1375  C149    1.427   1_556 S
C1376  N1423   1.429   .     S
C1376  N1382   1.380   .     A
N1381  Zn1391  2.014   .     S
N1382  Zn1392  2.014   .     S
O1383  Zn1391  1.976   .     S
O1384  Zn1392  1.976   .     S
O1385  Zn1392  1.991   .     S
O1386  Zn1391  1.991   .     S
O1387  Zn1391  1.987   .     S
O1388  Zn1392  1.987   .     S
O1389  Zn1392  1.999   .     S
O1390  Zn1391  1.999   .     S
N1393  C1395   1.449   .     S
N1393  C1229   1.433   1_655 S
N1393  H1258   1.032   1_655 S
C1395  H1396   1.110   .     S
C1395  H1398   1.111   .     S
C1395  H1261   1.110   1_655 S
N1399  C1401   1.449   .     S
H1400  N1263   1.032   1_655 S
C1401  H1402   1.110   .     S
C1401  H1403   1.111   .     S
H1404  C1265   1.110   1_655 S
N1405  H1406   1.032   .     S
N1405  C1407   1.446   .     S
C1407  H1410   1.108   .     S
C1407  H1409   1.109   .     S
C1407  H1408   1.111   .     S
N1411  C1413   1.446   .     S
N1411  H1412   1.032   .     S
C1413  H1415   1.108   .     S
C1413  H1416   1.109   .     S
C1413  H1414   1.111   .     S
N1417  H1418   1.026   .     S
N1417  C1419   1.448   .     S
C1419  H1420   1.111   .     S
C1419  H197    1.111   1_556 S
C1419  H198    1.111   1_556 S
N1423  C1425   1.448   .     S
N1423  H1424   1.026   .     S
C1425  H1426   1.111   .     S
H1427  C201    1.111   1_556 S
H1428  C201    1.111   1_556 S
C1429  O1453   1.280   .     A
C1429  C1440   1.406   .     S
C1429  O1451   1.281   .     A
C1430  C1439   1.406   .     S
C1430  O1452   1.281   .     A
C1430  O1454   1.280   .     A
C1431  O1455   1.275   .     A
C1431  O1457   1.286   .     A
C1431  C1433   1.410   .     S
C1432  C1434   1.410   .     S
C1432  O1456   1.275   .     A
C1432  O1458   1.286   .     A
C1433  C1570   1.358   1_455 S
C1433  N1597   1.433   1_455 S
C1434  C1501   1.358   .     S
C1434  N1535   1.433   .     S
C1435  C1440   1.401   .     A
C1435  N1473   1.423   .     S
C1436  N1479   1.423   .     S
C1436  C1439   1.401   .     A
C1436  C1642   1.378   .     S
C1437  C1439   1.394   .     A
C1437  H1445   1.085   .     S
C1437  C1639   1.378   .     S
C1438  H1446   1.085   .     S
C1438  C1440   1.394   .     A
C1441  N1450   1.358   .     A
C1441  H1447   1.079   .     S
C1442  H1448   1.079   .     S
C1442  N1449   1.358   .     A
C1442  C220    1.427   1_556 S
C1443  N1485   1.429   .     S
C1443  N1449   1.380   .     A
C1443  C217    1.427   1_556 S
C1444  N1491   1.429   .     S
C1444  N1450   1.380   .     A
N1449  Zn1459  2.014   .     S
N1450  Zn1460  2.014   .     S
O1451  Zn1459  1.976   .     S
O1452  Zn1460  1.976   .     S
O1453  Zn1460  1.991   .     S
O1454  Zn1459  1.991   .     S
O1455  Zn1459  1.987   .     S
O1456  Zn1460  1.987   .     S
O1457  Zn1460  1.999   .     S
O1458  Zn1459  1.999   .     S
N1461  C1463   1.449   .     S
N1461  C1501   1.433   .     S
N1461  H1530   1.032   .     S
H1462  N1597   1.032   1_455 S
C1463  H1464   1.110   .     S
C1463  H1466   1.111   .     S
C1463  H1533   1.110   .     S
H1465  C1599   1.110   1_455 S
N1467  C1469   1.449   .     S
N1467  C1570   1.433   1_455 S
N1467  H1604   1.032   1_455 S
H1468  N1535   1.032   .     S
C1469  H1470   1.110   .     S
C1469  H1471   1.111   .     S
C1469  H1608   1.110   1_455 S
H1472  C1537   1.110   .     S
N1473  H1474   1.032   .     S
N1473  C1475   1.446   .     S
C1475  H1478   1.108   .     S
C1475  H1477   1.109   .     S
C1475  H1476   1.111   .     S
N1479  C1481   1.446   .     S
N1479  H1480   1.032   .     S
C1481  H1483   1.108   .     S
C1481  H1484   1.109   .     S
C1481  H1482   1.111   .     S
N1485  H1486   1.026   .     S
N1485  C1487   1.448   .     S
C1487  H1488   1.111   .     S
C1487  H265    1.111   1_556 S
C1487  H266    1.111   1_556 S
N1491  C1493   1.448   .     S
N1491  H1492   1.026   .     S
C1493  H1494   1.111   .     S
H1495  C269    1.111   1_556 S
H1496  C269    1.111   1_556 S
C1497  O1521   1.280   .     A
C1497  C1508   1.406   .     S
C1497  O1519   1.281   .     A
C1498  C1507   1.406   .     S
C1498  O1520   1.281   .     A
C1498  O1522   1.280   .     A
C1499  O1523   1.275   .     A
C1499  O1525   1.286   .     A
C1499  C1501   1.410   .     S
C1500  C1502   1.410   .     S
C1500  O1524   1.275   .     A
C1500  O1526   1.286   .     A
C1502  C1569   1.358   .     S
C1502  N1603   1.433   .     S
C1503  C1508   1.401   .     A
C1503  N1541   1.423   .     S
C1504  N1547   1.423   .     S
C1504  C1507   1.401   .     A
C1504  C1710   1.378   .     S
C1505  C1507   1.394   .     A
C1505  H1513   1.085   .     S
C1505  C1707   1.378   .     S
C1506  H1514   1.085   .     S
C1506  C1508   1.394   .     A
C1509  N1518   1.358   .     A
C1509  H1515   1.079   .     S
C1510  H1516   1.079   .     S
C1510  N1517   1.358   .     A
C1510  C288    1.427   1_556 S
C1511  N1553   1.429   .     S
C1511  N1517   1.380   .     A
C1511  C285    1.427   1_556 S
C1512  N1559   1.429   .     S
C1512  N1518   1.380   .     A
N1517  Zn1527  2.014   .     S
N1518  Zn1528  2.014   .     S
O1519  Zn1527  1.976   .     S
O1520  Zn1528  1.976   .     S
O1521  Zn1528  1.991   .     S
O1522  Zn1527  1.991   .     S
O1523  Zn1527  1.987   .     S
O1524  Zn1528  1.987   .     S
O1525  Zn1528  1.999   .     S
O1526  Zn1527  1.999   .     S
N1529  C1531   1.449   .     S
N1529  C1569   1.433   .     S
N1529  H1598   1.032   .     S
C1531  H1532   1.110   .     S
C1531  H1534   1.111   .     S
C1531  H1601   1.110   .     S
N1535  C1537   1.449   .     S
H1536  N1603   1.032   .     S
C1537  H1538   1.110   .     S
C1537  H1539   1.111   .     S
H1540  C1605   1.110   .     S
N1541  H1542   1.032   .     S
N1541  C1543   1.446   .     S
C1543  H1546   1.108   .     S
C1543  H1545   1.109   .     S
C1543  H1544   1.111   .     S
N1547  C1549   1.446   .     S
N1547  H1548   1.032   .     S
C1549  H1551   1.108   .     S
C1549  H1552   1.109   .     S
C1549  H1550   1.111   .     S
N1553  H1554   1.026   .     S
N1553  C1555   1.448   .     S
C1555  H1556   1.111   .     S
C1555  H333    1.111   1_556 S
C1555  H334    1.111   1_556 S
N1559  C1561   1.448   .     S
N1559  H1560   1.026   .     S
C1561  H1562   1.111   .     S
H1563  C337    1.111   1_556 S
H1564  C337    1.111   1_556 S
C1565  O1589   1.280   .     A
C1565  C1576   1.406   .     S
C1565  O1587   1.281   .     A
C1566  C1575   1.406   .     S
C1566  O1588   1.281   .     A
C1566  O1590   1.280   .     A
C1567  O1591   1.275   .     A
C1567  O1593   1.286   .     A
C1567  C1569   1.410   .     S
C1568  C1570   1.410   .     S
C1568  O1592   1.275   .     A
C1568  O1594   1.286   .     A
C1570  C1433   1.358   1_655 S
C1570  N1467   1.433   1_655 S
C1571  C1576   1.401   .     A
C1571  N1609   1.423   .     S
C1572  N1615   1.423   .     S
C1572  C1575   1.401   .     A
C1572  C1778   1.378   .     S
C1573  C1575   1.394   .     A
C1573  H1581   1.085   .     S
C1573  C1775   1.378   .     S
C1574  H1582   1.085   .     S
C1574  C1576   1.394   .     A
C1577  N1586   1.358   .     A
C1577  H1583   1.079   .     S
C1578  H1584   1.079   .     S
C1578  N1585   1.358   .     A
C1578  C356    1.427   1_556 S
C1579  N1621   1.429   .     S
C1579  N1585   1.380   .     A
C1579  C353    1.427   1_556 S
C1580  N1627   1.429   .     S
C1580  N1586   1.380   .     A
N1585  Zn1595  2.014   .     S
N1586  Zn1596  2.014   .     S
O1587  Zn1595  1.976   .     S
O1588  Zn1596  1.976   .     S
O1589  Zn1596  1.991   .     S
O1590  Zn1595  1.991   .     S
O1591  Zn1595  1.987   .     S
O1592  Zn1596  1.987   .     S
O1593  Zn1596  1.999   .     S
O1594  Zn1595  1.999   .     S
N1597  C1599   1.449   .     S
N1597  C1433   1.433   1_655 S
N1597  H1462   1.032   1_655 S
C1599  H1600   1.110   .     S
C1599  H1602   1.111   .     S
C1599  H1465   1.110   1_655 S
N1603  C1605   1.449   .     S
H1604  N1467   1.032   1_655 S
C1605  H1606   1.110   .     S
C1605  H1607   1.111   .     S
H1608  C1469   1.110   1_655 S
N1609  H1610   1.032   .     S
N1609  C1611   1.446   .     S
C1611  H1614   1.108   .     S
C1611  H1613   1.109   .     S
C1611  H1612   1.111   .     S
N1615  C1617   1.446   .     S
N1615  H1616   1.032   .     S
C1617  H1619   1.108   .     S
C1617  H1620   1.109   .     S
C1617  H1618   1.111   .     S
N1621  H1622   1.026   .     S
N1621  C1623   1.448   .     S
C1623  H1624   1.111   .     S
C1623  H401    1.111   1_556 S
C1623  H402    1.111   1_556 S
N1627  C1629   1.448   .     S
N1627  H1628   1.026   .     S
C1629  H1630   1.111   .     S
H1631  C405    1.111   1_556 S
H1632  C405    1.111   1_556 S
C1633  O1657   1.280   .     A
C1633  C1644   1.406   .     S
C1633  O1655   1.281   .     A
C1634  C1643   1.406   .     S
C1634  O1656   1.281   .     A
C1634  O1658   1.280   .     A
C1635  O1659   1.275   .     A
C1635  O1661   1.286   .     A
C1635  C1637   1.410   .     S
C1636  C1638   1.410   .     S
C1636  O1660   1.275   .     A
C1636  O1662   1.286   .     A
C1637  C1774   1.358   1_455 S
C1637  N1801   1.433   1_455 S
C1638  C1705   1.358   .     S
C1638  N1739   1.433   .     S
C1639  C1644   1.401   .     A
C1639  N1677   1.423   .     S
C1640  N1683   1.423   .     S
C1640  C1643   1.401   .     A
C1640  C1234   1.378   1_565 S
C1641  C1643   1.394   .     A
C1641  H1649   1.085   .     S
C1641  C1231   1.378   1_565 S
C1642  H1650   1.085   .     S
C1642  C1644   1.394   .     A
C1645  N1654   1.358   .     A
C1645  H1651   1.079   .     S
C1646  H1652   1.079   .     S
C1646  N1653   1.358   .     A
C1646  C424    1.427   1_556 S
C1647  N1689   1.429   .     S
C1647  N1653   1.380   .     A
C1647  C421    1.427   1_556 S
C1648  N1695   1.429   .     S
C1648  N1654   1.380   .     A
N1653  Zn1663  2.014   .     S
N1654  Zn1664  2.014   .     S
O1655  Zn1663  1.976   .     S
O1656  Zn1664  1.976   .     S
O1657  Zn1664  1.991   .     S
O1658  Zn1663  1.991   .     S
O1659  Zn1663  1.987   .     S
O1660  Zn1664  1.987   .     S
O1661  Zn1664  1.999   .     S
O1662  Zn1663  1.999   .     S
N1665  C1667   1.449   .     S
N1665  C1705   1.433   .     S
N1665  H1734   1.032   .     S
H1666  N1801   1.032   1_455 S
C1667  H1668   1.110   .     S
C1667  H1670   1.111   .     S
C1667  H1737   1.110   .     S
H1669  C1803   1.110   1_455 S
N1671  C1673   1.449   .     S
N1671  C1774   1.433   1_455 S
N1671  H1808   1.032   1_455 S
H1672  N1739   1.032   .     S
C1673  H1674   1.110   .     S
C1673  H1675   1.111   .     S
C1673  H1812   1.110   1_455 S
H1676  C1741   1.110   .     S
N1677  H1678   1.032   .     S
N1677  C1679   1.446   .     S
C1679  H1682   1.108   .     S
C1679  H1681   1.109   .     S
C1679  H1680   1.111   .     S
N1683  C1685   1.446   .     S
N1683  H1684   1.032   .     S
C1685  H1687   1.108   .     S
C1685  H1688   1.109   .     S
C1685  H1686   1.111   .     S
N1689  H1690   1.026   .     S
N1689  C1691   1.448   .     S
C1691  H1692   1.111   .     S
C1691  H469    1.111   1_556 S
C1691  H470    1.111   1_556 S
N1695  C1697   1.448   .     S
N1695  H1696   1.026   .     S
C1697  H1698   1.111   .     S
H1699  C473    1.111   1_556 S
H1700  C473    1.111   1_556 S
C1701  O1725   1.280   .     A
C1701  C1712   1.406   .     S
C1701  O1723   1.281   .     A
C1702  C1711   1.406   .     S
C1702  O1724   1.281   .     A
C1702  O1726   1.280   .     A
C1703  O1727   1.275   .     A
C1703  O1729   1.286   .     A
C1703  C1705   1.410   .     S
C1704  C1706   1.410   .     S
C1704  O1728   1.275   .     A
C1704  O1730   1.286   .     A
C1706  C1773   1.358   .     S
C1706  N1807   1.433   .     S
C1707  C1712   1.401   .     A
C1707  N1745   1.423   .     S
C1708  N1751   1.423   .     S
C1708  C1711   1.401   .     A
C1708  C1302   1.378   1_565 S
C1709  C1711   1.394   .     A
C1709  H1717   1.085   .     S
C1709  C1299   1.378   1_565 S
C1710  H1718   1.085   .     S
C1710  C1712   1.394   .     A
C1713  N1722   1.358   .     A
C1713  H1719   1.079   .     S
C1714  H1720   1.079   .     S
C1714  N1721   1.358   .     A
C1714  C492    1.427   1_556 S
C1715  N1757   1.429   .     S
C1715  N1721   1.380   .     A
C1715  C489    1.427   1_556 S
C1716  N1763   1.429   .     S
C1716  N1722   1.380   .     A
N1721  Zn1731  2.014   .     S
N1722  Zn1732  2.014   .     S
O1723  Zn1731  1.976   .     S
O1724  Zn1732  1.976   .     S
O1725  Zn1732  1.991   .     S
O1726  Zn1731  1.991   .     S
O1727  Zn1731  1.987   .     S
O1728  Zn1732  1.987   .     S
O1729  Zn1732  1.999   .     S
O1730  Zn1731  1.999   .     S
N1733  C1735   1.449   .     S
N1733  C1773   1.433   .     S
N1733  H1802   1.032   .     S
C1735  H1736   1.110   .     S
C1735  H1738   1.111   .     S
C1735  H1805   1.110   .     S
N1739  C1741   1.449   .     S
H1740  N1807   1.032   .     S
C1741  H1742   1.110   .     S
C1741  H1743   1.111   .     S
H1744  C1809   1.110   .     S
N1745  H1746   1.032   .     S
N1745  C1747   1.446   .     S
C1747  H1750   1.108   .     S
C1747  H1749   1.109   .     S
C1747  H1748   1.111   .     S
N1751  C1753   1.446   .     S
N1751  H1752   1.032   .     S
C1753  H1755   1.108   .     S
C1753  H1756   1.109   .     S
C1753  H1754   1.111   .     S
N1757  H1758   1.026   .     S
N1757  C1759   1.448   .     S
C1759  H1760   1.111   .     S
C1759  H537    1.111   1_556 S
C1759  H538    1.111   1_556 S
N1763  C1765   1.448   .     S
N1763  H1764   1.026   .     S
C1765  H1766   1.111   .     S
H1767  C541    1.111   1_556 S
H1768  C541    1.111   1_556 S
C1769  O1793   1.280   .     A
C1769  C1780   1.406   .     S
C1769  O1791   1.281   .     A
C1770  C1779   1.406   .     S
C1770  O1792   1.281   .     A
C1770  O1794   1.280   .     A
C1771  O1795   1.275   .     A
C1771  O1797   1.286   .     A
C1771  C1773   1.410   .     S
C1772  C1774   1.410   .     S
C1772  O1796   1.275   .     A
C1772  O1798   1.286   .     A
C1774  C1637   1.358   1_655 S
C1774  N1671   1.433   1_655 S
C1775  C1780   1.401   .     A
C1775  N1813   1.423   .     S
C1776  N1819   1.423   .     S
C1776  C1779   1.401   .     A
C1776  C1370   1.378   1_565 S
C1777  C1779   1.394   .     A
C1777  H1785   1.085   .     S
C1777  C1367   1.378   1_565 S
C1778  H1786   1.085   .     S
C1778  C1780   1.394   .     A
C1781  N1790   1.358   .     A
C1781  H1787   1.079   .     S
C1782  H1788   1.079   .     S
C1782  N1789   1.358   .     A
C1782  C560    1.427   1_556 S
C1783  N1825   1.429   .     S
C1783  N1789   1.380   .     A
C1783  C557    1.427   1_556 S
C1784  N1831   1.429   .     S
C1784  N1790   1.380   .     A
N1789  Zn1799  2.014   .     S
N1790  Zn1800  2.014   .     S
O1791  Zn1799  1.976   .     S
O1792  Zn1800  1.976   .     S
O1793  Zn1800  1.991   .     S
O1794  Zn1799  1.991   .     S
O1795  Zn1799  1.987   .     S
O1796  Zn1800  1.987   .     S
O1797  Zn1800  1.999   .     S
O1798  Zn1799  1.999   .     S
N1801  C1803   1.449   .     S
N1801  C1637   1.433   1_655 S
N1801  H1666   1.032   1_655 S
C1803  H1804   1.110   .     S
C1803  H1806   1.111   .     S
C1803  H1669   1.110   1_655 S
N1807  C1809   1.449   .     S
H1808  N1671   1.032   1_655 S
C1809  H1810   1.110   .     S
C1809  H1811   1.111   .     S
H1812  C1673   1.110   1_655 S
N1813  H1814   1.032   .     S
N1813  C1815   1.446   .     S
C1815  H1818   1.108   .     S
C1815  H1817   1.109   .     S
C1815  H1816   1.111   .     S
N1819  C1821   1.446   .     S
N1819  H1820   1.032   .     S
C1821  H1823   1.108   .     S
C1821  H1824   1.109   .     S
C1821  H1822   1.111   .     S
N1825  H1826   1.026   .     S
N1825  C1827   1.448   .     S
C1827  H1828   1.111   .     S
C1827  H605    1.111   1_556 S
C1827  H606    1.111   1_556 S
N1831  C1833   1.448   .     S
N1831  H1832   1.026   .     S
C1833  H1834   1.111   .     S
H1835  C609    1.111   1_556 S
H1836  C609    1.111   1_556 S
