data_str_m3_o1_o16_pcu_sym.270
_audit_creation_date              2020-01-03
_audit_creation_method            'Materials Studio'
_symmetry_space_group_name_H-M    'P1'
_symmetry_Int_Tables_number       1
_symmetry_cell_setting            triclinic
loop_
_symmetry_equiv_pos_as_xyz
  x,y,z
_cell_length_a                    29.6552
_cell_length_b                    31.9685
_cell_length_c                    26.4378
_cell_angle_alpha                 90.0147
_cell_angle_beta                  69.8812
_cell_angle_gamma                 89.4941
loop_
_atom_site_label
_atom_site_type_symbol
_atom_site_fract_x
_atom_site_fract_y
_atom_site_fract_z
_atom_site_U_iso_or_equiv
_atom_site_adp_type
_atom_site_occupancy
C1     C     0.16682   0.24653   0.24904   0.00000  Uiso   1.00
C2     C     0.14542   0.15864   0.49162   0.00000  Uiso   1.00
C3     C     0.15662   0.14835   0.43679   0.00000  Uiso   1.00
C4     C     0.18227   0.15528   0.01425   0.00000  Uiso   1.00
C5     C     0.22703   0.13615   0.48484   0.00000  Uiso   1.00
C6     C     0.23500   0.12112   0.43326   0.00000  Uiso   1.00
C7     C     0.20037   0.12693   0.40967   0.00000  Uiso   1.00
C8     C     0.17606   0.17098   0.06523   0.00000  Uiso   1.00
C9     C     0.25384   0.14399   0.06100   0.00000  Uiso   1.00
C10    C     0.12392   0.16024   0.41064   0.00000  Uiso   1.00
C11    C     0.18180   0.31084   0.28670   0.00000  Uiso   1.00
C12    C     0.14024   0.16410   0.35193   0.00000  Uiso   1.00
C13    C     0.17999   0.02039   0.28974   0.00000  Uiso   1.00
C14    C     0.16594   0.04255   0.25154   0.00000  Uiso   1.00
C15    C     0.15107   0.02224   0.21333   0.00000  Uiso   1.00
C16    C     0.15099   0.31246   0.21197   0.00000  Uiso   1.00
C17    C     0.16670   0.29061   0.24875   0.00000  Uiso   1.00
C18    C     0.32002   0.14081   0.21636   0.00000  Uiso   1.00
C19    C     0.03453   0.14084   0.21634   0.00000  Uiso   1.00
C20    C     0.01270   0.19272   0.28401   0.00000  Uiso   1.00
C21    C     0.29830   0.19264   0.28361   0.00000  Uiso   1.00
C22    C     0.16657   0.08674   0.25047   0.00000  Uiso   1.00
C23    C     0.19333   0.16693   0.14807   0.00000  Uiso   1.00
C24    C     0.26291   0.13152   0.00795   0.00000  Uiso   1.00
C25    C     0.20963   0.16262   0.08998   0.00000  Uiso   1.00
C26    C     0.07730   0.17351   0.44114   0.00000  Uiso   1.00
C27    C     0.06397   0.17774   0.49661   0.00000  Uiso   1.00
C28    C     0.09776   0.17146   0.02169   0.00000  Uiso   1.00
H29    H     0.28024   0.13746   0.07992   0.00000  Uiso   1.00
H30    H     0.14011   0.03986   0.18436   0.00000  Uiso   1.00
H31    H     0.31048   0.12009   0.18936   0.00000  Uiso   1.00
H32    H     0.06104   0.12013   0.18933   0.00000  Uiso   1.00
H33    H     0.26834   0.10525   0.41074   0.00000  Uiso   1.00
H34    H     0.29706   0.11676   0.48578   0.00000  Uiso   1.00
H35    H     0.14434   0.18874   0.08751   0.00000  Uiso   1.00
H36    H     0.05152   0.18174   0.42196   0.00000  Uiso   1.00
H37    H     0.08520   0.17574   0.06479   0.00000  Uiso   1.00
H38    H     0.02775   0.18755   0.02010   0.00000  Uiso   1.00
H39    H     0.20872   0.11378   0.37004   0.00000  Uiso   1.00
H40    H     0.19269   0.29319   0.31569   0.00000  Uiso   1.00
N41    N     0.04760   0.16668   0.25001   0.00000  Uiso   1.00
N42    N     0.28573   0.16665   0.25000   0.00000  Uiso   1.00
O43    O     0.12846   0.22775   0.25000   0.00000  Uiso   1.00
O44    O     0.20490   0.22774   0.25000   0.00000  Uiso   1.00
O45    O     0.10947   0.16666   0.32681   0.00000  Uiso   1.00
O46    O     0.18591   0.16665   0.32681   0.00000  Uiso   1.00
O47    O     0.12843   0.10559   0.24999   0.00000  Uiso   1.00
O48    O     0.20488   0.10558   0.24999   0.00000  Uiso   1.00
O49    O     0.14742   0.16668   0.17319   0.00000  Uiso   1.00
O50    O     0.22387   0.16667   0.17319   0.00000  Uiso   1.00
Zn51   Zn    0.11562   0.16667   0.25000   0.00000  Uiso   1.00
Zn52   Zn    0.21771   0.16666   0.25000   0.00000  Uiso   1.00
O53    O     0.19001   0.03926   0.33145   0.00000  Uiso   1.00
H54    H     0.17074   0.06537   0.34080   0.00000  Uiso   1.00
N55    N     0.13646   0.29091   0.17262   0.00000  Uiso   1.00
H56    H     0.10123   0.30011   0.17775   0.00000  Uiso   1.00
H57    H     0.15847   0.30060   0.13439   0.00000  Uiso   1.00
O58    O     0.02226   0.21974   0.31948   0.00000  Uiso   1.00
H59    H     0.05550   0.21547   0.31751   0.00000  Uiso   1.00
N60    N     0.26273   0.21998   0.31867   0.00000  Uiso   1.00
H61    H     0.25976   0.21322   0.35838   0.00000  Uiso   1.00
H62    H     0.27459   0.25075   0.31036   0.00000  Uiso   1.00
C63    C     0.50015   0.24653   0.24904   0.00000  Uiso   1.00
C64    C     0.47875   0.15864   0.49162   0.00000  Uiso   1.00
C65    C     0.48995   0.14835   0.43679   0.00000  Uiso   1.00
C66    C     0.51560   0.15528   0.01425   0.00000  Uiso   1.00
C67    C     0.56037   0.13615   0.48484   0.00000  Uiso   1.00
C68    C     0.56833   0.12112   0.43326   0.00000  Uiso   1.00
C69    C     0.53370   0.12693   0.40967   0.00000  Uiso   1.00
C70    C     0.50939   0.17098   0.06523   0.00000  Uiso   1.00
C71    C     0.58717   0.14399   0.06100   0.00000  Uiso   1.00
C72    C     0.45725   0.16024   0.41064   0.00000  Uiso   1.00
C73    C     0.51513   0.31084   0.28670   0.00000  Uiso   1.00
C74    C     0.47357   0.16410   0.35193   0.00000  Uiso   1.00
C75    C     0.51332   0.02039   0.28974   0.00000  Uiso   1.00
C76    C     0.49927   0.04255   0.25154   0.00000  Uiso   1.00
C77    C     0.48440   0.02224   0.21333   0.00000  Uiso   1.00
C78    C     0.48433   0.31246   0.21197   0.00000  Uiso   1.00
C79    C     0.50004   0.29061   0.24875   0.00000  Uiso   1.00
C80    C     0.65335   0.14081   0.21636   0.00000  Uiso   1.00
C81    C     0.36787   0.14084   0.21634   0.00000  Uiso   1.00
C82    C     0.34604   0.19272   0.28401   0.00000  Uiso   1.00
C83    C     0.63164   0.19264   0.28361   0.00000  Uiso   1.00
C84    C     0.49991   0.08674   0.25047   0.00000  Uiso   1.00
C85    C     0.52666   0.16693   0.14807   0.00000  Uiso   1.00
C86    C     0.59624   0.13152   0.00795   0.00000  Uiso   1.00
C87    C     0.54297   0.16262   0.08998   0.00000  Uiso   1.00
C88    C     0.41063   0.17351   0.44114   0.00000  Uiso   1.00
C89    C     0.39730   0.17774   0.49661   0.00000  Uiso   1.00
C90    C     0.43110   0.17146   0.02169   0.00000  Uiso   1.00
H91    H     0.61358   0.13746   0.07992   0.00000  Uiso   1.00
H92    H     0.47345   0.03986   0.18436   0.00000  Uiso   1.00
H93    H     0.64381   0.12009   0.18936   0.00000  Uiso   1.00
H94    H     0.39437   0.12013   0.18933   0.00000  Uiso   1.00
H95    H     0.60167   0.10525   0.41074   0.00000  Uiso   1.00
H96    H     0.63040   0.11676   0.48578   0.00000  Uiso   1.00
H97    H     0.47767   0.18874   0.08751   0.00000  Uiso   1.00
H98    H     0.38485   0.18174   0.42196   0.00000  Uiso   1.00
H99    H     0.41853   0.17574   0.06479   0.00000  Uiso   1.00
H100   H     0.36109   0.18755   0.02010   0.00000  Uiso   1.00
H101   H     0.54205   0.11378   0.37004   0.00000  Uiso   1.00
H102   H     0.52602   0.29319   0.31569   0.00000  Uiso   1.00
N103   N     0.38093   0.16668   0.25001   0.00000  Uiso   1.00
N104   N     0.61906   0.16665   0.25000   0.00000  Uiso   1.00
O105   O     0.46179   0.22775   0.25000   0.00000  Uiso   1.00
O106   O     0.53823   0.22774   0.25000   0.00000  Uiso   1.00
O107   O     0.44280   0.16666   0.32681   0.00000  Uiso   1.00
O108   O     0.51924   0.16665   0.32681   0.00000  Uiso   1.00
O109   O     0.46177   0.10559   0.24999   0.00000  Uiso   1.00
O110   O     0.53821   0.10558   0.24999   0.00000  Uiso   1.00
O111   O     0.48076   0.16668   0.17319   0.00000  Uiso   1.00
O112   O     0.55720   0.16667   0.17319   0.00000  Uiso   1.00
Zn113  Zn    0.44896   0.16667   0.25000   0.00000  Uiso   1.00
Zn114  Zn    0.55104   0.16666   0.25000   0.00000  Uiso   1.00
O115   O     0.52334   0.03926   0.33145   0.00000  Uiso   1.00
H116   H     0.50408   0.06537   0.34080   0.00000  Uiso   1.00
N117   N     0.46979   0.29091   0.17262   0.00000  Uiso   1.00
H118   H     0.43456   0.30011   0.17775   0.00000  Uiso   1.00
H119   H     0.49180   0.30060   0.13439   0.00000  Uiso   1.00
O120   O     0.35559   0.21974   0.31948   0.00000  Uiso   1.00
H121   H     0.38883   0.21547   0.31751   0.00000  Uiso   1.00
N122   N     0.59606   0.21998   0.31867   0.00000  Uiso   1.00
H123   H     0.59309   0.21322   0.35838   0.00000  Uiso   1.00
H124   H     0.60793   0.25075   0.31036   0.00000  Uiso   1.00
C125   C     0.83348   0.24653   0.24904   0.00000  Uiso   1.00
C126   C     0.81208   0.15864   0.49162   0.00000  Uiso   1.00
C127   C     0.82329   0.14835   0.43679   0.00000  Uiso   1.00
C128   C     0.84894   0.15528   0.01425   0.00000  Uiso   1.00
C129   C     0.89370   0.13615   0.48484   0.00000  Uiso   1.00
C130   C     0.90167   0.12112   0.43326   0.00000  Uiso   1.00
C131   C     0.86703   0.12693   0.40967   0.00000  Uiso   1.00
C132   C     0.84272   0.17098   0.06523   0.00000  Uiso   1.00
C133   C     0.92051   0.14399   0.06100   0.00000  Uiso   1.00
C134   C     0.79059   0.16024   0.41064   0.00000  Uiso   1.00
C135   C     0.84847   0.31084   0.28670   0.00000  Uiso   1.00
C136   C     0.80691   0.16410   0.35193   0.00000  Uiso   1.00
C137   C     0.84666   0.02039   0.28974   0.00000  Uiso   1.00
C138   C     0.83260   0.04255   0.25154   0.00000  Uiso   1.00
C139   C     0.81774   0.02224   0.21333   0.00000  Uiso   1.00
C140   C     0.81766   0.31246   0.21197   0.00000  Uiso   1.00
C141   C     0.83337   0.29061   0.24875   0.00000  Uiso   1.00
C142   C     0.98669   0.14081   0.21636   0.00000  Uiso   1.00
C143   C     0.70120   0.14084   0.21634   0.00000  Uiso   1.00
C144   C     0.67937   0.19272   0.28401   0.00000  Uiso   1.00
C145   C     0.96497   0.19264   0.28361   0.00000  Uiso   1.00
C146   C     0.83324   0.08674   0.25047   0.00000  Uiso   1.00
C147   C     0.86000   0.16693   0.14807   0.00000  Uiso   1.00
C148   C     0.92958   0.13152   0.00795   0.00000  Uiso   1.00
C149   C     0.87630   0.16262   0.08998   0.00000  Uiso   1.00
C150   C     0.74396   0.17351   0.44114   0.00000  Uiso   1.00
C151   C     0.73064   0.17774   0.49661   0.00000  Uiso   1.00
C152   C     0.76443   0.17146   0.02169   0.00000  Uiso   1.00
H153   H     0.94691   0.13746   0.07992   0.00000  Uiso   1.00
H154   H     0.80678   0.03986   0.18436   0.00000  Uiso   1.00
H155   H     0.97715   0.12009   0.18936   0.00000  Uiso   1.00
H156   H     0.72771   0.12013   0.18933   0.00000  Uiso   1.00
H157   H     0.93501   0.10525   0.41074   0.00000  Uiso   1.00
H158   H     0.96373   0.11676   0.48578   0.00000  Uiso   1.00
H159   H     0.81100   0.18874   0.08751   0.00000  Uiso   1.00
H160   H     0.71819   0.18174   0.42196   0.00000  Uiso   1.00
H161   H     0.75187   0.17574   0.06479   0.00000  Uiso   1.00
H162   H     0.69442   0.18755   0.02010   0.00000  Uiso   1.00
H163   H     0.87538   0.11378   0.37004   0.00000  Uiso   1.00
H164   H     0.85936   0.29319   0.31569   0.00000  Uiso   1.00
N165   N     0.71426   0.16668   0.25001   0.00000  Uiso   1.00
N166   N     0.95239   0.16665   0.25000   0.00000  Uiso   1.00
O167   O     0.79512   0.22775   0.25000   0.00000  Uiso   1.00
O168   O     0.87157   0.22774   0.25000   0.00000  Uiso   1.00
O169   O     0.77613   0.16666   0.32681   0.00000  Uiso   1.00
O170   O     0.85258   0.16665   0.32681   0.00000  Uiso   1.00
O171   O     0.79510   0.10559   0.24999   0.00000  Uiso   1.00
O172   O     0.87154   0.10558   0.24999   0.00000  Uiso   1.00
O173   O     0.81409   0.16668   0.17319   0.00000  Uiso   1.00
O174   O     0.89053   0.16667   0.17319   0.00000  Uiso   1.00
Zn175  Zn    0.78229   0.16667   0.25000   0.00000  Uiso   1.00
Zn176  Zn    0.88438   0.16666   0.25000   0.00000  Uiso   1.00
O177   O     0.85667   0.03926   0.33145   0.00000  Uiso   1.00
H178   H     0.83741   0.06537   0.34080   0.00000  Uiso   1.00
N179   N     0.80312   0.29091   0.17262   0.00000  Uiso   1.00
H180   H     0.76789   0.30011   0.17775   0.00000  Uiso   1.00
H181   H     0.82513   0.30060   0.13439   0.00000  Uiso   1.00
O182   O     0.68892   0.21974   0.31948   0.00000  Uiso   1.00
H183   H     0.72217   0.21547   0.31751   0.00000  Uiso   1.00
N184   N     0.92940   0.21998   0.31867   0.00000  Uiso   1.00
H185   H     0.92642   0.21322   0.35838   0.00000  Uiso   1.00
H186   H     0.94126   0.25075   0.31036   0.00000  Uiso   1.00
C187   C     0.16682   0.57986   0.24904   0.00000  Uiso   1.00
C188   C     0.14542   0.49197   0.49162   0.00000  Uiso   1.00
C189   C     0.15662   0.48169   0.43679   0.00000  Uiso   1.00
C190   C     0.18227   0.48861   0.01425   0.00000  Uiso   1.00
C191   C     0.22703   0.46948   0.48484   0.00000  Uiso   1.00
C192   C     0.23500   0.45446   0.43326   0.00000  Uiso   1.00
C193   C     0.20037   0.46026   0.40967   0.00000  Uiso   1.00
C194   C     0.17606   0.50431   0.06523   0.00000  Uiso   1.00
C195   C     0.25384   0.47733   0.06100   0.00000  Uiso   1.00
C196   C     0.12392   0.49357   0.41064   0.00000  Uiso   1.00
C197   C     0.18180   0.64418   0.28670   0.00000  Uiso   1.00
C198   C     0.14024   0.49743   0.35193   0.00000  Uiso   1.00
C199   C     0.17999   0.35373   0.28974   0.00000  Uiso   1.00
C200   C     0.16594   0.37588   0.25154   0.00000  Uiso   1.00
C201   C     0.15107   0.35558   0.21333   0.00000  Uiso   1.00
C202   C     0.15099   0.64579   0.21197   0.00000  Uiso   1.00
C203   C     0.16670   0.62394   0.24875   0.00000  Uiso   1.00
C204   C     0.32002   0.47414   0.21636   0.00000  Uiso   1.00
C205   C     0.03453   0.47417   0.21634   0.00000  Uiso   1.00
C206   C     0.01270   0.52605   0.28401   0.00000  Uiso   1.00
C207   C     0.29830   0.52598   0.28361   0.00000  Uiso   1.00
C208   C     0.16657   0.42008   0.25047   0.00000  Uiso   1.00
C209   C     0.19333   0.50026   0.14807   0.00000  Uiso   1.00
C210   C     0.26291   0.46486   0.00795   0.00000  Uiso   1.00
C211   C     0.20963   0.49596   0.08998   0.00000  Uiso   1.00
C212   C     0.07730   0.50684   0.44114   0.00000  Uiso   1.00
C213   C     0.06397   0.51107   0.49661   0.00000  Uiso   1.00
C214   C     0.09776   0.50479   0.02169   0.00000  Uiso   1.00
H215   H     0.28024   0.47080   0.07992   0.00000  Uiso   1.00
H216   H     0.14011   0.37319   0.18436   0.00000  Uiso   1.00
H217   H     0.31048   0.45343   0.18936   0.00000  Uiso   1.00
H218   H     0.06104   0.45347   0.18933   0.00000  Uiso   1.00
H219   H     0.26834   0.43858   0.41074   0.00000  Uiso   1.00
H220   H     0.29706   0.45010   0.48578   0.00000  Uiso   1.00
H221   H     0.14434   0.52207   0.08751   0.00000  Uiso   1.00
H222   H     0.05152   0.51507   0.42196   0.00000  Uiso   1.00
H223   H     0.08520   0.50907   0.06479   0.00000  Uiso   1.00
H224   H     0.02775   0.52089   0.02010   0.00000  Uiso   1.00
H225   H     0.20872   0.44712   0.37004   0.00000  Uiso   1.00
H226   H     0.19269   0.62653   0.31569   0.00000  Uiso   1.00
N227   N     0.04760   0.50001   0.25001   0.00000  Uiso   1.00
N228   N     0.28573   0.49998   0.25000   0.00000  Uiso   1.00
O229   O     0.12846   0.56108   0.25000   0.00000  Uiso   1.00
O230   O     0.20490   0.56107   0.25000   0.00000  Uiso   1.00
O231   O     0.10947   0.50000   0.32681   0.00000  Uiso   1.00
O232   O     0.18591   0.49999   0.32681   0.00000  Uiso   1.00
O233   O     0.12843   0.43893   0.24999   0.00000  Uiso   1.00
O234   O     0.20488   0.43892   0.24999   0.00000  Uiso   1.00
O235   O     0.14742   0.50001   0.17319   0.00000  Uiso   1.00
O236   O     0.22387   0.50000   0.17319   0.00000  Uiso   1.00
Zn237  Zn    0.11562   0.50001   0.25000   0.00000  Uiso   1.00
Zn238  Zn    0.21771   0.49999   0.25000   0.00000  Uiso   1.00
O239   O     0.19001   0.37260   0.33145   0.00000  Uiso   1.00
H240   H     0.17074   0.39870   0.34080   0.00000  Uiso   1.00
N241   N     0.13646   0.62424   0.17262   0.00000  Uiso   1.00
H242   H     0.10123   0.63344   0.17775   0.00000  Uiso   1.00
H243   H     0.15847   0.63393   0.13439   0.00000  Uiso   1.00
O244   O     0.02226   0.55307   0.31948   0.00000  Uiso   1.00
H245   H     0.05550   0.54880   0.31751   0.00000  Uiso   1.00
N246   N     0.26273   0.55331   0.31867   0.00000  Uiso   1.00
H247   H     0.25976   0.54656   0.35838   0.00000  Uiso   1.00
H248   H     0.27459   0.58409   0.31036   0.00000  Uiso   1.00
C249   C     0.50015   0.57986   0.24904   0.00000  Uiso   1.00
C250   C     0.47875   0.49197   0.49162   0.00000  Uiso   1.00
C251   C     0.48995   0.48169   0.43679   0.00000  Uiso   1.00
C252   C     0.51560   0.48861   0.01425   0.00000  Uiso   1.00
C253   C     0.56037   0.46948   0.48484   0.00000  Uiso   1.00
C254   C     0.56833   0.45446   0.43326   0.00000  Uiso   1.00
C255   C     0.53370   0.46026   0.40967   0.00000  Uiso   1.00
C256   C     0.50939   0.50431   0.06523   0.00000  Uiso   1.00
C257   C     0.58717   0.47733   0.06100   0.00000  Uiso   1.00
C258   C     0.45725   0.49357   0.41064   0.00000  Uiso   1.00
C259   C     0.51513   0.64418   0.28670   0.00000  Uiso   1.00
C260   C     0.47357   0.49743   0.35193   0.00000  Uiso   1.00
C261   C     0.51332   0.35373   0.28974   0.00000  Uiso   1.00
C262   C     0.49927   0.37588   0.25154   0.00000  Uiso   1.00
C263   C     0.48440   0.35558   0.21333   0.00000  Uiso   1.00
C264   C     0.48433   0.64579   0.21197   0.00000  Uiso   1.00
C265   C     0.50004   0.62394   0.24875   0.00000  Uiso   1.00
C266   C     0.65335   0.47414   0.21636   0.00000  Uiso   1.00
C267   C     0.36787   0.47417   0.21634   0.00000  Uiso   1.00
C268   C     0.34604   0.52605   0.28401   0.00000  Uiso   1.00
C269   C     0.63164   0.52598   0.28361   0.00000  Uiso   1.00
C270   C     0.49991   0.42008   0.25047   0.00000  Uiso   1.00
C271   C     0.52666   0.50026   0.14807   0.00000  Uiso   1.00
C272   C     0.59624   0.46486   0.00795   0.00000  Uiso   1.00
C273   C     0.54297   0.49596   0.08998   0.00000  Uiso   1.00
C274   C     0.41063   0.50684   0.44114   0.00000  Uiso   1.00
C275   C     0.39730   0.51107   0.49661   0.00000  Uiso   1.00
C276   C     0.43110   0.50479   0.02169   0.00000  Uiso   1.00
H277   H     0.61358   0.47080   0.07992   0.00000  Uiso   1.00
H278   H     0.47345   0.37319   0.18436   0.00000  Uiso   1.00
H279   H     0.64381   0.45343   0.18936   0.00000  Uiso   1.00
H280   H     0.39437   0.45347   0.18933   0.00000  Uiso   1.00
H281   H     0.60167   0.43858   0.41074   0.00000  Uiso   1.00
H282   H     0.63040   0.45010   0.48578   0.00000  Uiso   1.00
H283   H     0.47767   0.52207   0.08751   0.00000  Uiso   1.00
H284   H     0.38485   0.51507   0.42196   0.00000  Uiso   1.00
H285   H     0.41853   0.50907   0.06479   0.00000  Uiso   1.00
H286   H     0.36109   0.52089   0.02010   0.00000  Uiso   1.00
H287   H     0.54205   0.44712   0.37004   0.00000  Uiso   1.00
H288   H     0.52602   0.62653   0.31569   0.00000  Uiso   1.00
N289   N     0.38093   0.50001   0.25001   0.00000  Uiso   1.00
N290   N     0.61906   0.49998   0.25000   0.00000  Uiso   1.00
O291   O     0.46179   0.56108   0.25000   0.00000  Uiso   1.00
O292   O     0.53823   0.56107   0.25000   0.00000  Uiso   1.00
O293   O     0.44280   0.50000   0.32681   0.00000  Uiso   1.00
O294   O     0.51924   0.49999   0.32681   0.00000  Uiso   1.00
O295   O     0.46177   0.43893   0.24999   0.00000  Uiso   1.00
O296   O     0.53821   0.43892   0.24999   0.00000  Uiso   1.00
O297   O     0.48076   0.50001   0.17319   0.00000  Uiso   1.00
O298   O     0.55720   0.50000   0.17319   0.00000  Uiso   1.00
Zn299  Zn    0.44896   0.50001   0.25000   0.00000  Uiso   1.00
Zn300  Zn    0.55104   0.49999   0.25000   0.00000  Uiso   1.00
O301   O     0.52334   0.37260   0.33145   0.00000  Uiso   1.00
H302   H     0.50408   0.39870   0.34080   0.00000  Uiso   1.00
N303   N     0.46979   0.62424   0.17262   0.00000  Uiso   1.00
H304   H     0.43456   0.63344   0.17775   0.00000  Uiso   1.00
H305   H     0.49180   0.63393   0.13439   0.00000  Uiso   1.00
O306   O     0.35559   0.55307   0.31948   0.00000  Uiso   1.00
H307   H     0.38883   0.54880   0.31751   0.00000  Uiso   1.00
N308   N     0.59606   0.55331   0.31867   0.00000  Uiso   1.00
H309   H     0.59309   0.54656   0.35838   0.00000  Uiso   1.00
H310   H     0.60793   0.58409   0.31036   0.00000  Uiso   1.00
C311   C     0.83348   0.57986   0.24904   0.00000  Uiso   1.00
C312   C     0.81208   0.49197   0.49162   0.00000  Uiso   1.00
C313   C     0.82329   0.48169   0.43679   0.00000  Uiso   1.00
C314   C     0.84894   0.48861   0.01425   0.00000  Uiso   1.00
C315   C     0.89370   0.46948   0.48484   0.00000  Uiso   1.00
C316   C     0.90167   0.45446   0.43326   0.00000  Uiso   1.00
C317   C     0.86703   0.46026   0.40967   0.00000  Uiso   1.00
C318   C     0.84272   0.50431   0.06523   0.00000  Uiso   1.00
C319   C     0.92051   0.47733   0.06100   0.00000  Uiso   1.00
C320   C     0.79059   0.49357   0.41064   0.00000  Uiso   1.00
C321   C     0.84847   0.64418   0.28670   0.00000  Uiso   1.00
C322   C     0.80691   0.49743   0.35193   0.00000  Uiso   1.00
C323   C     0.84666   0.35373   0.28974   0.00000  Uiso   1.00
C324   C     0.83260   0.37588   0.25154   0.00000  Uiso   1.00
C325   C     0.81774   0.35558   0.21333   0.00000  Uiso   1.00
C326   C     0.81766   0.64579   0.21197   0.00000  Uiso   1.00
C327   C     0.83337   0.62394   0.24875   0.00000  Uiso   1.00
C328   C     0.98669   0.47414   0.21636   0.00000  Uiso   1.00
C329   C     0.70120   0.47417   0.21634   0.00000  Uiso   1.00
C330   C     0.67937   0.52605   0.28401   0.00000  Uiso   1.00
C331   C     0.96497   0.52598   0.28361   0.00000  Uiso   1.00
C332   C     0.83324   0.42008   0.25047   0.00000  Uiso   1.00
C333   C     0.86000   0.50026   0.14807   0.00000  Uiso   1.00
C334   C     0.92958   0.46486   0.00795   0.00000  Uiso   1.00
C335   C     0.87630   0.49596   0.08998   0.00000  Uiso   1.00
C336   C     0.74396   0.50684   0.44114   0.00000  Uiso   1.00
C337   C     0.73064   0.51107   0.49661   0.00000  Uiso   1.00
C338   C     0.76443   0.50479   0.02169   0.00000  Uiso   1.00
H339   H     0.94691   0.47080   0.07992   0.00000  Uiso   1.00
H340   H     0.80678   0.37319   0.18436   0.00000  Uiso   1.00
H341   H     0.97715   0.45343   0.18936   0.00000  Uiso   1.00
H342   H     0.72771   0.45347   0.18933   0.00000  Uiso   1.00
H343   H     0.93501   0.43858   0.41074   0.00000  Uiso   1.00
H344   H     0.96373   0.45010   0.48578   0.00000  Uiso   1.00
H345   H     0.81100   0.52207   0.08751   0.00000  Uiso   1.00
H346   H     0.71819   0.51507   0.42196   0.00000  Uiso   1.00
H347   H     0.75187   0.50907   0.06479   0.00000  Uiso   1.00
H348   H     0.69442   0.52089   0.02010   0.00000  Uiso   1.00
H349   H     0.87538   0.44712   0.37004   0.00000  Uiso   1.00
H350   H     0.85936   0.62653   0.31569   0.00000  Uiso   1.00
N351   N     0.71426   0.50001   0.25001   0.00000  Uiso   1.00
N352   N     0.95239   0.49998   0.25000   0.00000  Uiso   1.00
O353   O     0.79512   0.56108   0.25000   0.00000  Uiso   1.00
O354   O     0.87157   0.56107   0.25000   0.00000  Uiso   1.00
O355   O     0.77613   0.50000   0.32681   0.00000  Uiso   1.00
O356   O     0.85258   0.49999   0.32681   0.00000  Uiso   1.00
O357   O     0.79510   0.43893   0.24999   0.00000  Uiso   1.00
O358   O     0.87154   0.43892   0.24999   0.00000  Uiso   1.00
O359   O     0.81409   0.50001   0.17319   0.00000  Uiso   1.00
O360   O     0.89053   0.50000   0.17319   0.00000  Uiso   1.00
Zn361  Zn    0.78229   0.50001   0.25000   0.00000  Uiso   1.00
Zn362  Zn    0.88438   0.49999   0.25000   0.00000  Uiso   1.00
O363   O     0.85667   0.37260   0.33145   0.00000  Uiso   1.00
H364   H     0.83741   0.39870   0.34080   0.00000  Uiso   1.00
N365   N     0.80312   0.62424   0.17262   0.00000  Uiso   1.00
H366   H     0.76789   0.63344   0.17775   0.00000  Uiso   1.00
H367   H     0.82513   0.63393   0.13439   0.00000  Uiso   1.00
O368   O     0.68892   0.55307   0.31948   0.00000  Uiso   1.00
H369   H     0.72217   0.54880   0.31751   0.00000  Uiso   1.00
N370   N     0.92940   0.55331   0.31867   0.00000  Uiso   1.00
H371   H     0.92642   0.54656   0.35838   0.00000  Uiso   1.00
H372   H     0.94126   0.58409   0.31036   0.00000  Uiso   1.00
C373   C     0.16682   0.91319   0.24904   0.00000  Uiso   1.00
C374   C     0.14542   0.82530   0.49162   0.00000  Uiso   1.00
C375   C     0.15662   0.81502   0.43679   0.00000  Uiso   1.00
C376   C     0.18227   0.82195   0.01425   0.00000  Uiso   1.00
C377   C     0.22703   0.80282   0.48484   0.00000  Uiso   1.00
C378   C     0.23500   0.78779   0.43326   0.00000  Uiso   1.00
C379   C     0.20037   0.79359   0.40967   0.00000  Uiso   1.00
C380   C     0.17606   0.83765   0.06523   0.00000  Uiso   1.00
C381   C     0.25384   0.81066   0.06100   0.00000  Uiso   1.00
C382   C     0.12392   0.82691   0.41064   0.00000  Uiso   1.00
C383   C     0.18180   0.97751   0.28670   0.00000  Uiso   1.00
C384   C     0.14024   0.83077   0.35193   0.00000  Uiso   1.00
C385   C     0.17999   0.68706   0.28974   0.00000  Uiso   1.00
C386   C     0.16594   0.70922   0.25154   0.00000  Uiso   1.00
C387   C     0.15107   0.68891   0.21333   0.00000  Uiso   1.00
C388   C     0.15099   0.97912   0.21197   0.00000  Uiso   1.00
C389   C     0.16670   0.95727   0.24875   0.00000  Uiso   1.00
C390   C     0.32002   0.80748   0.21636   0.00000  Uiso   1.00
C391   C     0.03453   0.80750   0.21634   0.00000  Uiso   1.00
C392   C     0.01270   0.85938   0.28401   0.00000  Uiso   1.00
C393   C     0.29830   0.85931   0.28361   0.00000  Uiso   1.00
C394   C     0.16657   0.75341   0.25047   0.00000  Uiso   1.00
C395   C     0.19333   0.83360   0.14807   0.00000  Uiso   1.00
C396   C     0.26291   0.79819   0.00795   0.00000  Uiso   1.00
C397   C     0.20963   0.82929   0.08998   0.00000  Uiso   1.00
C398   C     0.07730   0.84017   0.44114   0.00000  Uiso   1.00
C399   C     0.06397   0.84441   0.49661   0.00000  Uiso   1.00
C400   C     0.09776   0.83812   0.02169   0.00000  Uiso   1.00
H401   H     0.28024   0.80413   0.07992   0.00000  Uiso   1.00
H402   H     0.14011   0.70652   0.18436   0.00000  Uiso   1.00
H403   H     0.31048   0.78676   0.18936   0.00000  Uiso   1.00
H404   H     0.06104   0.78680   0.18933   0.00000  Uiso   1.00
H405   H     0.26834   0.77191   0.41074   0.00000  Uiso   1.00
H406   H     0.29706   0.78343   0.48578   0.00000  Uiso   1.00
H407   H     0.14434   0.85541   0.08751   0.00000  Uiso   1.00
H408   H     0.05152   0.84840   0.42196   0.00000  Uiso   1.00
H409   H     0.08520   0.84240   0.06479   0.00000  Uiso   1.00
H410   H     0.02775   0.85422   0.02010   0.00000  Uiso   1.00
H411   H     0.20872   0.78045   0.37004   0.00000  Uiso   1.00
H412   H     0.19269   0.95986   0.31569   0.00000  Uiso   1.00
N413   N     0.04760   0.83334   0.25001   0.00000  Uiso   1.00
N414   N     0.28573   0.83331   0.25000   0.00000  Uiso   1.00
O415   O     0.12846   0.89442   0.25000   0.00000  Uiso   1.00
O416   O     0.20490   0.89441   0.25000   0.00000  Uiso   1.00
O417   O     0.10947   0.83333   0.32681   0.00000  Uiso   1.00
O418   O     0.18591   0.83332   0.32681   0.00000  Uiso   1.00
O419   O     0.12843   0.77226   0.24999   0.00000  Uiso   1.00
O420   O     0.20488   0.77225   0.24999   0.00000  Uiso   1.00
O421   O     0.14742   0.83335   0.17319   0.00000  Uiso   1.00
O422   O     0.22387   0.83334   0.17319   0.00000  Uiso   1.00
Zn423  Zn    0.11562   0.83334   0.25000   0.00000  Uiso   1.00
Zn424  Zn    0.21771   0.83333   0.25000   0.00000  Uiso   1.00
O425   O     0.19001   0.70593   0.33145   0.00000  Uiso   1.00
H426   H     0.17074   0.73204   0.34080   0.00000  Uiso   1.00
N427   N     0.13646   0.95757   0.17262   0.00000  Uiso   1.00
H428   H     0.10123   0.96677   0.17775   0.00000  Uiso   1.00
H429   H     0.15847   0.96727   0.13439   0.00000  Uiso   1.00
O430   O     0.02226   0.88640   0.31948   0.00000  Uiso   1.00
H431   H     0.05550   0.88214   0.31751   0.00000  Uiso   1.00
N432   N     0.26273   0.88664   0.31867   0.00000  Uiso   1.00
H433   H     0.25976   0.87989   0.35838   0.00000  Uiso   1.00
H434   H     0.27459   0.91742   0.31036   0.00000  Uiso   1.00
C435   C     0.50015   0.91319   0.24904   0.00000  Uiso   1.00
C436   C     0.47875   0.82530   0.49162   0.00000  Uiso   1.00
C437   C     0.48995   0.81502   0.43679   0.00000  Uiso   1.00
C438   C     0.51560   0.82195   0.01425   0.00000  Uiso   1.00
C439   C     0.56037   0.80282   0.48484   0.00000  Uiso   1.00
C440   C     0.56833   0.78779   0.43326   0.00000  Uiso   1.00
C441   C     0.53370   0.79359   0.40967   0.00000  Uiso   1.00
C442   C     0.50939   0.83765   0.06523   0.00000  Uiso   1.00
C443   C     0.58717   0.81066   0.06100   0.00000  Uiso   1.00
C444   C     0.45725   0.82691   0.41064   0.00000  Uiso   1.00
C445   C     0.51513   0.97751   0.28670   0.00000  Uiso   1.00
C446   C     0.47357   0.83077   0.35193   0.00000  Uiso   1.00
C447   C     0.51332   0.68706   0.28974   0.00000  Uiso   1.00
C448   C     0.49927   0.70922   0.25154   0.00000  Uiso   1.00
C449   C     0.48440   0.68891   0.21333   0.00000  Uiso   1.00
C450   C     0.48433   0.97912   0.21197   0.00000  Uiso   1.00
C451   C     0.50004   0.95727   0.24875   0.00000  Uiso   1.00
C452   C     0.65335   0.80748   0.21636   0.00000  Uiso   1.00
C453   C     0.36787   0.80750   0.21634   0.00000  Uiso   1.00
C454   C     0.34604   0.85938   0.28401   0.00000  Uiso   1.00
C455   C     0.63164   0.85931   0.28361   0.00000  Uiso   1.00
C456   C     0.49991   0.75341   0.25047   0.00000  Uiso   1.00
C457   C     0.52666   0.83360   0.14807   0.00000  Uiso   1.00
C458   C     0.59624   0.79819   0.00795   0.00000  Uiso   1.00
C459   C     0.54297   0.82929   0.08998   0.00000  Uiso   1.00
C460   C     0.41063   0.84017   0.44114   0.00000  Uiso   1.00
C461   C     0.39730   0.84441   0.49661   0.00000  Uiso   1.00
C462   C     0.43110   0.83812   0.02169   0.00000  Uiso   1.00
H463   H     0.61358   0.80413   0.07992   0.00000  Uiso   1.00
H464   H     0.47345   0.70652   0.18436   0.00000  Uiso   1.00
H465   H     0.64381   0.78676   0.18936   0.00000  Uiso   1.00
H466   H     0.39437   0.78680   0.18933   0.00000  Uiso   1.00
H467   H     0.60167   0.77191   0.41074   0.00000  Uiso   1.00
H468   H     0.63040   0.78343   0.48578   0.00000  Uiso   1.00
H469   H     0.47767   0.85541   0.08751   0.00000  Uiso   1.00
H470   H     0.38485   0.84840   0.42196   0.00000  Uiso   1.00
H471   H     0.41853   0.84240   0.06479   0.00000  Uiso   1.00
H472   H     0.36109   0.85422   0.02010   0.00000  Uiso   1.00
H473   H     0.54205   0.78045   0.37004   0.00000  Uiso   1.00
H474   H     0.52602   0.95986   0.31569   0.00000  Uiso   1.00
N475   N     0.38093   0.83334   0.25001   0.00000  Uiso   1.00
N476   N     0.61906   0.83331   0.25000   0.00000  Uiso   1.00
O477   O     0.46179   0.89442   0.25000   0.00000  Uiso   1.00
O478   O     0.53823   0.89441   0.25000   0.00000  Uiso   1.00
O479   O     0.44280   0.83333   0.32681   0.00000  Uiso   1.00
O480   O     0.51924   0.83332   0.32681   0.00000  Uiso   1.00
O481   O     0.46177   0.77226   0.24999   0.00000  Uiso   1.00
O482   O     0.53821   0.77225   0.24999   0.00000  Uiso   1.00
O483   O     0.48076   0.83335   0.17319   0.00000  Uiso   1.00
O484   O     0.55720   0.83334   0.17319   0.00000  Uiso   1.00
Zn485  Zn    0.44896   0.83334   0.25000   0.00000  Uiso   1.00
Zn486  Zn    0.55104   0.83333   0.25000   0.00000  Uiso   1.00
O487   O     0.52334   0.70593   0.33145   0.00000  Uiso   1.00
H488   H     0.50408   0.73204   0.34080   0.00000  Uiso   1.00
N489   N     0.46979   0.95757   0.17262   0.00000  Uiso   1.00
H490   H     0.43456   0.96677   0.17775   0.00000  Uiso   1.00
H491   H     0.49180   0.96727   0.13439   0.00000  Uiso   1.00
O492   O     0.35559   0.88640   0.31948   0.00000  Uiso   1.00
H493   H     0.38883   0.88214   0.31751   0.00000  Uiso   1.00
N494   N     0.59606   0.88664   0.31867   0.00000  Uiso   1.00
H495   H     0.59309   0.87989   0.35838   0.00000  Uiso   1.00
H496   H     0.60793   0.91742   0.31036   0.00000  Uiso   1.00
C497   C     0.83348   0.91319   0.24904   0.00000  Uiso   1.00
C498   C     0.81208   0.82530   0.49162   0.00000  Uiso   1.00
C499   C     0.82329   0.81502   0.43679   0.00000  Uiso   1.00
C500   C     0.84894   0.82195   0.01425   0.00000  Uiso   1.00
C501   C     0.89370   0.80282   0.48484   0.00000  Uiso   1.00
C502   C     0.90167   0.78779   0.43326   0.00000  Uiso   1.00
C503   C     0.86703   0.79359   0.40967   0.00000  Uiso   1.00
C504   C     0.84272   0.83765   0.06523   0.00000  Uiso   1.00
C505   C     0.92051   0.81066   0.06100   0.00000  Uiso   1.00
C506   C     0.79059   0.82691   0.41064   0.00000  Uiso   1.00
C507   C     0.84847   0.97751   0.28670   0.00000  Uiso   1.00
C508   C     0.80691   0.83077   0.35193   0.00000  Uiso   1.00
C509   C     0.84666   0.68706   0.28974   0.00000  Uiso   1.00
C510   C     0.83260   0.70922   0.25154   0.00000  Uiso   1.00
C511   C     0.81774   0.68891   0.21333   0.00000  Uiso   1.00
C512   C     0.81766   0.97912   0.21197   0.00000  Uiso   1.00
C513   C     0.83337   0.95727   0.24875   0.00000  Uiso   1.00
C514   C     0.98669   0.80748   0.21636   0.00000  Uiso   1.00
C515   C     0.70120   0.80750   0.21634   0.00000  Uiso   1.00
C516   C     0.67937   0.85938   0.28401   0.00000  Uiso   1.00
C517   C     0.96497   0.85931   0.28361   0.00000  Uiso   1.00
C518   C     0.83324   0.75341   0.25047   0.00000  Uiso   1.00
C519   C     0.86000   0.83360   0.14807   0.00000  Uiso   1.00
C520   C     0.92958   0.79819   0.00795   0.00000  Uiso   1.00
C521   C     0.87630   0.82929   0.08998   0.00000  Uiso   1.00
C522   C     0.74396   0.84017   0.44114   0.00000  Uiso   1.00
C523   C     0.73064   0.84441   0.49661   0.00000  Uiso   1.00
C524   C     0.76443   0.83812   0.02169   0.00000  Uiso   1.00
H525   H     0.94691   0.80413   0.07992   0.00000  Uiso   1.00
H526   H     0.80678   0.70652   0.18436   0.00000  Uiso   1.00
H527   H     0.97715   0.78676   0.18936   0.00000  Uiso   1.00
H528   H     0.72771   0.78680   0.18933   0.00000  Uiso   1.00
H529   H     0.93501   0.77191   0.41074   0.00000  Uiso   1.00
H530   H     0.96373   0.78343   0.48578   0.00000  Uiso   1.00
H531   H     0.81100   0.85541   0.08751   0.00000  Uiso   1.00
H532   H     0.71819   0.84840   0.42196   0.00000  Uiso   1.00
H533   H     0.75187   0.84240   0.06479   0.00000  Uiso   1.00
H534   H     0.69442   0.85422   0.02010   0.00000  Uiso   1.00
H535   H     0.87538   0.78045   0.37004   0.00000  Uiso   1.00
H536   H     0.85936   0.95986   0.31569   0.00000  Uiso   1.00
N537   N     0.71426   0.83334   0.25001   0.00000  Uiso   1.00
N538   N     0.95239   0.83331   0.25000   0.00000  Uiso   1.00
O539   O     0.79512   0.89442   0.25000   0.00000  Uiso   1.00
O540   O     0.87157   0.89441   0.25000   0.00000  Uiso   1.00
O541   O     0.77613   0.83333   0.32681   0.00000  Uiso   1.00
O542   O     0.85258   0.83332   0.32681   0.00000  Uiso   1.00
O543   O     0.79510   0.77226   0.24999   0.00000  Uiso   1.00
O544   O     0.87154   0.77225   0.24999   0.00000  Uiso   1.00
O545   O     0.81409   0.83335   0.17319   0.00000  Uiso   1.00
O546   O     0.89053   0.83334   0.17319   0.00000  Uiso   1.00
Zn547  Zn    0.78229   0.83334   0.25000   0.00000  Uiso   1.00
Zn548  Zn    0.88438   0.83333   0.25000   0.00000  Uiso   1.00
O549   O     0.85667   0.70593   0.33145   0.00000  Uiso   1.00
H550   H     0.83741   0.73204   0.34080   0.00000  Uiso   1.00
N551   N     0.80312   0.95757   0.17262   0.00000  Uiso   1.00
H552   H     0.76789   0.96677   0.17775   0.00000  Uiso   1.00
H553   H     0.82513   0.96727   0.13439   0.00000  Uiso   1.00
O554   O     0.68892   0.88640   0.31948   0.00000  Uiso   1.00
H555   H     0.72217   0.88214   0.31751   0.00000  Uiso   1.00
N556   N     0.92940   0.88664   0.31867   0.00000  Uiso   1.00
H557   H     0.92642   0.87989   0.35838   0.00000  Uiso   1.00
H558   H     0.94126   0.91742   0.31036   0.00000  Uiso   1.00
C559   C     0.16682   0.24653   0.74904   0.00000  Uiso   1.00
C560   C     0.14542   0.15864   0.99162   0.00000  Uiso   1.00
C561   C     0.15662   0.14835   0.93679   0.00000  Uiso   1.00
C562   C     0.18227   0.15528   0.51425   0.00000  Uiso   1.00
C563   C     0.22703   0.13615   0.98484   0.00000  Uiso   1.00
C564   C     0.23500   0.12112   0.93326   0.00000  Uiso   1.00
C565   C     0.20037   0.12693   0.90967   0.00000  Uiso   1.00
C566   C     0.17606   0.17098   0.56523   0.00000  Uiso   1.00
C567   C     0.25384   0.14399   0.56100   0.00000  Uiso   1.00
C568   C     0.12392   0.16024   0.91064   0.00000  Uiso   1.00
C569   C     0.18180   0.31084   0.78670   0.00000  Uiso   1.00
C570   C     0.14024   0.16410   0.85193   0.00000  Uiso   1.00
C571   C     0.17999   0.02039   0.78974   0.00000  Uiso   1.00
C572   C     0.16594   0.04255   0.75154   0.00000  Uiso   1.00
C573   C     0.15107   0.02224   0.71333   0.00000  Uiso   1.00
C574   C     0.15099   0.31246   0.71197   0.00000  Uiso   1.00
C575   C     0.16670   0.29061   0.74875   0.00000  Uiso   1.00
C576   C     0.32002   0.14081   0.71636   0.00000  Uiso   1.00
C577   C     0.03453   0.14084   0.71634   0.00000  Uiso   1.00
C578   C     0.01270   0.19272   0.78401   0.00000  Uiso   1.00
C579   C     0.29830   0.19264   0.78361   0.00000  Uiso   1.00
C580   C     0.16657   0.08674   0.75047   0.00000  Uiso   1.00
C581   C     0.19333   0.16693   0.64807   0.00000  Uiso   1.00
C582   C     0.26291   0.13152   0.50795   0.00000  Uiso   1.00
C583   C     0.20963   0.16262   0.58998   0.00000  Uiso   1.00
C584   C     0.07730   0.17351   0.94114   0.00000  Uiso   1.00
C585   C     0.06397   0.17774   0.99661   0.00000  Uiso   1.00
C586   C     0.09776   0.17146   0.52169   0.00000  Uiso   1.00
H587   H     0.28024   0.13746   0.57992   0.00000  Uiso   1.00
H588   H     0.14011   0.03986   0.68436   0.00000  Uiso   1.00
H589   H     0.31048   0.12009   0.68936   0.00000  Uiso   1.00
H590   H     0.06104   0.12013   0.68933   0.00000  Uiso   1.00
H591   H     0.26834   0.10525   0.91074   0.00000  Uiso   1.00
H592   H     0.29706   0.11676   0.98578   0.00000  Uiso   1.00
H593   H     0.14434   0.18874   0.58751   0.00000  Uiso   1.00
H594   H     0.05152   0.18174   0.92196   0.00000  Uiso   1.00
H595   H     0.08520   0.17574   0.56479   0.00000  Uiso   1.00
H596   H     0.02775   0.18755   0.52010   0.00000  Uiso   1.00
H597   H     0.20872   0.11378   0.87004   0.00000  Uiso   1.00
H598   H     0.19269   0.29319   0.81569   0.00000  Uiso   1.00
N599   N     0.04760   0.16668   0.75001   0.00000  Uiso   1.00
N600   N     0.28573   0.16665   0.75000   0.00000  Uiso   1.00
O601   O     0.12846   0.22775   0.75000   0.00000  Uiso   1.00
O602   O     0.20490   0.22774   0.75000   0.00000  Uiso   1.00
O603   O     0.10947   0.16666   0.82681   0.00000  Uiso   1.00
O604   O     0.18591   0.16665   0.82681   0.00000  Uiso   1.00
O605   O     0.12843   0.10559   0.74999   0.00000  Uiso   1.00
O606   O     0.20488   0.10558   0.74999   0.00000  Uiso   1.00
O607   O     0.14742   0.16668   0.67319   0.00000  Uiso   1.00
O608   O     0.22387   0.16667   0.67319   0.00000  Uiso   1.00
Zn609  Zn    0.11562   0.16667   0.75000   0.00000  Uiso   1.00
Zn610  Zn    0.21771   0.16666   0.75000   0.00000  Uiso   1.00
O611   O     0.19001   0.03926   0.83145   0.00000  Uiso   1.00
H612   H     0.17074   0.06537   0.84080   0.00000  Uiso   1.00
N613   N     0.13646   0.29091   0.67262   0.00000  Uiso   1.00
H614   H     0.10123   0.30011   0.67775   0.00000  Uiso   1.00
H615   H     0.15847   0.30060   0.63439   0.00000  Uiso   1.00
O616   O     0.02226   0.21974   0.81948   0.00000  Uiso   1.00
H617   H     0.05550   0.21547   0.81751   0.00000  Uiso   1.00
N618   N     0.26273   0.21998   0.81867   0.00000  Uiso   1.00
H619   H     0.25976   0.21322   0.85838   0.00000  Uiso   1.00
H620   H     0.27459   0.25075   0.81036   0.00000  Uiso   1.00
C621   C     0.50015   0.24653   0.74904   0.00000  Uiso   1.00
C622   C     0.47875   0.15864   0.99162   0.00000  Uiso   1.00
C623   C     0.48995   0.14835   0.93679   0.00000  Uiso   1.00
C624   C     0.51560   0.15528   0.51425   0.00000  Uiso   1.00
C625   C     0.56037   0.13615   0.98484   0.00000  Uiso   1.00
C626   C     0.56833   0.12112   0.93326   0.00000  Uiso   1.00
C627   C     0.53370   0.12693   0.90967   0.00000  Uiso   1.00
C628   C     0.50939   0.17098   0.56523   0.00000  Uiso   1.00
C629   C     0.58717   0.14399   0.56100   0.00000  Uiso   1.00
C630   C     0.45725   0.16024   0.91064   0.00000  Uiso   1.00
C631   C     0.51513   0.31084   0.78670   0.00000  Uiso   1.00
C632   C     0.47357   0.16410   0.85193   0.00000  Uiso   1.00
C633   C     0.51332   0.02039   0.78974   0.00000  Uiso   1.00
C634   C     0.49927   0.04255   0.75154   0.00000  Uiso   1.00
C635   C     0.48440   0.02224   0.71333   0.00000  Uiso   1.00
C636   C     0.48433   0.31246   0.71197   0.00000  Uiso   1.00
C637   C     0.50004   0.29061   0.74875   0.00000  Uiso   1.00
C638   C     0.65335   0.14081   0.71636   0.00000  Uiso   1.00
C639   C     0.36787   0.14084   0.71634   0.00000  Uiso   1.00
C640   C     0.34604   0.19272   0.78401   0.00000  Uiso   1.00
C641   C     0.63164   0.19264   0.78361   0.00000  Uiso   1.00
C642   C     0.49991   0.08674   0.75047   0.00000  Uiso   1.00
C643   C     0.52666   0.16693   0.64807   0.00000  Uiso   1.00
C644   C     0.59624   0.13152   0.50795   0.00000  Uiso   1.00
C645   C     0.54297   0.16262   0.58998   0.00000  Uiso   1.00
C646   C     0.41063   0.17351   0.94114   0.00000  Uiso   1.00
C647   C     0.39730   0.17774   0.99661   0.00000  Uiso   1.00
C648   C     0.43110   0.17146   0.52169   0.00000  Uiso   1.00
H649   H     0.61358   0.13746   0.57992   0.00000  Uiso   1.00
H650   H     0.47345   0.03986   0.68436   0.00000  Uiso   1.00
H651   H     0.64381   0.12009   0.68936   0.00000  Uiso   1.00
H652   H     0.39437   0.12013   0.68933   0.00000  Uiso   1.00
H653   H     0.60167   0.10525   0.91074   0.00000  Uiso   1.00
H654   H     0.63040   0.11676   0.98578   0.00000  Uiso   1.00
H655   H     0.47767   0.18874   0.58751   0.00000  Uiso   1.00
H656   H     0.38485   0.18174   0.92196   0.00000  Uiso   1.00
H657   H     0.41853   0.17574   0.56479   0.00000  Uiso   1.00
H658   H     0.36109   0.18755   0.52010   0.00000  Uiso   1.00
H659   H     0.54205   0.11378   0.87004   0.00000  Uiso   1.00
H660   H     0.52602   0.29319   0.81569   0.00000  Uiso   1.00
N661   N     0.38093   0.16668   0.75001   0.00000  Uiso   1.00
N662   N     0.61906   0.16665   0.75000   0.00000  Uiso   1.00
O663   O     0.46179   0.22775   0.75000   0.00000  Uiso   1.00
O664   O     0.53823   0.22774   0.75000   0.00000  Uiso   1.00
O665   O     0.44280   0.16666   0.82681   0.00000  Uiso   1.00
O666   O     0.51924   0.16665   0.82681   0.00000  Uiso   1.00
O667   O     0.46177   0.10559   0.74999   0.00000  Uiso   1.00
O668   O     0.53821   0.10558   0.74999   0.00000  Uiso   1.00
O669   O     0.48076   0.16668   0.67319   0.00000  Uiso   1.00
O670   O     0.55720   0.16667   0.67319   0.00000  Uiso   1.00
Zn671  Zn    0.44896   0.16667   0.75000   0.00000  Uiso   1.00
Zn672  Zn    0.55104   0.16666   0.75000   0.00000  Uiso   1.00
O673   O     0.52334   0.03926   0.83145   0.00000  Uiso   1.00
H674   H     0.50408   0.06537   0.84080   0.00000  Uiso   1.00
N675   N     0.46979   0.29091   0.67262   0.00000  Uiso   1.00
H676   H     0.43456   0.30011   0.67775   0.00000  Uiso   1.00
H677   H     0.49180   0.30060   0.63439   0.00000  Uiso   1.00
O678   O     0.35559   0.21974   0.81948   0.00000  Uiso   1.00
H679   H     0.38883   0.21547   0.81751   0.00000  Uiso   1.00
N680   N     0.59606   0.21998   0.81867   0.00000  Uiso   1.00
H681   H     0.59309   0.21322   0.85838   0.00000  Uiso   1.00
H682   H     0.60793   0.25075   0.81036   0.00000  Uiso   1.00
C683   C     0.83348   0.24653   0.74904   0.00000  Uiso   1.00
C684   C     0.81208   0.15864   0.99162   0.00000  Uiso   1.00
C685   C     0.82329   0.14835   0.93679   0.00000  Uiso   1.00
C686   C     0.84894   0.15528   0.51425   0.00000  Uiso   1.00
C687   C     0.89370   0.13615   0.98484   0.00000  Uiso   1.00
C688   C     0.90167   0.12112   0.93326   0.00000  Uiso   1.00
C689   C     0.86703   0.12693   0.90967   0.00000  Uiso   1.00
C690   C     0.84272   0.17098   0.56523   0.00000  Uiso   1.00
C691   C     0.92051   0.14399   0.56100   0.00000  Uiso   1.00
C692   C     0.79059   0.16024   0.91064   0.00000  Uiso   1.00
C693   C     0.84847   0.31084   0.78670   0.00000  Uiso   1.00
C694   C     0.80691   0.16410   0.85193   0.00000  Uiso   1.00
C695   C     0.84666   0.02039   0.78974   0.00000  Uiso   1.00
C696   C     0.83260   0.04255   0.75154   0.00000  Uiso   1.00
C697   C     0.81774   0.02224   0.71333   0.00000  Uiso   1.00
C698   C     0.81766   0.31246   0.71197   0.00000  Uiso   1.00
C699   C     0.83337   0.29061   0.74875   0.00000  Uiso   1.00
C700   C     0.98669   0.14081   0.71636   0.00000  Uiso   1.00
C701   C     0.70120   0.14084   0.71634   0.00000  Uiso   1.00
C702   C     0.67937   0.19272   0.78401   0.00000  Uiso   1.00
C703   C     0.96497   0.19264   0.78361   0.00000  Uiso   1.00
C704   C     0.83324   0.08674   0.75047   0.00000  Uiso   1.00
C705   C     0.86000   0.16693   0.64807   0.00000  Uiso   1.00
C706   C     0.92958   0.13152   0.50795   0.00000  Uiso   1.00
C707   C     0.87630   0.16262   0.58998   0.00000  Uiso   1.00
C708   C     0.74396   0.17351   0.94114   0.00000  Uiso   1.00
C709   C     0.73064   0.17774   0.99661   0.00000  Uiso   1.00
C710   C     0.76443   0.17146   0.52169   0.00000  Uiso   1.00
H711   H     0.94691   0.13746   0.57992   0.00000  Uiso   1.00
H712   H     0.80678   0.03986   0.68436   0.00000  Uiso   1.00
H713   H     0.97715   0.12009   0.68936   0.00000  Uiso   1.00
H714   H     0.72771   0.12013   0.68933   0.00000  Uiso   1.00
H715   H     0.93501   0.10525   0.91074   0.00000  Uiso   1.00
H716   H     0.96373   0.11676   0.98578   0.00000  Uiso   1.00
H717   H     0.81100   0.18874   0.58751   0.00000  Uiso   1.00
H718   H     0.71819   0.18174   0.92196   0.00000  Uiso   1.00
H719   H     0.75187   0.17574   0.56479   0.00000  Uiso   1.00
H720   H     0.69442   0.18755   0.52010   0.00000  Uiso   1.00
H721   H     0.87538   0.11378   0.87004   0.00000  Uiso   1.00
H722   H     0.85936   0.29319   0.81569   0.00000  Uiso   1.00
N723   N     0.71426   0.16668   0.75001   0.00000  Uiso   1.00
N724   N     0.95239   0.16665   0.75000   0.00000  Uiso   1.00
O725   O     0.79512   0.22775   0.75000   0.00000  Uiso   1.00
O726   O     0.87157   0.22774   0.75000   0.00000  Uiso   1.00
O727   O     0.77613   0.16666   0.82681   0.00000  Uiso   1.00
O728   O     0.85258   0.16665   0.82681   0.00000  Uiso   1.00
O729   O     0.79510   0.10559   0.74999   0.00000  Uiso   1.00
O730   O     0.87154   0.10558   0.74999   0.00000  Uiso   1.00
O731   O     0.81409   0.16668   0.67319   0.00000  Uiso   1.00
O732   O     0.89053   0.16667   0.67319   0.00000  Uiso   1.00
Zn733  Zn    0.78229   0.16667   0.75000   0.00000  Uiso   1.00
Zn734  Zn    0.88438   0.16666   0.75000   0.00000  Uiso   1.00
O735   O     0.85667   0.03926   0.83145   0.00000  Uiso   1.00
H736   H     0.83741   0.06537   0.84080   0.00000  Uiso   1.00
N737   N     0.80312   0.29091   0.67262   0.00000  Uiso   1.00
H738   H     0.76789   0.30011   0.67775   0.00000  Uiso   1.00
H739   H     0.82513   0.30060   0.63439   0.00000  Uiso   1.00
O740   O     0.68892   0.21974   0.81948   0.00000  Uiso   1.00
H741   H     0.72217   0.21547   0.81751   0.00000  Uiso   1.00
N742   N     0.92940   0.21998   0.81867   0.00000  Uiso   1.00
H743   H     0.92642   0.21322   0.85838   0.00000  Uiso   1.00
H744   H     0.94126   0.25075   0.81036   0.00000  Uiso   1.00
C745   C     0.16682   0.57986   0.74904   0.00000  Uiso   1.00
C746   C     0.14542   0.49197   0.99162   0.00000  Uiso   1.00
C747   C     0.15662   0.48169   0.93679   0.00000  Uiso   1.00
C748   C     0.18227   0.48861   0.51425   0.00000  Uiso   1.00
C749   C     0.22703   0.46948   0.98484   0.00000  Uiso   1.00
C750   C     0.23500   0.45446   0.93326   0.00000  Uiso   1.00
C751   C     0.20037   0.46026   0.90967   0.00000  Uiso   1.00
C752   C     0.17606   0.50431   0.56523   0.00000  Uiso   1.00
C753   C     0.25384   0.47733   0.56100   0.00000  Uiso   1.00
C754   C     0.12392   0.49357   0.91064   0.00000  Uiso   1.00
C755   C     0.18180   0.64418   0.78670   0.00000  Uiso   1.00
C756   C     0.14024   0.49743   0.85193   0.00000  Uiso   1.00
C757   C     0.17999   0.35373   0.78974   0.00000  Uiso   1.00
C758   C     0.16594   0.37588   0.75154   0.00000  Uiso   1.00
C759   C     0.15107   0.35558   0.71333   0.00000  Uiso   1.00
C760   C     0.15099   0.64579   0.71197   0.00000  Uiso   1.00
C761   C     0.16670   0.62394   0.74875   0.00000  Uiso   1.00
C762   C     0.32002   0.47414   0.71636   0.00000  Uiso   1.00
C763   C     0.03453   0.47417   0.71634   0.00000  Uiso   1.00
C764   C     0.01270   0.52605   0.78401   0.00000  Uiso   1.00
C765   C     0.29830   0.52598   0.78361   0.00000  Uiso   1.00
C766   C     0.16657   0.42008   0.75047   0.00000  Uiso   1.00
C767   C     0.19333   0.50026   0.64807   0.00000  Uiso   1.00
C768   C     0.26291   0.46486   0.50795   0.00000  Uiso   1.00
C769   C     0.20963   0.49596   0.58998   0.00000  Uiso   1.00
C770   C     0.07730   0.50684   0.94114   0.00000  Uiso   1.00
C771   C     0.06397   0.51107   0.99661   0.00000  Uiso   1.00
C772   C     0.09776   0.50479   0.52169   0.00000  Uiso   1.00
H773   H     0.28024   0.47080   0.57992   0.00000  Uiso   1.00
H774   H     0.14011   0.37319   0.68436   0.00000  Uiso   1.00
H775   H     0.31048   0.45343   0.68936   0.00000  Uiso   1.00
H776   H     0.06104   0.45347   0.68933   0.00000  Uiso   1.00
H777   H     0.26834   0.43858   0.91074   0.00000  Uiso   1.00
H778   H     0.29706   0.45010   0.98578   0.00000  Uiso   1.00
H779   H     0.14434   0.52207   0.58751   0.00000  Uiso   1.00
H780   H     0.05152   0.51507   0.92196   0.00000  Uiso   1.00
H781   H     0.08520   0.50907   0.56479   0.00000  Uiso   1.00
H782   H     0.02775   0.52089   0.52010   0.00000  Uiso   1.00
H783   H     0.20872   0.44712   0.87004   0.00000  Uiso   1.00
H784   H     0.19269   0.62653   0.81569   0.00000  Uiso   1.00
N785   N     0.04760   0.50001   0.75001   0.00000  Uiso   1.00
N786   N     0.28573   0.49998   0.75000   0.00000  Uiso   1.00
O787   O     0.12846   0.56108   0.75000   0.00000  Uiso   1.00
O788   O     0.20490   0.56107   0.75000   0.00000  Uiso   1.00
O789   O     0.10947   0.50000   0.82681   0.00000  Uiso   1.00
O790   O     0.18591   0.49999   0.82681   0.00000  Uiso   1.00
O791   O     0.12843   0.43893   0.74999   0.00000  Uiso   1.00
O792   O     0.20488   0.43892   0.74999   0.00000  Uiso   1.00
O793   O     0.14742   0.50001   0.67319   0.00000  Uiso   1.00
O794   O     0.22387   0.50000   0.67319   0.00000  Uiso   1.00
Zn795  Zn    0.11562   0.50001   0.75000   0.00000  Uiso   1.00
Zn796  Zn    0.21771   0.49999   0.75000   0.00000  Uiso   1.00
O797   O     0.19001   0.37260   0.83145   0.00000  Uiso   1.00
H798   H     0.17074   0.39870   0.84080   0.00000  Uiso   1.00
N799   N     0.13646   0.62424   0.67262   0.00000  Uiso   1.00
H800   H     0.10123   0.63344   0.67775   0.00000  Uiso   1.00
H801   H     0.15847   0.63393   0.63439   0.00000  Uiso   1.00
O802   O     0.02226   0.55307   0.81948   0.00000  Uiso   1.00
H803   H     0.05550   0.54880   0.81751   0.00000  Uiso   1.00
N804   N     0.26273   0.55331   0.81867   0.00000  Uiso   1.00
H805   H     0.25976   0.54656   0.85838   0.00000  Uiso   1.00
H806   H     0.27459   0.58409   0.81036   0.00000  Uiso   1.00
C807   C     0.50015   0.57986   0.74904   0.00000  Uiso   1.00
C808   C     0.47875   0.49197   0.99162   0.00000  Uiso   1.00
C809   C     0.48995   0.48169   0.93679   0.00000  Uiso   1.00
C810   C     0.51560   0.48861   0.51425   0.00000  Uiso   1.00
C811   C     0.56037   0.46948   0.98484   0.00000  Uiso   1.00
C812   C     0.56833   0.45446   0.93326   0.00000  Uiso   1.00
C813   C     0.53370   0.46026   0.90967   0.00000  Uiso   1.00
C814   C     0.50939   0.50431   0.56523   0.00000  Uiso   1.00
C815   C     0.58717   0.47733   0.56100   0.00000  Uiso   1.00
C816   C     0.45725   0.49357   0.91064   0.00000  Uiso   1.00
C817   C     0.51513   0.64418   0.78670   0.00000  Uiso   1.00
C818   C     0.47357   0.49743   0.85193   0.00000  Uiso   1.00
C819   C     0.51332   0.35373   0.78974   0.00000  Uiso   1.00
C820   C     0.49927   0.37588   0.75154   0.00000  Uiso   1.00
C821   C     0.48440   0.35558   0.71333   0.00000  Uiso   1.00
C822   C     0.48433   0.64579   0.71197   0.00000  Uiso   1.00
C823   C     0.50004   0.62394   0.74875   0.00000  Uiso   1.00
C824   C     0.65335   0.47414   0.71636   0.00000  Uiso   1.00
C825   C     0.36787   0.47417   0.71634   0.00000  Uiso   1.00
C826   C     0.34604   0.52605   0.78401   0.00000  Uiso   1.00
C827   C     0.63164   0.52598   0.78361   0.00000  Uiso   1.00
C828   C     0.49991   0.42008   0.75047   0.00000  Uiso   1.00
C829   C     0.52666   0.50026   0.64807   0.00000  Uiso   1.00
C830   C     0.59624   0.46486   0.50795   0.00000  Uiso   1.00
C831   C     0.54297   0.49596   0.58998   0.00000  Uiso   1.00
C832   C     0.41063   0.50684   0.94114   0.00000  Uiso   1.00
C833   C     0.39730   0.51107   0.99661   0.00000  Uiso   1.00
C834   C     0.43110   0.50479   0.52169   0.00000  Uiso   1.00
H835   H     0.61358   0.47080   0.57992   0.00000  Uiso   1.00
H836   H     0.47345   0.37319   0.68436   0.00000  Uiso   1.00
H837   H     0.64381   0.45343   0.68936   0.00000  Uiso   1.00
H838   H     0.39437   0.45347   0.68933   0.00000  Uiso   1.00
H839   H     0.60167   0.43858   0.91074   0.00000  Uiso   1.00
H840   H     0.63040   0.45010   0.98578   0.00000  Uiso   1.00
H841   H     0.47767   0.52207   0.58751   0.00000  Uiso   1.00
H842   H     0.38485   0.51507   0.92196   0.00000  Uiso   1.00
H843   H     0.41853   0.50907   0.56479   0.00000  Uiso   1.00
H844   H     0.36109   0.52089   0.52010   0.00000  Uiso   1.00
H845   H     0.54205   0.44712   0.87004   0.00000  Uiso   1.00
H846   H     0.52602   0.62653   0.81569   0.00000  Uiso   1.00
N847   N     0.38093   0.50001   0.75001   0.00000  Uiso   1.00
N848   N     0.61906   0.49998   0.75000   0.00000  Uiso   1.00
O849   O     0.46179   0.56108   0.75000   0.00000  Uiso   1.00
O850   O     0.53823   0.56107   0.75000   0.00000  Uiso   1.00
O851   O     0.44280   0.50000   0.82681   0.00000  Uiso   1.00
O852   O     0.51924   0.49999   0.82681   0.00000  Uiso   1.00
O853   O     0.46177   0.43893   0.74999   0.00000  Uiso   1.00
O854   O     0.53821   0.43892   0.74999   0.00000  Uiso   1.00
O855   O     0.48076   0.50001   0.67319   0.00000  Uiso   1.00
O856   O     0.55720   0.50000   0.67319   0.00000  Uiso   1.00
Zn857  Zn    0.44896   0.50001   0.75000   0.00000  Uiso   1.00
Zn858  Zn    0.55104   0.49999   0.75000   0.00000  Uiso   1.00
O859   O     0.52334   0.37260   0.83145   0.00000  Uiso   1.00
H860   H     0.50408   0.39870   0.84080   0.00000  Uiso   1.00
N861   N     0.46979   0.62424   0.67262   0.00000  Uiso   1.00
H862   H     0.43456   0.63344   0.67775   0.00000  Uiso   1.00
H863   H     0.49180   0.63393   0.63439   0.00000  Uiso   1.00
O864   O     0.35559   0.55307   0.81948   0.00000  Uiso   1.00
H865   H     0.38883   0.54880   0.81751   0.00000  Uiso   1.00
N866   N     0.59606   0.55331   0.81867   0.00000  Uiso   1.00
H867   H     0.59309   0.54656   0.85838   0.00000  Uiso   1.00
H868   H     0.60793   0.58409   0.81036   0.00000  Uiso   1.00
C869   C     0.83348   0.57986   0.74904   0.00000  Uiso   1.00
C870   C     0.81208   0.49197   0.99162   0.00000  Uiso   1.00
C871   C     0.82329   0.48169   0.93679   0.00000  Uiso   1.00
C872   C     0.84894   0.48861   0.51425   0.00000  Uiso   1.00
C873   C     0.89370   0.46948   0.98484   0.00000  Uiso   1.00
C874   C     0.90167   0.45446   0.93326   0.00000  Uiso   1.00
C875   C     0.86703   0.46026   0.90967   0.00000  Uiso   1.00
C876   C     0.84272   0.50431   0.56523   0.00000  Uiso   1.00
C877   C     0.92051   0.47733   0.56100   0.00000  Uiso   1.00
C878   C     0.79059   0.49357   0.91064   0.00000  Uiso   1.00
C879   C     0.84847   0.64418   0.78670   0.00000  Uiso   1.00
C880   C     0.80691   0.49743   0.85193   0.00000  Uiso   1.00
C881   C     0.84666   0.35373   0.78974   0.00000  Uiso   1.00
C882   C     0.83260   0.37588   0.75154   0.00000  Uiso   1.00
C883   C     0.81774   0.35558   0.71333   0.00000  Uiso   1.00
C884   C     0.81766   0.64579   0.71197   0.00000  Uiso   1.00
C885   C     0.83337   0.62394   0.74875   0.00000  Uiso   1.00
C886   C     0.98669   0.47414   0.71636   0.00000  Uiso   1.00
C887   C     0.70120   0.47417   0.71634   0.00000  Uiso   1.00
C888   C     0.67937   0.52605   0.78401   0.00000  Uiso   1.00
C889   C     0.96497   0.52598   0.78361   0.00000  Uiso   1.00
C890   C     0.83324   0.42008   0.75047   0.00000  Uiso   1.00
C891   C     0.86000   0.50026   0.64807   0.00000  Uiso   1.00
C892   C     0.92958   0.46486   0.50795   0.00000  Uiso   1.00
C893   C     0.87630   0.49596   0.58998   0.00000  Uiso   1.00
C894   C     0.74396   0.50684   0.94114   0.00000  Uiso   1.00
C895   C     0.73064   0.51107   0.99661   0.00000  Uiso   1.00
C896   C     0.76443   0.50479   0.52169   0.00000  Uiso   1.00
H897   H     0.94691   0.47080   0.57992   0.00000  Uiso   1.00
H898   H     0.80678   0.37319   0.68436   0.00000  Uiso   1.00
H899   H     0.97715   0.45343   0.68936   0.00000  Uiso   1.00
H900   H     0.72771   0.45347   0.68933   0.00000  Uiso   1.00
H901   H     0.93501   0.43858   0.91074   0.00000  Uiso   1.00
H902   H     0.96373   0.45010   0.98578   0.00000  Uiso   1.00
H903   H     0.81100   0.52207   0.58751   0.00000  Uiso   1.00
H904   H     0.71819   0.51507   0.92196   0.00000  Uiso   1.00
H905   H     0.75187   0.50907   0.56479   0.00000  Uiso   1.00
H906   H     0.69442   0.52089   0.52010   0.00000  Uiso   1.00
H907   H     0.87538   0.44712   0.87004   0.00000  Uiso   1.00
H908   H     0.85936   0.62653   0.81569   0.00000  Uiso   1.00
N909   N     0.71426   0.50001   0.75001   0.00000  Uiso   1.00
N910   N     0.95239   0.49998   0.75000   0.00000  Uiso   1.00
O911   O     0.79512   0.56108   0.75000   0.00000  Uiso   1.00
O912   O     0.87157   0.56107   0.75000   0.00000  Uiso   1.00
O913   O     0.77613   0.50000   0.82681   0.00000  Uiso   1.00
O914   O     0.85258   0.49999   0.82681   0.00000  Uiso   1.00
O915   O     0.79510   0.43893   0.74999   0.00000  Uiso   1.00
O916   O     0.87154   0.43892   0.74999   0.00000  Uiso   1.00
O917   O     0.81409   0.50001   0.67319   0.00000  Uiso   1.00
O918   O     0.89053   0.50000   0.67319   0.00000  Uiso   1.00
Zn919  Zn    0.78229   0.50001   0.75000   0.00000  Uiso   1.00
Zn920  Zn    0.88438   0.49999   0.75000   0.00000  Uiso   1.00
O921   O     0.85667   0.37260   0.83145   0.00000  Uiso   1.00
H922   H     0.83741   0.39870   0.84080   0.00000  Uiso   1.00
N923   N     0.80312   0.62424   0.67262   0.00000  Uiso   1.00
H924   H     0.76789   0.63344   0.67775   0.00000  Uiso   1.00
H925   H     0.82513   0.63393   0.63439   0.00000  Uiso   1.00
O926   O     0.68892   0.55307   0.81948   0.00000  Uiso   1.00
H927   H     0.72217   0.54880   0.81751   0.00000  Uiso   1.00
N928   N     0.92940   0.55331   0.81867   0.00000  Uiso   1.00
H929   H     0.92642   0.54656   0.85838   0.00000  Uiso   1.00
H930   H     0.94126   0.58409   0.81036   0.00000  Uiso   1.00
C931   C     0.16682   0.91319   0.74904   0.00000  Uiso   1.00
C932   C     0.14542   0.82530   0.99162   0.00000  Uiso   1.00
C933   C     0.15662   0.81502   0.93679   0.00000  Uiso   1.00
C934   C     0.18227   0.82195   0.51425   0.00000  Uiso   1.00
C935   C     0.22703   0.80282   0.98484   0.00000  Uiso   1.00
C936   C     0.23500   0.78779   0.93326   0.00000  Uiso   1.00
C937   C     0.20037   0.79359   0.90967   0.00000  Uiso   1.00
C938   C     0.17606   0.83765   0.56523   0.00000  Uiso   1.00
C939   C     0.25384   0.81066   0.56100   0.00000  Uiso   1.00
C940   C     0.12392   0.82691   0.91064   0.00000  Uiso   1.00
C941   C     0.18180   0.97751   0.78670   0.00000  Uiso   1.00
C942   C     0.14024   0.83077   0.85193   0.00000  Uiso   1.00
C943   C     0.17999   0.68706   0.78974   0.00000  Uiso   1.00
C944   C     0.16594   0.70922   0.75154   0.00000  Uiso   1.00
C945   C     0.15107   0.68891   0.71333   0.00000  Uiso   1.00
C946   C     0.15099   0.97912   0.71197   0.00000  Uiso   1.00
C947   C     0.16670   0.95727   0.74875   0.00000  Uiso   1.00
C948   C     0.32002   0.80748   0.71636   0.00000  Uiso   1.00
C949   C     0.03453   0.80750   0.71634   0.00000  Uiso   1.00
C950   C     0.01270   0.85938   0.78401   0.00000  Uiso   1.00
C951   C     0.29830   0.85931   0.78361   0.00000  Uiso   1.00
C952   C     0.16657   0.75341   0.75047   0.00000  Uiso   1.00
C953   C     0.19333   0.83360   0.64807   0.00000  Uiso   1.00
C954   C     0.26291   0.79819   0.50795   0.00000  Uiso   1.00
C955   C     0.20963   0.82929   0.58998   0.00000  Uiso   1.00
C956   C     0.07730   0.84017   0.94114   0.00000  Uiso   1.00
C957   C     0.06397   0.84441   0.99661   0.00000  Uiso   1.00
C958   C     0.09776   0.83812   0.52169   0.00000  Uiso   1.00
H959   H     0.28024   0.80413   0.57992   0.00000  Uiso   1.00
H960   H     0.14011   0.70652   0.68436   0.00000  Uiso   1.00
H961   H     0.31048   0.78676   0.68936   0.00000  Uiso   1.00
H962   H     0.06104   0.78680   0.68933   0.00000  Uiso   1.00
H963   H     0.26834   0.77191   0.91074   0.00000  Uiso   1.00
H964   H     0.29706   0.78343   0.98578   0.00000  Uiso   1.00
H965   H     0.14434   0.85541   0.58751   0.00000  Uiso   1.00
H966   H     0.05152   0.84840   0.92196   0.00000  Uiso   1.00
H967   H     0.08520   0.84240   0.56479   0.00000  Uiso   1.00
H968   H     0.02775   0.85422   0.52010   0.00000  Uiso   1.00
H969   H     0.20872   0.78045   0.87004   0.00000  Uiso   1.00
H970   H     0.19269   0.95986   0.81569   0.00000  Uiso   1.00
N971   N     0.04760   0.83334   0.75001   0.00000  Uiso   1.00
N972   N     0.28573   0.83331   0.75000   0.00000  Uiso   1.00
O973   O     0.12846   0.89442   0.75000   0.00000  Uiso   1.00
O974   O     0.20490   0.89441   0.75000   0.00000  Uiso   1.00
O975   O     0.10947   0.83333   0.82681   0.00000  Uiso   1.00
O976   O     0.18591   0.83332   0.82681   0.00000  Uiso   1.00
O977   O     0.12843   0.77226   0.74999   0.00000  Uiso   1.00
O978   O     0.20488   0.77225   0.74999   0.00000  Uiso   1.00
O979   O     0.14742   0.83335   0.67319   0.00000  Uiso   1.00
O980   O     0.22387   0.83334   0.67319   0.00000  Uiso   1.00
Zn981  Zn    0.11562   0.83334   0.75000   0.00000  Uiso   1.00
Zn982  Zn    0.21771   0.83333   0.75000   0.00000  Uiso   1.00
O983   O     0.19001   0.70593   0.83145   0.00000  Uiso   1.00
H984   H     0.17074   0.73204   0.84080   0.00000  Uiso   1.00
N985   N     0.13646   0.95757   0.67262   0.00000  Uiso   1.00
H986   H     0.10123   0.96677   0.67775   0.00000  Uiso   1.00
H987   H     0.15847   0.96727   0.63439   0.00000  Uiso   1.00
O988   O     0.02226   0.88640   0.81948   0.00000  Uiso   1.00
H989   H     0.05550   0.88214   0.81751   0.00000  Uiso   1.00
N990   N     0.26273   0.88664   0.81867   0.00000  Uiso   1.00
H991   H     0.25976   0.87989   0.85838   0.00000  Uiso   1.00
H992   H     0.27459   0.91742   0.81036   0.00000  Uiso   1.00
C993   C     0.50015   0.91319   0.74904   0.00000  Uiso   1.00
C994   C     0.47875   0.82530   0.99162   0.00000  Uiso   1.00
C995   C     0.48995   0.81502   0.93679   0.00000  Uiso   1.00
C996   C     0.51560   0.82195   0.51425   0.00000  Uiso   1.00
C997   C     0.56037   0.80282   0.98484   0.00000  Uiso   1.00
C998   C     0.56833   0.78779   0.93326   0.00000  Uiso   1.00
C999   C     0.53370   0.79359   0.90967   0.00000  Uiso   1.00
C1000  C     0.50939   0.83765   0.56523   0.00000  Uiso   1.00
C1001  C     0.58717   0.81066   0.56100   0.00000  Uiso   1.00
C1002  C     0.45725   0.82691   0.91064   0.00000  Uiso   1.00
C1003  C     0.51513   0.97751   0.78670   0.00000  Uiso   1.00
C1004  C     0.47357   0.83077   0.85193   0.00000  Uiso   1.00
C1005  C     0.51332   0.68706   0.78974   0.00000  Uiso   1.00
C1006  C     0.49927   0.70922   0.75154   0.00000  Uiso   1.00
C1007  C     0.48440   0.68891   0.71333   0.00000  Uiso   1.00
C1008  C     0.48433   0.97912   0.71197   0.00000  Uiso   1.00
C1009  C     0.50004   0.95727   0.74875   0.00000  Uiso   1.00
C1010  C     0.65335   0.80748   0.71636   0.00000  Uiso   1.00
C1011  C     0.36787   0.80750   0.71634   0.00000  Uiso   1.00
C1012  C     0.34604   0.85938   0.78401   0.00000  Uiso   1.00
C1013  C     0.63164   0.85931   0.78361   0.00000  Uiso   1.00
C1014  C     0.49991   0.75341   0.75047   0.00000  Uiso   1.00
C1015  C     0.52666   0.83360   0.64807   0.00000  Uiso   1.00
C1016  C     0.59624   0.79819   0.50795   0.00000  Uiso   1.00
C1017  C     0.54297   0.82929   0.58998   0.00000  Uiso   1.00
C1018  C     0.41063   0.84017   0.94114   0.00000  Uiso   1.00
C1019  C     0.39730   0.84441   0.99661   0.00000  Uiso   1.00
C1020  C     0.43110   0.83812   0.52169   0.00000  Uiso   1.00
H1021  H     0.61358   0.80413   0.57992   0.00000  Uiso   1.00
H1022  H     0.47345   0.70652   0.68436   0.00000  Uiso   1.00
H1023  H     0.64381   0.78676   0.68936   0.00000  Uiso   1.00
H1024  H     0.39437   0.78680   0.68933   0.00000  Uiso   1.00
H1025  H     0.60167   0.77191   0.91074   0.00000  Uiso   1.00
H1026  H     0.63040   0.78343   0.98578   0.00000  Uiso   1.00
H1027  H     0.47767   0.85541   0.58751   0.00000  Uiso   1.00
H1028  H     0.38485   0.84840   0.92196   0.00000  Uiso   1.00
H1029  H     0.41853   0.84240   0.56479   0.00000  Uiso   1.00
H1030  H     0.36109   0.85422   0.52010   0.00000  Uiso   1.00
H1031  H     0.54205   0.78045   0.87004   0.00000  Uiso   1.00
H1032  H     0.52602   0.95986   0.81569   0.00000  Uiso   1.00
N1033  N     0.38093   0.83334   0.75001   0.00000  Uiso   1.00
N1034  N     0.61906   0.83331   0.75000   0.00000  Uiso   1.00
O1035  O     0.46179   0.89442   0.75000   0.00000  Uiso   1.00
O1036  O     0.53823   0.89441   0.75000   0.00000  Uiso   1.00
O1037  O     0.44280   0.83333   0.82681   0.00000  Uiso   1.00
O1038  O     0.51924   0.83332   0.82681   0.00000  Uiso   1.00
O1039  O     0.46177   0.77226   0.74999   0.00000  Uiso   1.00
O1040  O     0.53821   0.77225   0.74999   0.00000  Uiso   1.00
O1041  O     0.48076   0.83335   0.67319   0.00000  Uiso   1.00
O1042  O     0.55720   0.83334   0.67319   0.00000  Uiso   1.00
Zn1043 Zn    0.44896   0.83334   0.75000   0.00000  Uiso   1.00
Zn1044 Zn    0.55104   0.83333   0.75000   0.00000  Uiso   1.00
O1045  O     0.52334   0.70593   0.83145   0.00000  Uiso   1.00
H1046  H     0.50408   0.73204   0.84080   0.00000  Uiso   1.00
N1047  N     0.46979   0.95757   0.67262   0.00000  Uiso   1.00
H1048  H     0.43456   0.96677   0.67775   0.00000  Uiso   1.00
H1049  H     0.49180   0.96727   0.63439   0.00000  Uiso   1.00
O1050  O     0.35559   0.88640   0.81948   0.00000  Uiso   1.00
H1051  H     0.38883   0.88214   0.81751   0.00000  Uiso   1.00
N1052  N     0.59606   0.88664   0.81867   0.00000  Uiso   1.00
H1053  H     0.59309   0.87989   0.85838   0.00000  Uiso   1.00
H1054  H     0.60793   0.91742   0.81036   0.00000  Uiso   1.00
C1055  C     0.83348   0.91319   0.74904   0.00000  Uiso   1.00
C1056  C     0.81208   0.82530   0.99162   0.00000  Uiso   1.00
C1057  C     0.82329   0.81502   0.93679   0.00000  Uiso   1.00
C1058  C     0.84894   0.82195   0.51425   0.00000  Uiso   1.00
C1059  C     0.89370   0.80282   0.98484   0.00000  Uiso   1.00
C1060  C     0.90167   0.78779   0.93326   0.00000  Uiso   1.00
C1061  C     0.86703   0.79359   0.90967   0.00000  Uiso   1.00
C1062  C     0.84272   0.83765   0.56523   0.00000  Uiso   1.00
C1063  C     0.92051   0.81066   0.56100   0.00000  Uiso   1.00
C1064  C     0.79059   0.82691   0.91064   0.00000  Uiso   1.00
C1065  C     0.84847   0.97751   0.78670   0.00000  Uiso   1.00
C1066  C     0.80691   0.83077   0.85193   0.00000  Uiso   1.00
C1067  C     0.84666   0.68706   0.78974   0.00000  Uiso   1.00
C1068  C     0.83260   0.70922   0.75154   0.00000  Uiso   1.00
C1069  C     0.81774   0.68891   0.71333   0.00000  Uiso   1.00
C1070  C     0.81766   0.97912   0.71197   0.00000  Uiso   1.00
C1071  C     0.83337   0.95727   0.74875   0.00000  Uiso   1.00
C1072  C     0.98669   0.80748   0.71636   0.00000  Uiso   1.00
C1073  C     0.70120   0.80750   0.71634   0.00000  Uiso   1.00
C1074  C     0.67937   0.85938   0.78401   0.00000  Uiso   1.00
C1075  C     0.96497   0.85931   0.78361   0.00000  Uiso   1.00
C1076  C     0.83324   0.75341   0.75047   0.00000  Uiso   1.00
C1077  C     0.86000   0.83360   0.64807   0.00000  Uiso   1.00
C1078  C     0.92958   0.79819   0.50795   0.00000  Uiso   1.00
C1079  C     0.87630   0.82929   0.58998   0.00000  Uiso   1.00
C1080  C     0.74396   0.84017   0.94114   0.00000  Uiso   1.00
C1081  C     0.73064   0.84441   0.99661   0.00000  Uiso   1.00
C1082  C     0.76443   0.83812   0.52169   0.00000  Uiso   1.00
H1083  H     0.94691   0.80413   0.57992   0.00000  Uiso   1.00
H1084  H     0.80678   0.70652   0.68436   0.00000  Uiso   1.00
H1085  H     0.97715   0.78676   0.68936   0.00000  Uiso   1.00
H1086  H     0.72771   0.78680   0.68933   0.00000  Uiso   1.00
H1087  H     0.93501   0.77191   0.91074   0.00000  Uiso   1.00
H1088  H     0.96373   0.78343   0.98578   0.00000  Uiso   1.00
H1089  H     0.81100   0.85541   0.58751   0.00000  Uiso   1.00
H1090  H     0.71819   0.84840   0.92196   0.00000  Uiso   1.00
H1091  H     0.75187   0.84240   0.56479   0.00000  Uiso   1.00
H1092  H     0.69442   0.85422   0.52010   0.00000  Uiso   1.00
H1093  H     0.87538   0.78045   0.87004   0.00000  Uiso   1.00
H1094  H     0.85936   0.95986   0.81569   0.00000  Uiso   1.00
N1095  N     0.71426   0.83334   0.75001   0.00000  Uiso   1.00
N1096  N     0.95239   0.83331   0.75000   0.00000  Uiso   1.00
O1097  O     0.79512   0.89442   0.75000   0.00000  Uiso   1.00
O1098  O     0.87157   0.89441   0.75000   0.00000  Uiso   1.00
O1099  O     0.77613   0.83333   0.82681   0.00000  Uiso   1.00
O1100  O     0.85258   0.83332   0.82681   0.00000  Uiso   1.00
O1101  O     0.79510   0.77226   0.74999   0.00000  Uiso   1.00
O1102  O     0.87154   0.77225   0.74999   0.00000  Uiso   1.00
O1103  O     0.81409   0.83335   0.67319   0.00000  Uiso   1.00
O1104  O     0.89053   0.83334   0.67319   0.00000  Uiso   1.00
Zn1105 Zn    0.78229   0.83334   0.75000   0.00000  Uiso   1.00
Zn1106 Zn    0.88438   0.83333   0.75000   0.00000  Uiso   1.00
O1107  O     0.85667   0.70593   0.83145   0.00000  Uiso   1.00
H1108  H     0.83741   0.73204   0.84080   0.00000  Uiso   1.00
N1109  N     0.80312   0.95757   0.67262   0.00000  Uiso   1.00
H1110  H     0.76789   0.96677   0.67775   0.00000  Uiso   1.00
H1111  H     0.82513   0.96727   0.63439   0.00000  Uiso   1.00
O1112  O     0.68892   0.88640   0.81948   0.00000  Uiso   1.00
H1113  H     0.72217   0.88214   0.81751   0.00000  Uiso   1.00
N1114  N     0.92940   0.88664   0.81867   0.00000  Uiso   1.00
H1115  H     0.92642   0.87989   0.85838   0.00000  Uiso   1.00
H1116  H     0.94126   0.91742   0.81036   0.00000  Uiso   1.00
loop_
_geom_bond_atom_site_label_1
_geom_bond_atom_site_label_2
_geom_bond_distance
_geom_bond_site_symmetry_2
_ccdc_geom_bond_type
C1     O44     1.282   .     A
C1     C17     1.409   .     S
C1     O43     1.283   .     A
C2     C3      1.409   .     A
C2     C562    1.418   .     S
C2     C586    1.419   .     S
C3     C10     1.420   .     A
C3     C7      1.418   .     A
C4     C8      1.389   .     A
C4     C560    1.418   1_554 S
C4     C563    1.420   1_554 S
C5     C6      1.386   .     A
C5     C562    1.420   .     S
C5     C582    1.404   .     S
C6     C7      1.384   .     A
C6     H33     1.084   .     S
C7     H39     1.075   .     S
C8     H35     1.079   .     S
C8     C25     1.391   .     A
C9     C24     1.392   .     A
C9     H29     1.083   .     S
C9     C25     1.398   .     A
C10    C26     1.402   .     A
C10    C12     1.464   .     S
C11    H40     1.085   .     S
C11    C17     1.393   .     A
C11    C199    1.373   .     S
C12    O46     1.290   .     A
C12    O45     1.302   .     A
C13    C14     1.407   .     A
C13    O53     1.377   .     S
C13    C383    1.373   1_545 S
C14    C22     1.413   .     S
C14    C15     1.395   .     A
C15    H30     1.085   .     S
C15    C388    1.379   1_545 S
C16    N55     1.434   .     S
C16    C17     1.399   .     A
C16    C201    1.379   .     S
C18    N42     1.367   .     A
C18    H31     1.082   .     S
C18    C81     1.419   .     S
C19    H32     1.082   .     S
C19    N41     1.367   .     A
C19    C142    1.419   1_455 S
C20    N41     1.384   .     A
C20    O58     1.376   .     S
C20    C145    1.419   1_455 S
C21    N60     1.431   .     S
C21    N42     1.361   .     A
C21    C82     1.419   .     S
C22    O48     1.287   .     A
C22    O47     1.281   .     A
C23    O49     1.293   .     A
C23    C25     1.449   .     S
C23    O50     1.294   .     A
C24    C563    1.404   1_554 S
C24    H592    1.084   1_554 S
C26    C27     1.388   .     A
C26    H36     1.083   .     S
C27    C586    1.392   .     S
C27    H596    1.083   .     S
C28    H37     1.079   .     S
C28    C560    1.419   1_554 S
C28    C585    1.392   1_554 S
H34    C582    1.084   .     S
H38    C585    1.083   1_554 S
N41    Zn51    2.017   .     S
N42    Zn52    2.017   .     S
O43    Zn51    1.993   .     S
O44    Zn52    1.986   .     S
O45    Zn51    1.975   .     S
O46    Zn52    1.922   .     S
O47    Zn51    1.986   .     S
O48    Zn52    1.993   .     S
O49    Zn51    1.922   .     S
O50    Zn52    1.975   .     S
O53    H54     0.989   .     S
N55    H56     1.046   .     S
N55    H57     1.046   .     S
O58    H59     0.977   .     S
N60    H61     1.046   .     S
N60    H62     1.045   .     S
C63    O106    1.282   .     A
C63    C79     1.409   .     S
C63    O105    1.283   .     A
C64    C65     1.409   .     A
C64    C624    1.418   .     S
C64    C648    1.419   .     S
C65    C72     1.420   .     A
C65    C69     1.418   .     A
C66    C70     1.389   .     A
C66    C622    1.418   1_554 S
C66    C625    1.420   1_554 S
C67    C68     1.386   .     A
C67    C624    1.420   .     S
C67    C644    1.404   .     S
C68    C69     1.384   .     A
C68    H95     1.084   .     S
C69    H101    1.075   .     S
C70    H97     1.079   .     S
C70    C87     1.391   .     A
C71    C86     1.392   .     A
C71    H91     1.083   .     S
C71    C87     1.398   .     A
C72    C88     1.402   .     A
C72    C74     1.464   .     S
C73    H102    1.085   .     S
C73    C79     1.393   .     A
C73    C261    1.373   .     S
C74    O108    1.290   .     A
C74    O107    1.302   .     A
C75    C76     1.407   .     A
C75    O115    1.377   .     S
C75    C445    1.373   1_545 S
C76    C84     1.413   .     S
C76    C77     1.395   .     A
C77    H92     1.085   .     S
C77    C450    1.379   1_545 S
C78    N117    1.434   .     S
C78    C79     1.399   .     A
C78    C263    1.379   .     S
C80    N104    1.367   .     A
C80    H93     1.082   .     S
C80    C143    1.419   .     S
C81    H94     1.082   .     S
C81    N103    1.367   .     A
C82    N103    1.384   .     A
C82    O120    1.376   .     S
C83    N122    1.431   .     S
C83    N104    1.361   .     A
C83    C144    1.419   .     S
C84    O110    1.287   .     A
C84    O109    1.281   .     A
C85    O111    1.293   .     A
C85    C87     1.449   .     S
C85    O112    1.294   .     A
C86    C625    1.404   1_554 S
C86    H654    1.084   1_554 S
C88    C89     1.388   .     A
C88    H98     1.083   .     S
C89    C648    1.392   .     S
C89    H658    1.083   .     S
C90    H99     1.079   .     S
C90    C622    1.419   1_554 S
C90    C647    1.392   1_554 S
H96    C644    1.084   .     S
H100   C647    1.083   1_554 S
N103   Zn113   2.017   .     S
N104   Zn114   2.017   .     S
O105   Zn113   1.993   .     S
O106   Zn114   1.986   .     S
O107   Zn113   1.975   .     S
O108   Zn114   1.922   .     S
O109   Zn113   1.986   .     S
O110   Zn114   1.993   .     S
O111   Zn113   1.922   .     S
O112   Zn114   1.975   .     S
O115   H116    0.989   .     S
N117   H118    1.046   .     S
N117   H119    1.046   .     S
O120   H121    0.977   .     S
N122   H123    1.046   .     S
N122   H124    1.045   .     S
C125   O168    1.282   .     A
C125   C141    1.409   .     S
C125   O167    1.283   .     A
C126   C127    1.409   .     A
C126   C686    1.418   .     S
C126   C710    1.419   .     S
C127   C134    1.420   .     A
C127   C131    1.418   .     A
C128   C132    1.389   .     A
C128   C684    1.418   1_554 S
C128   C687    1.420   1_554 S
C129   C130    1.386   .     A
C129   C686    1.420   .     S
C129   C706    1.404   .     S
C130   C131    1.384   .     A
C130   H157    1.084   .     S
C131   H163    1.075   .     S
C132   H159    1.079   .     S
C132   C149    1.391   .     A
C133   C148    1.392   .     A
C133   H153    1.083   .     S
C133   C149    1.398   .     A
C134   C150    1.402   .     A
C134   C136    1.464   .     S
C135   H164    1.085   .     S
C135   C141    1.393   .     A
C135   C323    1.373   .     S
C136   O170    1.290   .     A
C136   O169    1.302   .     A
C137   C138    1.407   .     A
C137   O177    1.377   .     S
C137   C507    1.373   1_545 S
C138   C146    1.413   .     S
C138   C139    1.395   .     A
C139   H154    1.085   .     S
C139   C512    1.379   1_545 S
C140   N179    1.434   .     S
C140   C141    1.399   .     A
C140   C325    1.379   .     S
C142   N166    1.367   .     A
C142   H155    1.082   .     S
C142   C19     1.419   1_655 S
C143   H156    1.082   .     S
C143   N165    1.367   .     A
C144   N165    1.384   .     A
C144   O182    1.376   .     S
C145   N184    1.431   .     S
C145   N166    1.361   .     A
C145   C20     1.419   1_655 S
C146   O172    1.287   .     A
C146   O171    1.281   .     A
C147   O173    1.293   .     A
C147   C149    1.449   .     S
C147   O174    1.294   .     A
C148   C687    1.404   1_554 S
C148   H716    1.084   1_554 S
C150   C151    1.388   .     A
C150   H160    1.083   .     S
C151   C710    1.392   .     S
C151   H720    1.083   .     S
C152   H161    1.079   .     S
C152   C684    1.419   1_554 S
C152   C709    1.392   1_554 S
H158   C706    1.084   .     S
H162   C709    1.083   1_554 S
N165   Zn175   2.017   .     S
N166   Zn176   2.017   .     S
O167   Zn175   1.993   .     S
O168   Zn176   1.986   .     S
O169   Zn175   1.975   .     S
O170   Zn176   1.922   .     S
O171   Zn175   1.986   .     S
O172   Zn176   1.993   .     S
O173   Zn175   1.922   .     S
O174   Zn176   1.975   .     S
O177   H178    0.989   .     S
N179   H180    1.046   .     S
N179   H181    1.046   .     S
O182   H183    0.977   .     S
N184   H185    1.046   .     S
N184   H186    1.045   .     S
C187   O230    1.282   .     A
C187   C203    1.409   .     S
C187   O229    1.283   .     A
C188   C189    1.409   .     A
C188   C748    1.418   .     S
C188   C772    1.419   .     S
C189   C196    1.420   .     A
C189   C193    1.418   .     A
C190   C194    1.389   .     A
C190   C746    1.418   1_554 S
C190   C749    1.420   1_554 S
C191   C192    1.386   .     A
C191   C748    1.420   .     S
C191   C768    1.404   .     S
C192   C193    1.384   .     A
C192   H219    1.084   .     S
C193   H225    1.075   .     S
C194   H221    1.079   .     S
C194   C211    1.391   .     A
C195   C210    1.392   .     A
C195   H215    1.083   .     S
C195   C211    1.398   .     A
C196   C212    1.402   .     A
C196   C198    1.464   .     S
C197   H226    1.085   .     S
C197   C203    1.393   .     A
C197   C385    1.373   .     S
C198   O232    1.290   .     A
C198   O231    1.302   .     A
C199   C200    1.407   .     A
C199   O239    1.377   .     S
C200   C208    1.413   .     S
C200   C201    1.395   .     A
C201   H216    1.085   .     S
C202   N241    1.434   .     S
C202   C203    1.399   .     A
C202   C387    1.379   .     S
C204   N228    1.367   .     A
C204   H217    1.082   .     S
C204   C267    1.419   .     S
C205   H218    1.082   .     S
C205   N227    1.367   .     A
C205   C328    1.419   1_455 S
C206   N227    1.384   .     A
C206   O244    1.376   .     S
C206   C331    1.419   1_455 S
C207   N246    1.431   .     S
C207   N228    1.361   .     A
C207   C268    1.419   .     S
C208   O234    1.287   .     A
C208   O233    1.281   .     A
C209   O235    1.293   .     A
C209   C211    1.449   .     S
C209   O236    1.294   .     A
C210   C749    1.404   1_554 S
C210   H778    1.084   1_554 S
C212   C213    1.388   .     A
C212   H222    1.083   .     S
C213   C772    1.392   .     S
C213   H782    1.083   .     S
C214   H223    1.079   .     S
C214   C746    1.419   1_554 S
C214   C771    1.392   1_554 S
H220   C768    1.084   .     S
H224   C771    1.083   1_554 S
N227   Zn237   2.017   .     S
N228   Zn238   2.017   .     S
O229   Zn237   1.993   .     S
O230   Zn238   1.986   .     S
O231   Zn237   1.975   .     S
O232   Zn238   1.922   .     S
O233   Zn237   1.986   .     S
O234   Zn238   1.993   .     S
O235   Zn237   1.922   .     S
O236   Zn238   1.975   .     S
O239   H240    0.989   .     S
N241   H242    1.046   .     S
N241   H243    1.046   .     S
O244   H245    0.977   .     S
N246   H247    1.046   .     S
N246   H248    1.045   .     S
C249   O292    1.282   .     A
C249   C265    1.409   .     S
C249   O291    1.283   .     A
C250   C251    1.409   .     A
C250   C810    1.418   .     S
C250   C834    1.419   .     S
C251   C258    1.420   .     A
C251   C255    1.418   .     A
C252   C256    1.389   .     A
C252   C808    1.418   1_554 S
C252   C811    1.420   1_554 S
C253   C254    1.386   .     A
C253   C810    1.420   .     S
C253   C830    1.404   .     S
C254   C255    1.384   .     A
C254   H281    1.084   .     S
C255   H287    1.075   .     S
C256   H283    1.079   .     S
C256   C273    1.391   .     A
C257   C272    1.392   .     A
C257   H277    1.083   .     S
C257   C273    1.398   .     A
C258   C274    1.402   .     A
C258   C260    1.464   .     S
C259   H288    1.085   .     S
C259   C265    1.393   .     A
C259   C447    1.373   .     S
C260   O294    1.290   .     A
C260   O293    1.302   .     A
C261   C262    1.407   .     A
C261   O301    1.377   .     S
C262   C270    1.413   .     S
C262   C263    1.395   .     A
C263   H278    1.085   .     S
C264   N303    1.434   .     S
C264   C265    1.399   .     A
C264   C449    1.379   .     S
C266   N290    1.367   .     A
C266   H279    1.082   .     S
C266   C329    1.419   .     S
C267   H280    1.082   .     S
C267   N289    1.367   .     A
C268   N289    1.384   .     A
C268   O306    1.376   .     S
C269   N308    1.431   .     S
C269   N290    1.361   .     A
C269   C330    1.419   .     S
C270   O296    1.287   .     A
C270   O295    1.281   .     A
C271   O297    1.293   .     A
C271   C273    1.449   .     S
C271   O298    1.294   .     A
C272   C811    1.404   1_554 S
C272   H840    1.084   1_554 S
C274   C275    1.388   .     A
C274   H284    1.083   .     S
C275   C834    1.392   .     S
C275   H844    1.083   .     S
C276   H285    1.079   .     S
C276   C808    1.419   1_554 S
C276   C833    1.392   1_554 S
H282   C830    1.084   .     S
H286   C833    1.083   1_554 S
N289   Zn299   2.017   .     S
N290   Zn300   2.017   .     S
O291   Zn299   1.993   .     S
O292   Zn300   1.986   .     S
O293   Zn299   1.975   .     S
O294   Zn300   1.922   .     S
O295   Zn299   1.986   .     S
O296   Zn300   1.993   .     S
O297   Zn299   1.922   .     S
O298   Zn300   1.975   .     S
O301   H302    0.989   .     S
N303   H304    1.046   .     S
N303   H305    1.046   .     S
O306   H307    0.977   .     S
N308   H309    1.046   .     S
N308   H310    1.045   .     S
C311   O354    1.282   .     A
C311   C327    1.409   .     S
C311   O353    1.283   .     A
C312   C313    1.409   .     A
C312   C872    1.418   .     S
C312   C896    1.419   .     S
C313   C320    1.420   .     A
C313   C317    1.418   .     A
C314   C318    1.389   .     A
C314   C870    1.418   1_554 S
C314   C873    1.420   1_554 S
C315   C316    1.386   .     A
C315   C872    1.420   .     S
C315   C892    1.404   .     S
C316   C317    1.384   .     A
C316   H343    1.084   .     S
C317   H349    1.075   .     S
C318   H345    1.079   .     S
C318   C335    1.391   .     A
C319   C334    1.392   .     A
C319   H339    1.083   .     S
C319   C335    1.398   .     A
C320   C336    1.402   .     A
C320   C322    1.464   .     S
C321   H350    1.085   .     S
C321   C327    1.393   .     A
C321   C509    1.373   .     S
C322   O356    1.290   .     A
C322   O355    1.302   .     A
C323   C324    1.407   .     A
C323   O363    1.377   .     S
C324   C332    1.413   .     S
C324   C325    1.395   .     A
C325   H340    1.085   .     S
C326   N365    1.434   .     S
C326   C327    1.399   .     A
C326   C511    1.379   .     S
C328   N352    1.367   .     A
C328   H341    1.082   .     S
C328   C205    1.419   1_655 S
C329   H342    1.082   .     S
C329   N351    1.367   .     A
C330   N351    1.384   .     A
C330   O368    1.376   .     S
C331   N370    1.431   .     S
C331   N352    1.361   .     A
C331   C206    1.419   1_655 S
C332   O358    1.287   .     A
C332   O357    1.281   .     A
C333   O359    1.293   .     A
C333   C335    1.449   .     S
C333   O360    1.294   .     A
C334   C873    1.404   1_554 S
C334   H902    1.084   1_554 S
C336   C337    1.388   .     A
C336   H346    1.083   .     S
C337   C896    1.392   .     S
C337   H906    1.083   .     S
C338   H347    1.079   .     S
C338   C870    1.419   1_554 S
C338   C895    1.392   1_554 S
H344   C892    1.084   .     S
H348   C895    1.083   1_554 S
N351   Zn361   2.017   .     S
N352   Zn362   2.017   .     S
O353   Zn361   1.993   .     S
O354   Zn362   1.986   .     S
O355   Zn361   1.975   .     S
O356   Zn362   1.922   .     S
O357   Zn361   1.986   .     S
O358   Zn362   1.993   .     S
O359   Zn361   1.922   .     S
O360   Zn362   1.975   .     S
O363   H364    0.989   .     S
N365   H366    1.046   .     S
N365   H367    1.046   .     S
O368   H369    0.977   .     S
N370   H371    1.046   .     S
N370   H372    1.045   .     S
C373   O416    1.282   .     A
C373   C389    1.409   .     S
C373   O415    1.283   .     A
C374   C375    1.409   .     A
C374   C934    1.418   .     S
C374   C958    1.419   .     S
C375   C382    1.420   .     A
C375   C379    1.418   .     A
C376   C380    1.389   .     A
C376   C932    1.418   1_554 S
C376   C935    1.420   1_554 S
C377   C378    1.386   .     A
C377   C934    1.420   .     S
C377   C954    1.404   .     S
C378   C379    1.384   .     A
C378   H405    1.084   .     S
C379   H411    1.075   .     S
C380   H407    1.079   .     S
C380   C397    1.391   .     A
C381   C396    1.392   .     A
C381   H401    1.083   .     S
C381   C397    1.398   .     A
C382   C398    1.402   .     A
C382   C384    1.464   .     S
C383   H412    1.085   .     S
C383   C389    1.393   .     A
C383   C13     1.373   1_565 S
C384   O418    1.290   .     A
C384   O417    1.302   .     A
C385   C386    1.407   .     A
C385   O425    1.377   .     S
C386   C394    1.413   .     S
C386   C387    1.395   .     A
C387   H402    1.085   .     S
C388   N427    1.434   .     S
C388   C389    1.399   .     A
C388   C15     1.379   1_565 S
C390   N414    1.367   .     A
C390   H403    1.082   .     S
C390   C453    1.419   .     S
C391   H404    1.082   .     S
C391   N413    1.367   .     A
C391   C514    1.419   1_455 S
C392   N413    1.384   .     A
C392   O430    1.376   .     S
C392   C517    1.419   1_455 S
C393   N432    1.431   .     S
C393   N414    1.361   .     A
C393   C454    1.419   .     S
C394   O420    1.287   .     A
C394   O419    1.281   .     A
C395   O421    1.293   .     A
C395   C397    1.449   .     S
C395   O422    1.294   .     A
C396   C935    1.404   1_554 S
C396   H964    1.084   1_554 S
C398   C399    1.388   .     A
C398   H408    1.083   .     S
C399   C958    1.392   .     S
C399   H968    1.083   .     S
C400   H409    1.079   .     S
C400   C932    1.419   1_554 S
C400   C957    1.392   1_554 S
H406   C954    1.084   .     S
H410   C957    1.083   1_554 S
N413   Zn423   2.017   .     S
N414   Zn424   2.017   .     S
O415   Zn423   1.993   .     S
O416   Zn424   1.986   .     S
O417   Zn423   1.975   .     S
O418   Zn424   1.922   .     S
O419   Zn423   1.986   .     S
O420   Zn424   1.993   .     S
O421   Zn423   1.922   .     S
O422   Zn424   1.975   .     S
O425   H426    0.989   .     S
N427   H428    1.046   .     S
N427   H429    1.046   .     S
O430   H431    0.977   .     S
N432   H433    1.046   .     S
N432   H434    1.045   .     S
C435   O478    1.282   .     A
C435   C451    1.409   .     S
C435   O477    1.283   .     A
C436   C437    1.409   .     A
C436   C996    1.418   .     S
C436   C1020   1.419   .     S
C437   C444    1.420   .     A
C437   C441    1.418   .     A
C438   C442    1.389   .     A
C438   C994    1.418   1_554 S
C438   C997    1.420   1_554 S
C439   C440    1.386   .     A
C439   C996    1.420   .     S
C439   C1016   1.404   .     S
C440   C441    1.384   .     A
C440   H467    1.084   .     S
C441   H473    1.075   .     S
C442   H469    1.079   .     S
C442   C459    1.391   .     A
C443   C458    1.392   .     A
C443   H463    1.083   .     S
C443   C459    1.398   .     A
C444   C460    1.402   .     A
C444   C446    1.464   .     S
C445   H474    1.085   .     S
C445   C451    1.393   .     A
C445   C75     1.373   1_565 S
C446   O480    1.290   .     A
C446   O479    1.302   .     A
C447   C448    1.407   .     A
C447   O487    1.377   .     S
C448   C456    1.413   .     S
C448   C449    1.395   .     A
C449   H464    1.085   .     S
C450   N489    1.434   .     S
C450   C451    1.399   .     A
C450   C77     1.379   1_565 S
C452   N476    1.367   .     A
C452   H465    1.082   .     S
C452   C515    1.419   .     S
C453   H466    1.082   .     S
C453   N475    1.367   .     A
C454   N475    1.384   .     A
C454   O492    1.376   .     S
C455   N494    1.431   .     S
C455   N476    1.361   .     A
C455   C516    1.419   .     S
C456   O482    1.287   .     A
C456   O481    1.281   .     A
C457   O483    1.293   .     A
C457   C459    1.449   .     S
C457   O484    1.294   .     A
C458   C997    1.404   1_554 S
C458   H1026   1.084   1_554 S
C460   C461    1.388   .     A
C460   H470    1.083   .     S
C461   C1020   1.392   .     S
C461   H1030   1.083   .     S
C462   H471    1.079   .     S
C462   C994    1.419   1_554 S
C462   C1019   1.392   1_554 S
H468   C1016   1.084   .     S
H472   C1019   1.083   1_554 S
N475   Zn485   2.017   .     S
N476   Zn486   2.017   .     S
O477   Zn485   1.993   .     S
O478   Zn486   1.986   .     S
O479   Zn485   1.975   .     S
O480   Zn486   1.922   .     S
O481   Zn485   1.986   .     S
O482   Zn486   1.993   .     S
O483   Zn485   1.922   .     S
O484   Zn486   1.975   .     S
O487   H488    0.989   .     S
N489   H490    1.046   .     S
N489   H491    1.046   .     S
O492   H493    0.977   .     S
N494   H495    1.046   .     S
N494   H496    1.045   .     S
C497   O540    1.282   .     A
C497   C513    1.409   .     S
C497   O539    1.283   .     A
C498   C499    1.409   .     A
C498   C1058   1.418   .     S
C498   C1082   1.419   .     S
C499   C506    1.420   .     A
C499   C503    1.418   .     A
C500   C504    1.389   .     A
C500   C1056   1.418   1_554 S
C500   C1059   1.420   1_554 S
C501   C502    1.386   .     A
C501   C1058   1.420   .     S
C501   C1078   1.404   .     S
C502   C503    1.384   .     A
C502   H529    1.084   .     S
C503   H535    1.075   .     S
C504   H531    1.079   .     S
C504   C521    1.391   .     A
C505   C520    1.392   .     A
C505   H525    1.083   .     S
C505   C521    1.398   .     A
C506   C522    1.402   .     A
C506   C508    1.464   .     S
C507   H536    1.085   .     S
C507   C513    1.393   .     A
C507   C137    1.373   1_565 S
C508   O542    1.290   .     A
C508   O541    1.302   .     A
C509   C510    1.407   .     A
C509   O549    1.377   .     S
C510   C518    1.413   .     S
C510   C511    1.395   .     A
C511   H526    1.085   .     S
C512   N551    1.434   .     S
C512   C513    1.399   .     A
C512   C139    1.379   1_565 S
C514   N538    1.367   .     A
C514   H527    1.082   .     S
C514   C391    1.419   1_655 S
C515   H528    1.082   .     S
C515   N537    1.367   .     A
C516   N537    1.384   .     A
C516   O554    1.376   .     S
C517   N556    1.431   .     S
C517   N538    1.361   .     A
C517   C392    1.419   1_655 S
C518   O544    1.287   .     A
C518   O543    1.281   .     A
C519   O545    1.293   .     A
C519   C521    1.449   .     S
C519   O546    1.294   .     A
C520   C1059   1.404   1_554 S
C520   H1088   1.084   1_554 S
C522   C523    1.388   .     A
C522   H532    1.083   .     S
C523   C1082   1.392   .     S
C523   H1092   1.083   .     S
C524   H533    1.079   .     S
C524   C1056   1.419   1_554 S
C524   C1081   1.392   1_554 S
H530   C1078   1.084   .     S
H534   C1081   1.083   1_554 S
N537   Zn547   2.017   .     S
N538   Zn548   2.017   .     S
O539   Zn547   1.993   .     S
O540   Zn548   1.986   .     S
O541   Zn547   1.975   .     S
O542   Zn548   1.922   .     S
O543   Zn547   1.986   .     S
O544   Zn548   1.993   .     S
O545   Zn547   1.922   .     S
O546   Zn548   1.975   .     S
O549   H550    0.989   .     S
N551   H552    1.046   .     S
N551   H553    1.046   .     S
O554   H555    0.977   .     S
N556   H557    1.046   .     S
N556   H558    1.045   .     S
C559   O602    1.282   .     A
C559   C575    1.409   .     S
C559   O601    1.283   .     A
C560   C561    1.409   .     A
C560   C4      1.418   1_556 S
C560   C28     1.419   1_556 S
C561   C568    1.420   .     A
C561   C565    1.418   .     A
C562   C566    1.389   .     A
C563   C564    1.386   .     A
C563   C4      1.420   1_556 S
C563   C24     1.404   1_556 S
C564   C565    1.384   .     A
C564   H591    1.084   .     S
C565   H597    1.075   .     S
C566   H593    1.079   .     S
C566   C583    1.391   .     A
C567   C582    1.392   .     A
C567   H587    1.083   .     S
C567   C583    1.398   .     A
C568   C584    1.402   .     A
C568   C570    1.464   .     S
C569   H598    1.085   .     S
C569   C575    1.393   .     A
C569   C757    1.373   .     S
C570   O604    1.290   .     A
C570   O603    1.302   .     A
C571   C572    1.407   .     A
C571   O611    1.377   .     S
C571   C941    1.373   1_545 S
C572   C580    1.413   .     S
C572   C573    1.395   .     A
C573   H588    1.085   .     S
C573   C946    1.379   1_545 S
C574   N613    1.434   .     S
C574   C575    1.399   .     A
C574   C759    1.379   .     S
C576   N600    1.367   .     A
C576   H589    1.082   .     S
C576   C639    1.419   .     S
C577   H590    1.082   .     S
C577   N599    1.367   .     A
C577   C700    1.419   1_455 S
C578   N599    1.384   .     A
C578   O616    1.376   .     S
C578   C703    1.419   1_455 S
C579   N618    1.431   .     S
C579   N600    1.361   .     A
C579   C640    1.419   .     S
C580   O606    1.287   .     A
C580   O605    1.281   .     A
C581   O607    1.293   .     A
C581   C583    1.449   .     S
C581   O608    1.294   .     A
C584   C585    1.388   .     A
C584   H594    1.083   .     S
C585   C28     1.392   1_556 S
C585   H38     1.083   1_556 S
C586   H595    1.079   .     S
H592   C24     1.084   1_556 S
N599   Zn609   2.017   .     S
N600   Zn610   2.017   .     S
O601   Zn609   1.993   .     S
O602   Zn610   1.986   .     S
O603   Zn609   1.975   .     S
O604   Zn610   1.922   .     S
O605   Zn609   1.986   .     S
O606   Zn610   1.993   .     S
O607   Zn609   1.922   .     S
O608   Zn610   1.975   .     S
O611   H612    0.989   .     S
N613   H614    1.046   .     S
N613   H615    1.046   .     S
O616   H617    0.977   .     S
N618   H619    1.046   .     S
N618   H620    1.045   .     S
C621   O664    1.282   .     A
C621   C637    1.409   .     S
C621   O663    1.283   .     A
C622   C623    1.409   .     A
C622   C66     1.418   1_556 S
C622   C90     1.419   1_556 S
C623   C630    1.420   .     A
C623   C627    1.418   .     A
C624   C628    1.389   .     A
C625   C626    1.386   .     A
C625   C66     1.420   1_556 S
C625   C86     1.404   1_556 S
C626   C627    1.384   .     A
C626   H653    1.084   .     S
C627   H659    1.075   .     S
C628   H655    1.079   .     S
C628   C645    1.391   .     A
C629   C644    1.392   .     A
C629   H649    1.083   .     S
C629   C645    1.398   .     A
C630   C646    1.402   .     A
C630   C632    1.464   .     S
C631   H660    1.085   .     S
C631   C637    1.393   .     A
C631   C819    1.373   .     S
C632   O666    1.290   .     A
C632   O665    1.302   .     A
C633   C634    1.407   .     A
C633   O673    1.377   .     S
C633   C1003   1.373   1_545 S
C634   C642    1.413   .     S
C634   C635    1.395   .     A
C635   H650    1.085   .     S
C635   C1008   1.379   1_545 S
C636   N675    1.434   .     S
C636   C637    1.399   .     A
C636   C821    1.379   .     S
C638   N662    1.367   .     A
C638   H651    1.082   .     S
C638   C701    1.419   .     S
C639   H652    1.082   .     S
C639   N661    1.367   .     A
C640   N661    1.384   .     A
C640   O678    1.376   .     S
C641   N680    1.431   .     S
C641   N662    1.361   .     A
C641   C702    1.419   .     S
C642   O668    1.287   .     A
C642   O667    1.281   .     A
C643   O669    1.293   .     A
C643   C645    1.449   .     S
C643   O670    1.294   .     A
C646   C647    1.388   .     A
C646   H656    1.083   .     S
C647   C90     1.392   1_556 S
C647   H100    1.083   1_556 S
C648   H657    1.079   .     S
H654   C86     1.084   1_556 S
N661   Zn671   2.017   .     S
N662   Zn672   2.017   .     S
O663   Zn671   1.993   .     S
O664   Zn672   1.986   .     S
O665   Zn671   1.975   .     S
O666   Zn672   1.922   .     S
O667   Zn671   1.986   .     S
O668   Zn672   1.993   .     S
O669   Zn671   1.922   .     S
O670   Zn672   1.975   .     S
O673   H674    0.989   .     S
N675   H676    1.046   .     S
N675   H677    1.046   .     S
O678   H679    0.977   .     S
N680   H681    1.046   .     S
N680   H682    1.045   .     S
C683   O726    1.282   .     A
C683   C699    1.409   .     S
C683   O725    1.283   .     A
C684   C685    1.409   .     A
C684   C128    1.418   1_556 S
C684   C152    1.419   1_556 S
C685   C692    1.420   .     A
C685   C689    1.418   .     A
C686   C690    1.389   .     A
C687   C688    1.386   .     A
C687   C128    1.420   1_556 S
C687   C148    1.404   1_556 S
C688   C689    1.384   .     A
C688   H715    1.084   .     S
C689   H721    1.075   .     S
C690   H717    1.079   .     S
C690   C707    1.391   .     A
C691   C706    1.392   .     A
C691   H711    1.083   .     S
C691   C707    1.398   .     A
C692   C708    1.402   .     A
C692   C694    1.464   .     S
C693   H722    1.085   .     S
C693   C699    1.393   .     A
C693   C881    1.373   .     S
C694   O728    1.290   .     A
C694   O727    1.302   .     A
C695   C696    1.407   .     A
C695   O735    1.377   .     S
C695   C1065   1.373   1_545 S
C696   C704    1.413   .     S
C696   C697    1.395   .     A
C697   H712    1.085   .     S
C697   C1070   1.379   1_545 S
C698   N737    1.434   .     S
C698   C699    1.399   .     A
C698   C883    1.379   .     S
C700   N724    1.367   .     A
C700   H713    1.082   .     S
C700   C577    1.419   1_655 S
C701   H714    1.082   .     S
C701   N723    1.367   .     A
C702   N723    1.384   .     A
C702   O740    1.376   .     S
C703   N742    1.431   .     S
C703   N724    1.361   .     A
C703   C578    1.419   1_655 S
C704   O730    1.287   .     A
C704   O729    1.281   .     A
C705   O731    1.293   .     A
C705   C707    1.449   .     S
C705   O732    1.294   .     A
C708   C709    1.388   .     A
C708   H718    1.083   .     S
C709   C152    1.392   1_556 S
C709   H162    1.083   1_556 S
C710   H719    1.079   .     S
H716   C148    1.084   1_556 S
N723   Zn733   2.017   .     S
N724   Zn734   2.017   .     S
O725   Zn733   1.993   .     S
O726   Zn734   1.986   .     S
O727   Zn733   1.975   .     S
O728   Zn734   1.922   .     S
O729   Zn733   1.986   .     S
O730   Zn734   1.993   .     S
O731   Zn733   1.922   .     S
O732   Zn734   1.975   .     S
O735   H736    0.989   .     S
N737   H738    1.046   .     S
N737   H739    1.046   .     S
O740   H741    0.977   .     S
N742   H743    1.046   .     S
N742   H744    1.045   .     S
C745   O788    1.282   .     A
C745   C761    1.409   .     S
C745   O787    1.283   .     A
C746   C747    1.409   .     A
C746   C190    1.418   1_556 S
C746   C214    1.419   1_556 S
C747   C754    1.420   .     A
C747   C751    1.418   .     A
C748   C752    1.389   .     A
C749   C750    1.386   .     A
C749   C190    1.420   1_556 S
C749   C210    1.404   1_556 S
C750   C751    1.384   .     A
C750   H777    1.084   .     S
C751   H783    1.075   .     S
C752   H779    1.079   .     S
C752   C769    1.391   .     A
C753   C768    1.392   .     A
C753   H773    1.083   .     S
C753   C769    1.398   .     A
C754   C770    1.402   .     A
C754   C756    1.464   .     S
C755   H784    1.085   .     S
C755   C761    1.393   .     A
C755   C943    1.373   .     S
C756   O790    1.290   .     A
C756   O789    1.302   .     A
C757   C758    1.407   .     A
C757   O797    1.377   .     S
C758   C766    1.413   .     S
C758   C759    1.395   .     A
C759   H774    1.085   .     S
C760   N799    1.434   .     S
C760   C761    1.399   .     A
C760   C945    1.379   .     S
C762   N786    1.367   .     A
C762   H775    1.082   .     S
C762   C825    1.419   .     S
C763   H776    1.082   .     S
C763   N785    1.367   .     A
C763   C886    1.419   1_455 S
C764   N785    1.384   .     A
C764   O802    1.376   .     S
C764   C889    1.419   1_455 S
C765   N804    1.431   .     S
C765   N786    1.361   .     A
C765   C826    1.419   .     S
C766   O792    1.287   .     A
C766   O791    1.281   .     A
C767   O793    1.293   .     A
C767   C769    1.449   .     S
C767   O794    1.294   .     A
C770   C771    1.388   .     A
C770   H780    1.083   .     S
C771   C214    1.392   1_556 S
C771   H224    1.083   1_556 S
C772   H781    1.079   .     S
H778   C210    1.084   1_556 S
N785   Zn795   2.017   .     S
N786   Zn796   2.017   .     S
O787   Zn795   1.993   .     S
O788   Zn796   1.986   .     S
O789   Zn795   1.975   .     S
O790   Zn796   1.922   .     S
O791   Zn795   1.986   .     S
O792   Zn796   1.993   .     S
O793   Zn795   1.922   .     S
O794   Zn796   1.975   .     S
O797   H798    0.989   .     S
N799   H800    1.046   .     S
N799   H801    1.046   .     S
O802   H803    0.977   .     S
N804   H805    1.046   .     S
N804   H806    1.045   .     S
C807   O850    1.282   .     A
C807   C823    1.409   .     S
C807   O849    1.283   .     A
C808   C809    1.409   .     A
C808   C252    1.418   1_556 S
C808   C276    1.419   1_556 S
C809   C816    1.420   .     A
C809   C813    1.418   .     A
C810   C814    1.389   .     A
C811   C812    1.386   .     A
C811   C252    1.420   1_556 S
C811   C272    1.404   1_556 S
C812   C813    1.384   .     A
C812   H839    1.084   .     S
C813   H845    1.075   .     S
C814   H841    1.079   .     S
C814   C831    1.391   .     A
C815   C830    1.392   .     A
C815   H835    1.083   .     S
C815   C831    1.398   .     A
C816   C832    1.402   .     A
C816   C818    1.464   .     S
C817   H846    1.085   .     S
C817   C823    1.393   .     A
C817   C1005   1.373   .     S
C818   O852    1.290   .     A
C818   O851    1.302   .     A
C819   C820    1.407   .     A
C819   O859    1.377   .     S
C820   C828    1.413   .     S
C820   C821    1.395   .     A
C821   H836    1.085   .     S
C822   N861    1.434   .     S
C822   C823    1.399   .     A
C822   C1007   1.379   .     S
C824   N848    1.367   .     A
C824   H837    1.082   .     S
C824   C887    1.419   .     S
C825   H838    1.082   .     S
C825   N847    1.367   .     A
C826   N847    1.384   .     A
C826   O864    1.376   .     S
C827   N866    1.431   .     S
C827   N848    1.361   .     A
C827   C888    1.419   .     S
C828   O854    1.287   .     A
C828   O853    1.281   .     A
C829   O855    1.293   .     A
C829   C831    1.449   .     S
C829   O856    1.294   .     A
C832   C833    1.388   .     A
C832   H842    1.083   .     S
C833   C276    1.392   1_556 S
C833   H286    1.083   1_556 S
C834   H843    1.079   .     S
H840   C272    1.084   1_556 S
N847   Zn857   2.017   .     S
N848   Zn858   2.017   .     S
O849   Zn857   1.993   .     S
O850   Zn858   1.986   .     S
O851   Zn857   1.975   .     S
O852   Zn858   1.922   .     S
O853   Zn857   1.986   .     S
O854   Zn858   1.993   .     S
O855   Zn857   1.922   .     S
O856   Zn858   1.975   .     S
O859   H860    0.989   .     S
N861   H862    1.046   .     S
N861   H863    1.046   .     S
O864   H865    0.977   .     S
N866   H867    1.046   .     S
N866   H868    1.045   .     S
C869   O912    1.282   .     A
C869   C885    1.409   .     S
C869   O911    1.283   .     A
C870   C871    1.409   .     A
C870   C314    1.418   1_556 S
C870   C338    1.419   1_556 S
C871   C878    1.420   .     A
C871   C875    1.418   .     A
C872   C876    1.389   .     A
C873   C874    1.386   .     A
C873   C314    1.420   1_556 S
C873   C334    1.404   1_556 S
C874   C875    1.384   .     A
C874   H901    1.084   .     S
C875   H907    1.075   .     S
C876   H903    1.079   .     S
C876   C893    1.391   .     A
C877   C892    1.392   .     A
C877   H897    1.083   .     S
C877   C893    1.398   .     A
C878   C894    1.402   .     A
C878   C880    1.464   .     S
C879   H908    1.085   .     S
C879   C885    1.393   .     A
C879   C1067   1.373   .     S
C880   O914    1.290   .     A
C880   O913    1.302   .     A
C881   C882    1.407   .     A
C881   O921    1.377   .     S
C882   C890    1.413   .     S
C882   C883    1.395   .     A
C883   H898    1.085   .     S
C884   N923    1.434   .     S
C884   C885    1.399   .     A
C884   C1069   1.379   .     S
C886   N910    1.367   .     A
C886   H899    1.082   .     S
C886   C763    1.419   1_655 S
C887   H900    1.082   .     S
C887   N909    1.367   .     A
C888   N909    1.384   .     A
C888   O926    1.376   .     S
C889   N928    1.431   .     S
C889   N910    1.361   .     A
C889   C764    1.419   1_655 S
C890   O916    1.287   .     A
C890   O915    1.281   .     A
C891   O917    1.293   .     A
C891   C893    1.449   .     S
C891   O918    1.294   .     A
C894   C895    1.388   .     A
C894   H904    1.083   .     S
C895   C338    1.392   1_556 S
C895   H348    1.083   1_556 S
C896   H905    1.079   .     S
H902   C334    1.084   1_556 S
N909   Zn919   2.017   .     S
N910   Zn920   2.017   .     S
O911   Zn919   1.993   .     S
O912   Zn920   1.986   .     S
O913   Zn919   1.975   .     S
O914   Zn920   1.922   .     S
O915   Zn919   1.986   .     S
O916   Zn920   1.993   .     S
O917   Zn919   1.922   .     S
O918   Zn920   1.975   .     S
O921   H922    0.989   .     S
N923   H924    1.046   .     S
N923   H925    1.046   .     S
O926   H927    0.977   .     S
N928   H929    1.046   .     S
N928   H930    1.045   .     S
C931   O974    1.282   .     A
C931   C947    1.409   .     S
C931   O973    1.283   .     A
C932   C933    1.409   .     A
C932   C376    1.418   1_556 S
C932   C400    1.419   1_556 S
C933   C940    1.420   .     A
C933   C937    1.418   .     A
C934   C938    1.389   .     A
C935   C936    1.386   .     A
C935   C376    1.420   1_556 S
C935   C396    1.404   1_556 S
C936   C937    1.384   .     A
C936   H963    1.084   .     S
C937   H969    1.075   .     S
C938   H965    1.079   .     S
C938   C955    1.391   .     A
C939   C954    1.392   .     A
C939   H959    1.083   .     S
C939   C955    1.398   .     A
C940   C956    1.402   .     A
C940   C942    1.464   .     S
C941   H970    1.085   .     S
C941   C947    1.393   .     A
C941   C571    1.373   1_565 S
C942   O976    1.290   .     A
C942   O975    1.302   .     A
C943   C944    1.407   .     A
C943   O983    1.377   .     S
C944   C952    1.413   .     S
C944   C945    1.395   .     A
C945   H960    1.085   .     S
C946   N985    1.434   .     S
C946   C947    1.399   .     A
C946   C573    1.379   1_565 S
C948   N972    1.367   .     A
C948   H961    1.082   .     S
C948   C1011   1.419   .     S
C949   H962    1.082   .     S
C949   N971    1.367   .     A
C949   C1072   1.419   1_455 S
C950   N971    1.384   .     A
C950   O988    1.376   .     S
C950   C1075   1.419   1_455 S
C951   N990    1.431   .     S
C951   N972    1.361   .     A
C951   C1012   1.419   .     S
C952   O978    1.287   .     A
C952   O977    1.281   .     A
C953   O979    1.293   .     A
C953   C955    1.449   .     S
C953   O980    1.294   .     A
C956   C957    1.388   .     A
C956   H966    1.083   .     S
C957   C400    1.392   1_556 S
C957   H410    1.083   1_556 S
C958   H967    1.079   .     S
H964   C396    1.084   1_556 S
N971   Zn981   2.017   .     S
N972   Zn982   2.017   .     S
O973   Zn981   1.993   .     S
O974   Zn982   1.986   .     S
O975   Zn981   1.975   .     S
O976   Zn982   1.922   .     S
O977   Zn981   1.986   .     S
O978   Zn982   1.993   .     S
O979   Zn981   1.922   .     S
O980   Zn982   1.975   .     S
O983   H984    0.989   .     S
N985   H986    1.046   .     S
N985   H987    1.046   .     S
O988   H989    0.977   .     S
N990   H991    1.046   .     S
N990   H992    1.045   .     S
C993   O1036   1.282   .     A
C993   C1009   1.409   .     S
C993   O1035   1.283   .     A
C994   C995    1.409   .     A
C994   C438    1.418   1_556 S
C994   C462    1.419   1_556 S
C995   C1002   1.420   .     A
C995   C999    1.418   .     A
C996   C1000   1.389   .     A
C997   C998    1.386   .     A
C997   C438    1.420   1_556 S
C997   C458    1.404   1_556 S
C998   C999    1.384   .     A
C998   H1025   1.084   .     S
C999   H1031   1.075   .     S
C1000  H1027   1.079   .     S
C1000  C1017   1.391   .     A
C1001  C1016   1.392   .     A
C1001  H1021   1.083   .     S
C1001  C1017   1.398   .     A
C1002  C1018   1.402   .     A
C1002  C1004   1.464   .     S
C1003  H1032   1.085   .     S
C1003  C1009   1.393   .     A
C1003  C633    1.373   1_565 S
C1004  O1038   1.290   .     A
C1004  O1037   1.302   .     A
C1005  C1006   1.407   .     A
C1005  O1045   1.377   .     S
C1006  C1014   1.413   .     S
C1006  C1007   1.395   .     A
C1007  H1022   1.085   .     S
C1008  N1047   1.434   .     S
C1008  C1009   1.399   .     A
C1008  C635    1.379   1_565 S
C1010  N1034   1.367   .     A
C1010  H1023   1.082   .     S
C1010  C1073   1.419   .     S
C1011  H1024   1.082   .     S
C1011  N1033   1.367   .     A
C1012  N1033   1.384   .     A
C1012  O1050   1.376   .     S
C1013  N1052   1.431   .     S
C1013  N1034   1.361   .     A
C1013  C1074   1.419   .     S
C1014  O1040   1.287   .     A
C1014  O1039   1.281   .     A
C1015  O1041   1.293   .     A
C1015  C1017   1.449   .     S
C1015  O1042   1.294   .     A
C1018  C1019   1.388   .     A
C1018  H1028   1.083   .     S
C1019  C462    1.392   1_556 S
C1019  H472    1.083   1_556 S
C1020  H1029   1.079   .     S
H1026  C458    1.084   1_556 S
N1033  Zn1043  2.017   .     S
N1034  Zn1044  2.017   .     S
O1035  Zn1043  1.993   .     S
O1036  Zn1044  1.986   .     S
O1037  Zn1043  1.975   .     S
O1038  Zn1044  1.922   .     S
O1039  Zn1043  1.986   .     S
O1040  Zn1044  1.993   .     S
O1041  Zn1043  1.922   .     S
O1042  Zn1044  1.975   .     S
O1045  H1046   0.989   .     S
N1047  H1048   1.046   .     S
N1047  H1049   1.046   .     S
O1050  H1051   0.977   .     S
N1052  H1053   1.046   .     S
N1052  H1054   1.045   .     S
C1055  O1098   1.282   .     A
C1055  C1071   1.409   .     S
C1055  O1097   1.283   .     A
C1056  C1057   1.409   .     A
C1056  C500    1.418   1_556 S
C1056  C524    1.419   1_556 S
C1057  C1064   1.420   .     A
C1057  C1061   1.418   .     A
C1058  C1062   1.389   .     A
C1059  C1060   1.386   .     A
C1059  C500    1.420   1_556 S
C1059  C520    1.404   1_556 S
C1060  C1061   1.384   .     A
C1060  H1087   1.084   .     S
C1061  H1093   1.075   .     S
C1062  H1089   1.079   .     S
C1062  C1079   1.391   .     A
C1063  C1078   1.392   .     A
C1063  H1083   1.083   .     S
C1063  C1079   1.398   .     A
C1064  C1080   1.402   .     A
C1064  C1066   1.464   .     S
C1065  H1094   1.085   .     S
C1065  C1071   1.393   .     A
C1065  C695    1.373   1_565 S
C1066  O1100   1.290   .     A
C1066  O1099   1.302   .     A
C1067  C1068   1.407   .     A
C1067  O1107   1.377   .     S
C1068  C1076   1.413   .     S
C1068  C1069   1.395   .     A
C1069  H1084   1.085   .     S
C1070  N1109   1.434   .     S
C1070  C1071   1.399   .     A
C1070  C697    1.379   1_565 S
C1072  N1096   1.367   .     A
C1072  H1085   1.082   .     S
C1072  C949    1.419   1_655 S
C1073  H1086   1.082   .     S
C1073  N1095   1.367   .     A
C1074  N1095   1.384   .     A
C1074  O1112   1.376   .     S
C1075  N1114   1.431   .     S
C1075  N1096   1.361   .     A
C1075  C950    1.419   1_655 S
C1076  O1102   1.287   .     A
C1076  O1101   1.281   .     A
C1077  O1103   1.293   .     A
C1077  C1079   1.449   .     S
C1077  O1104   1.294   .     A
C1080  C1081   1.388   .     A
C1080  H1090   1.083   .     S
C1081  C524    1.392   1_556 S
C1081  H534    1.083   1_556 S
C1082  H1091   1.079   .     S
H1088  C520    1.084   1_556 S
N1095  Zn1105  2.017   .     S
N1096  Zn1106  2.017   .     S
O1097  Zn1105  1.993   .     S
O1098  Zn1106  1.986   .     S
O1099  Zn1105  1.975   .     S
O1100  Zn1106  1.922   .     S
O1101  Zn1105  1.986   .     S
O1102  Zn1106  1.993   .     S
O1103  Zn1105  1.922   .     S
O1104  Zn1106  1.975   .     S
O1107  H1108   0.989   .     S
N1109  H1110   1.046   .     S
N1109  H1111   1.046   .     S
O1112  H1113   0.977   .     S
N1114  H1115   1.046   .     S
N1114  H1116   1.045   .     S
