data_str_m3_o5_o17_pcu_sym.3
_audit_creation_date              2020-01-03
_audit_creation_method            'Materials Studio'
_symmetry_space_group_name_H-M    'P1'
_symmetry_Int_Tables_number       1
_symmetry_cell_setting            triclinic
loop_
_symmetry_equiv_pos_as_xyz
  x,y,z
_cell_length_a                    29.7746
_cell_length_b                    27.7669
_cell_length_c                    24.3840
_cell_angle_alpha                 90.1795
_cell_angle_beta                  91.8313
_cell_angle_gamma                 88.2948
loop_
_atom_site_label
_atom_site_type_symbol
_atom_site_fract_x
_atom_site_fract_y
_atom_site_fract_z
_atom_site_U_iso_or_equiv
_atom_site_adp_type
_atom_site_occupancy
C1     C     0.25005   0.07250   0.16661   0.00000  Uiso   1.00
C2     C     0.11575   0.16790   0.16346   0.00000  Uiso   1.00
C3     C     0.45487   0.12120   0.16201   0.00000  Uiso   1.00
C4     C     0.04443   0.21012   0.15998   0.00000  Uiso   1.00
C5     C     0.45192   0.20859   0.17373   0.00000  Uiso   1.00
C6     C     0.04866   0.12278   0.16670   0.00000  Uiso   1.00
C7     C     0.47664   0.16519   0.16724   0.00000  Uiso   1.00
C8     C     0.02332   0.16603   0.16506   0.00000  Uiso   1.00
C9     C     0.48067   0.07863   0.15417   0.00000  Uiso   1.00
C10    C     0.01816   0.25251   0.15691   0.00000  Uiso   1.00
C11    C     0.47403   0.25211   0.17470   0.00000  Uiso   1.00
C12    C     0.24995   0.26083   0.16672   0.00000  Uiso   1.00
C13    C     0.02689   0.07907   0.16740   0.00000  Uiso   1.00
C14    C     0.25002   0.02151   0.16660   0.00000  Uiso   1.00
C15    C     0.24999   0.31182   0.16674   0.00000  Uiso   1.00
C16    C     0.43970   0.03897   0.08648   0.00000  Uiso   1.00
C17    C     0.40096   0.00418   0.08421   0.00000  Uiso   1.00
C18    C     0.03574   0.28771   0.07698   0.00000  Uiso   1.00
C19    C     0.05951   0.32995   0.05284   0.00000  Uiso   1.00
C20    C     0.44906   0.29706   0.24593   0.00000  Uiso   1.00
C21    C     0.42760   0.01210   0.26095   0.00000  Uiso   1.00
C22    C     0.06363   0.03263   0.23244   0.00000  Uiso   1.00
C23    C     0.16331   0.16835   0.16577   0.00000  Uiso   1.00
C24    C     0.10008   0.32659   0.23955   0.00000  Uiso   1.00
C25    C     0.33669   0.16498   0.16757   0.00000  Uiso   1.00
C26    C     0.40547   0.20794   0.17526   0.00000  Uiso   1.00
C27    C     0.09526   0.12401   0.16637   0.00000  Uiso   1.00
C28    C     0.40818   0.12110   0.16471   0.00000  Uiso   1.00
C29    C     0.09106   0.21089   0.15816   0.00000  Uiso   1.00
C30    C     0.38427   0.16450   0.16986   0.00000  Uiso   1.00
H31    H     0.38545   0.24111   0.17816   0.00000  Uiso   1.00
H32    H     0.00100   0.28651   0.05892   0.00000  Uiso   1.00
H33    H     0.05454   0.25430   0.06475   0.00000  Uiso   1.00
H34    H     0.09511   0.32988   0.06791   0.00000  Uiso   1.00
H35    H     0.05836   0.32649   0.00776   0.00000  Uiso   1.00
H36    H     0.04278   0.03128   0.06409   0.00000  Uiso   1.00
H37    H     0.48301   0.29389   0.26640   0.00000  Uiso   1.00
H38    H     0.42777   0.26829   0.26187   0.00000  Uiso   1.00
H39    H     0.45005   0.04174   0.25097   0.00000  Uiso   1.00
H40    H     0.42195   0.01324   0.30538   0.00000  Uiso   1.00
H41    H     0.39480   0.01747   0.23847   0.00000  Uiso   1.00
H42    H     0.11589   0.09113   0.16760   0.00000  Uiso   1.00
H43    H     0.03385   0.02310   0.25587   0.00000  Uiso   1.00
H44    H     0.07725   0.06637   0.25031   0.00000  Uiso   1.00
H45    H     0.11719   0.32957   0.28047   0.00000  Uiso   1.00
H46    H     0.08496   0.29065   0.23612   0.00000  Uiso   1.00
H47    H     0.12572   0.33008   0.20781   0.00000  Uiso   1.00
H48    H     0.39017   0.08781   0.16251   0.00000  Uiso   1.00
H49    H     0.10825   0.24457   0.15463   0.00000  Uiso   1.00
H50    H     0.46399   0.02861   0.05480   0.00000  Uiso   1.00
H51    H     0.42604   0.07544   0.07515   0.00000  Uiso   1.00
H52    H     0.38027   0.00869   0.12107   0.00000  Uiso   1.00
H53    H     0.37883   0.01128   0.04751   0.00000  Uiso   1.00
H54    H     0.41426   0.29977   0.08260   0.00000  Uiso   1.00
N55    N     0.25000   0.16667   0.02455   0.00000  Uiso   1.00
N56    N     0.25000   0.16667   0.30879   0.00000  Uiso   1.00
O57    O     0.25000   0.09512   0.21228   0.00000  Uiso   1.00
O58    O     0.03466   0.29334   0.13454   0.00000  Uiso   1.00
O59    O     0.45167   0.29421   0.18831   0.00000  Uiso   1.00
O60    O     0.05145   0.03694   0.17610   0.00000  Uiso   1.00
O61    O     0.25000   0.23822   0.12105   0.00000  Uiso   1.00
O62    O     0.25000   0.23822   0.21228   0.00000  Uiso   1.00
O63    O     0.25000   0.09512   0.12105   0.00000  Uiso   1.00
O64    O     0.18392   0.16667   0.21230   0.00000  Uiso   1.00
O65    O     0.31607   0.16667   0.12104   0.00000  Uiso   1.00
O66    O     0.31607   0.16667   0.21230   0.00000  Uiso   1.00
O67    O     0.18392   0.16667   0.12104   0.00000  Uiso   1.00
O68    O     0.46122   0.03598   0.13913   0.00000  Uiso   1.00
Zn69   Zn    0.25000   0.16667   0.22759   0.00000  Uiso   1.00
Zn70   Zn    0.25000   0.16667   0.10574   0.00000  Uiso   1.00
C71    C     0.75005   0.07250   0.16661   0.00000  Uiso   1.00
C72    C     0.61575   0.16790   0.16346   0.00000  Uiso   1.00
C73    C     0.95487   0.12120   0.16201   0.00000  Uiso   1.00
C74    C     0.54443   0.21012   0.15998   0.00000  Uiso   1.00
C75    C     0.95192   0.20859   0.17373   0.00000  Uiso   1.00
C76    C     0.54866   0.12278   0.16670   0.00000  Uiso   1.00
C77    C     0.97664   0.16519   0.16724   0.00000  Uiso   1.00
C78    C     0.52332   0.16603   0.16506   0.00000  Uiso   1.00
C79    C     0.98067   0.07863   0.15417   0.00000  Uiso   1.00
C80    C     0.51816   0.25251   0.15691   0.00000  Uiso   1.00
C81    C     0.97403   0.25211   0.17470   0.00000  Uiso   1.00
C82    C     0.74995   0.26083   0.16672   0.00000  Uiso   1.00
C83    C     0.52689   0.07907   0.16740   0.00000  Uiso   1.00
C84    C     0.75002   0.02151   0.16660   0.00000  Uiso   1.00
C85    C     0.74999   0.31182   0.16674   0.00000  Uiso   1.00
C86    C     0.93970   0.03897   0.08648   0.00000  Uiso   1.00
C87    C     0.90096   0.00418   0.08421   0.00000  Uiso   1.00
C88    C     0.53574   0.28771   0.07698   0.00000  Uiso   1.00
C89    C     0.55951   0.32995   0.05284   0.00000  Uiso   1.00
C90    C     0.94906   0.29706   0.24593   0.00000  Uiso   1.00
C91    C     0.92760   0.01210   0.26095   0.00000  Uiso   1.00
C92    C     0.56363   0.03263   0.23244   0.00000  Uiso   1.00
C93    C     0.66331   0.16835   0.16577   0.00000  Uiso   1.00
C94    C     0.60008   0.32659   0.23955   0.00000  Uiso   1.00
C95    C     0.83669   0.16498   0.16757   0.00000  Uiso   1.00
C96    C     0.90547   0.20794   0.17526   0.00000  Uiso   1.00
C97    C     0.59526   0.12401   0.16637   0.00000  Uiso   1.00
C98    C     0.90818   0.12110   0.16471   0.00000  Uiso   1.00
C99    C     0.59106   0.21089   0.15816   0.00000  Uiso   1.00
C100   C     0.88427   0.16450   0.16986   0.00000  Uiso   1.00
H101   H     0.88545   0.24111   0.17816   0.00000  Uiso   1.00
H102   H     0.50100   0.28651   0.05892   0.00000  Uiso   1.00
H103   H     0.55454   0.25430   0.06475   0.00000  Uiso   1.00
H104   H     0.59511   0.32988   0.06791   0.00000  Uiso   1.00
H105   H     0.55836   0.32649   0.00776   0.00000  Uiso   1.00
H106   H     0.54278   0.03128   0.06409   0.00000  Uiso   1.00
H107   H     0.98301   0.29389   0.26640   0.00000  Uiso   1.00
H108   H     0.92777   0.26829   0.26187   0.00000  Uiso   1.00
H109   H     0.95005   0.04174   0.25097   0.00000  Uiso   1.00
H110   H     0.92195   0.01324   0.30538   0.00000  Uiso   1.00
H111   H     0.89480   0.01747   0.23847   0.00000  Uiso   1.00
H112   H     0.61589   0.09113   0.16760   0.00000  Uiso   1.00
H113   H     0.53385   0.02310   0.25587   0.00000  Uiso   1.00
H114   H     0.57725   0.06637   0.25031   0.00000  Uiso   1.00
H115   H     0.61719   0.32957   0.28047   0.00000  Uiso   1.00
H116   H     0.58496   0.29065   0.23612   0.00000  Uiso   1.00
H117   H     0.62572   0.33008   0.20781   0.00000  Uiso   1.00
H118   H     0.89017   0.08781   0.16251   0.00000  Uiso   1.00
H119   H     0.60825   0.24457   0.15463   0.00000  Uiso   1.00
H120   H     0.96399   0.02861   0.05480   0.00000  Uiso   1.00
H121   H     0.92604   0.07544   0.07515   0.00000  Uiso   1.00
H122   H     0.88027   0.00869   0.12107   0.00000  Uiso   1.00
H123   H     0.87883   0.01128   0.04751   0.00000  Uiso   1.00
H124   H     0.91426   0.29977   0.08260   0.00000  Uiso   1.00
N125   N     0.75000   0.16667   0.02455   0.00000  Uiso   1.00
N126   N     0.75000   0.16667   0.30879   0.00000  Uiso   1.00
O127   O     0.75000   0.09512   0.21228   0.00000  Uiso   1.00
O128   O     0.53466   0.29334   0.13454   0.00000  Uiso   1.00
O129   O     0.95167   0.29421   0.18831   0.00000  Uiso   1.00
O130   O     0.55145   0.03694   0.17610   0.00000  Uiso   1.00
O131   O     0.75000   0.23822   0.12105   0.00000  Uiso   1.00
O132   O     0.75000   0.23822   0.21228   0.00000  Uiso   1.00
O133   O     0.75000   0.09512   0.12105   0.00000  Uiso   1.00
O134   O     0.68392   0.16667   0.21230   0.00000  Uiso   1.00
O135   O     0.81607   0.16667   0.12104   0.00000  Uiso   1.00
O136   O     0.81607   0.16667   0.21230   0.00000  Uiso   1.00
O137   O     0.68392   0.16667   0.12104   0.00000  Uiso   1.00
O138   O     0.96122   0.03598   0.13913   0.00000  Uiso   1.00
Zn139  Zn    0.75000   0.16667   0.22759   0.00000  Uiso   1.00
Zn140  Zn    0.75000   0.16667   0.10574   0.00000  Uiso   1.00
C141   C     0.25005   0.40584   0.16661   0.00000  Uiso   1.00
C142   C     0.11575   0.50123   0.16346   0.00000  Uiso   1.00
C143   C     0.45487   0.45454   0.16201   0.00000  Uiso   1.00
C144   C     0.04443   0.54346   0.15998   0.00000  Uiso   1.00
C145   C     0.45192   0.54192   0.17373   0.00000  Uiso   1.00
C146   C     0.04866   0.45612   0.16670   0.00000  Uiso   1.00
C147   C     0.47664   0.49852   0.16724   0.00000  Uiso   1.00
C148   C     0.02332   0.49936   0.16506   0.00000  Uiso   1.00
C149   C     0.48067   0.41196   0.15417   0.00000  Uiso   1.00
C150   C     0.01816   0.58585   0.15691   0.00000  Uiso   1.00
C151   C     0.47403   0.58544   0.17470   0.00000  Uiso   1.00
C152   C     0.24995   0.59416   0.16672   0.00000  Uiso   1.00
C153   C     0.02689   0.41241   0.16740   0.00000  Uiso   1.00
C154   C     0.25002   0.35484   0.16660   0.00000  Uiso   1.00
C155   C     0.24999   0.64516   0.16674   0.00000  Uiso   1.00
C156   C     0.43970   0.37231   0.08648   0.00000  Uiso   1.00
C157   C     0.40096   0.33752   0.08421   0.00000  Uiso   1.00
C158   C     0.03574   0.62104   0.07698   0.00000  Uiso   1.00
C159   C     0.05951   0.66328   0.05284   0.00000  Uiso   1.00
C160   C     0.44906   0.63039   0.24593   0.00000  Uiso   1.00
C161   C     0.42760   0.34544   0.26095   0.00000  Uiso   1.00
C162   C     0.06363   0.36596   0.23244   0.00000  Uiso   1.00
C163   C     0.16331   0.50168   0.16577   0.00000  Uiso   1.00
C164   C     0.10008   0.65992   0.23955   0.00000  Uiso   1.00
C165   C     0.33669   0.49832   0.16757   0.00000  Uiso   1.00
C166   C     0.40547   0.54128   0.17526   0.00000  Uiso   1.00
C167   C     0.09526   0.45734   0.16637   0.00000  Uiso   1.00
C168   C     0.40818   0.45444   0.16471   0.00000  Uiso   1.00
C169   C     0.09106   0.54422   0.15816   0.00000  Uiso   1.00
C170   C     0.38427   0.49783   0.16986   0.00000  Uiso   1.00
H171   H     0.38545   0.57445   0.17816   0.00000  Uiso   1.00
H172   H     0.00100   0.61984   0.05892   0.00000  Uiso   1.00
H173   H     0.05454   0.58763   0.06475   0.00000  Uiso   1.00
H174   H     0.09511   0.66322   0.06791   0.00000  Uiso   1.00
H175   H     0.05836   0.65982   0.00776   0.00000  Uiso   1.00
H176   H     0.04278   0.36461   0.06409   0.00000  Uiso   1.00
H177   H     0.48301   0.62723   0.26640   0.00000  Uiso   1.00
H178   H     0.42777   0.60163   0.26187   0.00000  Uiso   1.00
H179   H     0.45005   0.37508   0.25097   0.00000  Uiso   1.00
H180   H     0.42195   0.34658   0.30538   0.00000  Uiso   1.00
H181   H     0.39480   0.35080   0.23847   0.00000  Uiso   1.00
H182   H     0.11589   0.42446   0.16760   0.00000  Uiso   1.00
H183   H     0.03385   0.35644   0.25587   0.00000  Uiso   1.00
H184   H     0.07725   0.39971   0.25031   0.00000  Uiso   1.00
H185   H     0.11719   0.66291   0.28047   0.00000  Uiso   1.00
H186   H     0.08496   0.62398   0.23612   0.00000  Uiso   1.00
H187   H     0.12572   0.66341   0.20781   0.00000  Uiso   1.00
H188   H     0.39017   0.42114   0.16251   0.00000  Uiso   1.00
H189   H     0.10825   0.57790   0.15463   0.00000  Uiso   1.00
H190   H     0.46399   0.36194   0.05480   0.00000  Uiso   1.00
H191   H     0.42604   0.40877   0.07515   0.00000  Uiso   1.00
H192   H     0.38027   0.34202   0.12107   0.00000  Uiso   1.00
H193   H     0.37883   0.34461   0.04751   0.00000  Uiso   1.00
H194   H     0.41426   0.63310   0.08260   0.00000  Uiso   1.00
N195   N     0.25000   0.50000   0.02455   0.00000  Uiso   1.00
N196   N     0.25000   0.50000   0.30879   0.00000  Uiso   1.00
O197   O     0.25000   0.42845   0.21228   0.00000  Uiso   1.00
O198   O     0.03466   0.62667   0.13454   0.00000  Uiso   1.00
O199   O     0.45167   0.62755   0.18831   0.00000  Uiso   1.00
O200   O     0.05145   0.37027   0.17610   0.00000  Uiso   1.00
O201   O     0.25000   0.57155   0.12105   0.00000  Uiso   1.00
O202   O     0.25000   0.57155   0.21228   0.00000  Uiso   1.00
O203   O     0.25000   0.42845   0.12105   0.00000  Uiso   1.00
O204   O     0.18392   0.50000   0.21230   0.00000  Uiso   1.00
O205   O     0.31607   0.50000   0.12104   0.00000  Uiso   1.00
O206   O     0.31607   0.50000   0.21230   0.00000  Uiso   1.00
O207   O     0.18392   0.50000   0.12104   0.00000  Uiso   1.00
O208   O     0.46122   0.36931   0.13913   0.00000  Uiso   1.00
Zn209  Zn    0.25000   0.50000   0.22759   0.00000  Uiso   1.00
Zn210  Zn    0.25000   0.50000   0.10574   0.00000  Uiso   1.00
C211   C     0.75005   0.40584   0.16661   0.00000  Uiso   1.00
C212   C     0.61575   0.50123   0.16346   0.00000  Uiso   1.00
C213   C     0.95487   0.45454   0.16201   0.00000  Uiso   1.00
C214   C     0.54443   0.54346   0.15998   0.00000  Uiso   1.00
C215   C     0.95192   0.54192   0.17373   0.00000  Uiso   1.00
C216   C     0.54866   0.45612   0.16670   0.00000  Uiso   1.00
C217   C     0.97664   0.49852   0.16724   0.00000  Uiso   1.00
C218   C     0.52332   0.49936   0.16506   0.00000  Uiso   1.00
C219   C     0.98067   0.41196   0.15417   0.00000  Uiso   1.00
C220   C     0.51816   0.58585   0.15691   0.00000  Uiso   1.00
C221   C     0.97403   0.58544   0.17470   0.00000  Uiso   1.00
C222   C     0.74995   0.59416   0.16672   0.00000  Uiso   1.00
C223   C     0.52689   0.41241   0.16740   0.00000  Uiso   1.00
C224   C     0.75002   0.35484   0.16660   0.00000  Uiso   1.00
C225   C     0.74999   0.64516   0.16674   0.00000  Uiso   1.00
C226   C     0.93970   0.37231   0.08648   0.00000  Uiso   1.00
C227   C     0.90096   0.33752   0.08421   0.00000  Uiso   1.00
C228   C     0.53574   0.62104   0.07698   0.00000  Uiso   1.00
C229   C     0.55951   0.66328   0.05284   0.00000  Uiso   1.00
C230   C     0.94906   0.63039   0.24593   0.00000  Uiso   1.00
C231   C     0.92760   0.34544   0.26095   0.00000  Uiso   1.00
C232   C     0.56363   0.36596   0.23244   0.00000  Uiso   1.00
C233   C     0.66331   0.50168   0.16577   0.00000  Uiso   1.00
C234   C     0.60008   0.65992   0.23955   0.00000  Uiso   1.00
C235   C     0.83669   0.49832   0.16757   0.00000  Uiso   1.00
C236   C     0.90547   0.54128   0.17526   0.00000  Uiso   1.00
C237   C     0.59526   0.45734   0.16637   0.00000  Uiso   1.00
C238   C     0.90818   0.45444   0.16471   0.00000  Uiso   1.00
C239   C     0.59106   0.54422   0.15816   0.00000  Uiso   1.00
C240   C     0.88427   0.49783   0.16986   0.00000  Uiso   1.00
H241   H     0.88545   0.57445   0.17816   0.00000  Uiso   1.00
H242   H     0.50100   0.61984   0.05892   0.00000  Uiso   1.00
H243   H     0.55454   0.58763   0.06475   0.00000  Uiso   1.00
H244   H     0.59511   0.66322   0.06791   0.00000  Uiso   1.00
H245   H     0.55836   0.65982   0.00776   0.00000  Uiso   1.00
H246   H     0.54278   0.36461   0.06409   0.00000  Uiso   1.00
H247   H     0.98301   0.62723   0.26640   0.00000  Uiso   1.00
H248   H     0.92777   0.60163   0.26187   0.00000  Uiso   1.00
H249   H     0.95005   0.37508   0.25097   0.00000  Uiso   1.00
H250   H     0.92195   0.34658   0.30538   0.00000  Uiso   1.00
H251   H     0.89480   0.35080   0.23847   0.00000  Uiso   1.00
H252   H     0.61589   0.42446   0.16760   0.00000  Uiso   1.00
H253   H     0.53385   0.35644   0.25587   0.00000  Uiso   1.00
H254   H     0.57725   0.39971   0.25031   0.00000  Uiso   1.00
H255   H     0.61719   0.66291   0.28047   0.00000  Uiso   1.00
H256   H     0.58496   0.62398   0.23612   0.00000  Uiso   1.00
H257   H     0.62572   0.66341   0.20781   0.00000  Uiso   1.00
H258   H     0.89017   0.42114   0.16251   0.00000  Uiso   1.00
H259   H     0.60825   0.57790   0.15463   0.00000  Uiso   1.00
H260   H     0.96399   0.36194   0.05480   0.00000  Uiso   1.00
H261   H     0.92604   0.40877   0.07515   0.00000  Uiso   1.00
H262   H     0.88027   0.34202   0.12107   0.00000  Uiso   1.00
H263   H     0.87883   0.34461   0.04751   0.00000  Uiso   1.00
H264   H     0.91426   0.63310   0.08260   0.00000  Uiso   1.00
N265   N     0.75000   0.50000   0.02455   0.00000  Uiso   1.00
N266   N     0.75000   0.50000   0.30879   0.00000  Uiso   1.00
O267   O     0.75000   0.42845   0.21228   0.00000  Uiso   1.00
O268   O     0.53466   0.62667   0.13454   0.00000  Uiso   1.00
O269   O     0.95167   0.62755   0.18831   0.00000  Uiso   1.00
O270   O     0.55145   0.37027   0.17610   0.00000  Uiso   1.00
O271   O     0.75000   0.57155   0.12105   0.00000  Uiso   1.00
O272   O     0.75000   0.57155   0.21228   0.00000  Uiso   1.00
O273   O     0.75000   0.42845   0.12105   0.00000  Uiso   1.00
O274   O     0.68392   0.50000   0.21230   0.00000  Uiso   1.00
O275   O     0.81607   0.50000   0.12104   0.00000  Uiso   1.00
O276   O     0.81607   0.50000   0.21230   0.00000  Uiso   1.00
O277   O     0.68392   0.50000   0.12104   0.00000  Uiso   1.00
O278   O     0.96122   0.36931   0.13913   0.00000  Uiso   1.00
Zn279  Zn    0.75000   0.50000   0.22759   0.00000  Uiso   1.00
Zn280  Zn    0.75000   0.50000   0.10574   0.00000  Uiso   1.00
C281   C     0.25005   0.73917   0.16661   0.00000  Uiso   1.00
C282   C     0.11575   0.83457   0.16346   0.00000  Uiso   1.00
C283   C     0.45487   0.78787   0.16201   0.00000  Uiso   1.00
C284   C     0.04443   0.87679   0.15998   0.00000  Uiso   1.00
C285   C     0.45192   0.87525   0.17373   0.00000  Uiso   1.00
C286   C     0.04866   0.78945   0.16670   0.00000  Uiso   1.00
C287   C     0.47664   0.83186   0.16724   0.00000  Uiso   1.00
C288   C     0.02332   0.83270   0.16506   0.00000  Uiso   1.00
C289   C     0.48067   0.74529   0.15417   0.00000  Uiso   1.00
C290   C     0.01816   0.91918   0.15691   0.00000  Uiso   1.00
C291   C     0.47403   0.91877   0.17470   0.00000  Uiso   1.00
C292   C     0.24995   0.92750   0.16672   0.00000  Uiso   1.00
C293   C     0.02689   0.74574   0.16740   0.00000  Uiso   1.00
C294   C     0.25002   0.68818   0.16660   0.00000  Uiso   1.00
C295   C     0.24999   0.97849   0.16674   0.00000  Uiso   1.00
C296   C     0.43970   0.70564   0.08648   0.00000  Uiso   1.00
C297   C     0.40096   0.67085   0.08421   0.00000  Uiso   1.00
C298   C     0.03574   0.95438   0.07698   0.00000  Uiso   1.00
C299   C     0.05951   0.99661   0.05284   0.00000  Uiso   1.00
C300   C     0.44906   0.96373   0.24593   0.00000  Uiso   1.00
C301   C     0.42760   0.67877   0.26095   0.00000  Uiso   1.00
C302   C     0.06363   0.69929   0.23244   0.00000  Uiso   1.00
C303   C     0.16331   0.83502   0.16577   0.00000  Uiso   1.00
C304   C     0.10008   0.99325   0.23955   0.00000  Uiso   1.00
C305   C     0.33669   0.83165   0.16757   0.00000  Uiso   1.00
C306   C     0.40547   0.87461   0.17526   0.00000  Uiso   1.00
C307   C     0.09526   0.79067   0.16637   0.00000  Uiso   1.00
C308   C     0.40818   0.78777   0.16471   0.00000  Uiso   1.00
C309   C     0.09106   0.87755   0.15816   0.00000  Uiso   1.00
C310   C     0.38427   0.83116   0.16986   0.00000  Uiso   1.00
H311   H     0.38545   0.90778   0.17816   0.00000  Uiso   1.00
H312   H     0.00100   0.95317   0.05892   0.00000  Uiso   1.00
H313   H     0.05454   0.92096   0.06475   0.00000  Uiso   1.00
H314   H     0.09511   0.99655   0.06791   0.00000  Uiso   1.00
H315   H     0.05836   0.99316   0.00776   0.00000  Uiso   1.00
H316   H     0.04278   0.69794   0.06409   0.00000  Uiso   1.00
H317   H     0.48301   0.96056   0.26640   0.00000  Uiso   1.00
H318   H     0.42777   0.93496   0.26187   0.00000  Uiso   1.00
H319   H     0.45005   0.70841   0.25097   0.00000  Uiso   1.00
H320   H     0.42195   0.67991   0.30538   0.00000  Uiso   1.00
H321   H     0.39480   0.68414   0.23847   0.00000  Uiso   1.00
H322   H     0.11589   0.75780   0.16760   0.00000  Uiso   1.00
H323   H     0.03385   0.68977   0.25587   0.00000  Uiso   1.00
H324   H     0.07725   0.73304   0.25031   0.00000  Uiso   1.00
H325   H     0.11719   0.99624   0.28047   0.00000  Uiso   1.00
H326   H     0.08496   0.95732   0.23612   0.00000  Uiso   1.00
H327   H     0.12572   0.99675   0.20781   0.00000  Uiso   1.00
H328   H     0.39017   0.75448   0.16251   0.00000  Uiso   1.00
H329   H     0.10825   0.91124   0.15463   0.00000  Uiso   1.00
H330   H     0.46399   0.69528   0.05480   0.00000  Uiso   1.00
H331   H     0.42604   0.74210   0.07515   0.00000  Uiso   1.00
H332   H     0.38027   0.67535   0.12107   0.00000  Uiso   1.00
H333   H     0.37883   0.67795   0.04751   0.00000  Uiso   1.00
H334   H     0.41426   0.96643   0.08260   0.00000  Uiso   1.00
N335   N     0.25000   0.83333   0.02455   0.00000  Uiso   1.00
N336   N     0.25000   0.83333   0.30879   0.00000  Uiso   1.00
O337   O     0.25000   0.76178   0.21228   0.00000  Uiso   1.00
O338   O     0.03466   0.96001   0.13454   0.00000  Uiso   1.00
O339   O     0.45167   0.96088   0.18831   0.00000  Uiso   1.00
O340   O     0.05145   0.70361   0.17610   0.00000  Uiso   1.00
O341   O     0.25000   0.90488   0.12105   0.00000  Uiso   1.00
O342   O     0.25000   0.90488   0.21228   0.00000  Uiso   1.00
O343   O     0.25000   0.76178   0.12105   0.00000  Uiso   1.00
O344   O     0.18392   0.83333   0.21230   0.00000  Uiso   1.00
O345   O     0.31607   0.83333   0.12104   0.00000  Uiso   1.00
O346   O     0.31607   0.83333   0.21230   0.00000  Uiso   1.00
O347   O     0.18392   0.83333   0.12104   0.00000  Uiso   1.00
O348   O     0.46122   0.70265   0.13913   0.00000  Uiso   1.00
Zn349  Zn    0.25000   0.83333   0.22759   0.00000  Uiso   1.00
Zn350  Zn    0.25000   0.83333   0.10574   0.00000  Uiso   1.00
C351   C     0.75005   0.73917   0.16661   0.00000  Uiso   1.00
C352   C     0.61575   0.83457   0.16346   0.00000  Uiso   1.00
C353   C     0.95487   0.78787   0.16201   0.00000  Uiso   1.00
C354   C     0.54443   0.87679   0.15998   0.00000  Uiso   1.00
C355   C     0.95192   0.87525   0.17373   0.00000  Uiso   1.00
C356   C     0.54866   0.78945   0.16670   0.00000  Uiso   1.00
C357   C     0.97664   0.83186   0.16724   0.00000  Uiso   1.00
C358   C     0.52332   0.83270   0.16506   0.00000  Uiso   1.00
C359   C     0.98067   0.74529   0.15417   0.00000  Uiso   1.00
C360   C     0.51816   0.91918   0.15691   0.00000  Uiso   1.00
C361   C     0.97403   0.91877   0.17470   0.00000  Uiso   1.00
C362   C     0.74995   0.92750   0.16672   0.00000  Uiso   1.00
C363   C     0.52689   0.74574   0.16740   0.00000  Uiso   1.00
C364   C     0.75002   0.68818   0.16660   0.00000  Uiso   1.00
C365   C     0.74999   0.97849   0.16674   0.00000  Uiso   1.00
C366   C     0.93970   0.70564   0.08648   0.00000  Uiso   1.00
C367   C     0.90096   0.67085   0.08421   0.00000  Uiso   1.00
C368   C     0.53574   0.95438   0.07698   0.00000  Uiso   1.00
C369   C     0.55951   0.99661   0.05284   0.00000  Uiso   1.00
C370   C     0.94906   0.96373   0.24593   0.00000  Uiso   1.00
C371   C     0.92760   0.67877   0.26095   0.00000  Uiso   1.00
C372   C     0.56363   0.69929   0.23244   0.00000  Uiso   1.00
C373   C     0.66331   0.83502   0.16577   0.00000  Uiso   1.00
C374   C     0.60008   0.99325   0.23955   0.00000  Uiso   1.00
C375   C     0.83669   0.83165   0.16757   0.00000  Uiso   1.00
C376   C     0.90547   0.87461   0.17526   0.00000  Uiso   1.00
C377   C     0.59526   0.79067   0.16637   0.00000  Uiso   1.00
C378   C     0.90818   0.78777   0.16471   0.00000  Uiso   1.00
C379   C     0.59106   0.87755   0.15816   0.00000  Uiso   1.00
C380   C     0.88427   0.83116   0.16986   0.00000  Uiso   1.00
H381   H     0.88545   0.90778   0.17816   0.00000  Uiso   1.00
H382   H     0.50100   0.95317   0.05892   0.00000  Uiso   1.00
H383   H     0.55454   0.92096   0.06475   0.00000  Uiso   1.00
H384   H     0.59511   0.99655   0.06791   0.00000  Uiso   1.00
H385   H     0.55836   0.99316   0.00776   0.00000  Uiso   1.00
H386   H     0.54278   0.69794   0.06409   0.00000  Uiso   1.00
H387   H     0.98301   0.96056   0.26640   0.00000  Uiso   1.00
H388   H     0.92777   0.93496   0.26187   0.00000  Uiso   1.00
H389   H     0.95005   0.70841   0.25097   0.00000  Uiso   1.00
H390   H     0.92195   0.67991   0.30538   0.00000  Uiso   1.00
H391   H     0.89480   0.68414   0.23847   0.00000  Uiso   1.00
H392   H     0.61589   0.75780   0.16760   0.00000  Uiso   1.00
H393   H     0.53385   0.68977   0.25587   0.00000  Uiso   1.00
H394   H     0.57725   0.73304   0.25031   0.00000  Uiso   1.00
H395   H     0.61719   0.99624   0.28047   0.00000  Uiso   1.00
H396   H     0.58496   0.95732   0.23612   0.00000  Uiso   1.00
H397   H     0.62572   0.99675   0.20781   0.00000  Uiso   1.00
H398   H     0.89017   0.75448   0.16251   0.00000  Uiso   1.00
H399   H     0.60825   0.91124   0.15463   0.00000  Uiso   1.00
H400   H     0.96399   0.69528   0.05480   0.00000  Uiso   1.00
H401   H     0.92604   0.74210   0.07515   0.00000  Uiso   1.00
H402   H     0.88027   0.67535   0.12107   0.00000  Uiso   1.00
H403   H     0.87883   0.67795   0.04751   0.00000  Uiso   1.00
H404   H     0.91426   0.96643   0.08260   0.00000  Uiso   1.00
N405   N     0.75000   0.83333   0.02455   0.00000  Uiso   1.00
N406   N     0.75000   0.83333   0.30879   0.00000  Uiso   1.00
O407   O     0.75000   0.76178   0.21228   0.00000  Uiso   1.00
O408   O     0.53466   0.96001   0.13454   0.00000  Uiso   1.00
O409   O     0.95167   0.96088   0.18831   0.00000  Uiso   1.00
O410   O     0.55145   0.70361   0.17610   0.00000  Uiso   1.00
O411   O     0.75000   0.90488   0.12105   0.00000  Uiso   1.00
O412   O     0.75000   0.90488   0.21228   0.00000  Uiso   1.00
O413   O     0.75000   0.76178   0.12105   0.00000  Uiso   1.00
O414   O     0.68392   0.83333   0.21230   0.00000  Uiso   1.00
O415   O     0.81607   0.83333   0.12104   0.00000  Uiso   1.00
O416   O     0.81607   0.83333   0.21230   0.00000  Uiso   1.00
O417   O     0.68392   0.83333   0.12104   0.00000  Uiso   1.00
O418   O     0.96122   0.70265   0.13913   0.00000  Uiso   1.00
Zn419  Zn    0.75000   0.83333   0.22759   0.00000  Uiso   1.00
Zn420  Zn    0.75000   0.83333   0.10574   0.00000  Uiso   1.00
C421   C     0.25005   0.07250   0.49995   0.00000  Uiso   1.00
C422   C     0.11575   0.16790   0.49679   0.00000  Uiso   1.00
C423   C     0.45487   0.12120   0.49534   0.00000  Uiso   1.00
C424   C     0.04443   0.21012   0.49331   0.00000  Uiso   1.00
C425   C     0.45192   0.20859   0.50706   0.00000  Uiso   1.00
C426   C     0.04866   0.12278   0.50003   0.00000  Uiso   1.00
C427   C     0.47664   0.16519   0.50057   0.00000  Uiso   1.00
C428   C     0.02332   0.16603   0.49839   0.00000  Uiso   1.00
C429   C     0.48067   0.07863   0.48750   0.00000  Uiso   1.00
C430   C     0.01816   0.25251   0.49025   0.00000  Uiso   1.00
C431   C     0.47403   0.25211   0.50803   0.00000  Uiso   1.00
C432   C     0.24995   0.26083   0.50005   0.00000  Uiso   1.00
C433   C     0.02689   0.07907   0.50074   0.00000  Uiso   1.00
C434   C     0.25002   0.02151   0.49993   0.00000  Uiso   1.00
C435   C     0.24999   0.31182   0.50007   0.00000  Uiso   1.00
C436   C     0.43970   0.03897   0.41982   0.00000  Uiso   1.00
C437   C     0.40096   0.00418   0.41755   0.00000  Uiso   1.00
C438   C     0.03574   0.28771   0.41031   0.00000  Uiso   1.00
C439   C     0.05951   0.32995   0.38618   0.00000  Uiso   1.00
C440   C     0.44906   0.29706   0.57926   0.00000  Uiso   1.00
C441   C     0.42760   0.01210   0.59428   0.00000  Uiso   1.00
C442   C     0.06363   0.03263   0.56578   0.00000  Uiso   1.00
C443   C     0.16331   0.16835   0.49910   0.00000  Uiso   1.00
C444   C     0.10008   0.32659   0.57288   0.00000  Uiso   1.00
C445   C     0.33669   0.16498   0.50090   0.00000  Uiso   1.00
C446   C     0.40547   0.20794   0.50859   0.00000  Uiso   1.00
C447   C     0.09526   0.12401   0.49971   0.00000  Uiso   1.00
C448   C     0.40818   0.12110   0.49804   0.00000  Uiso   1.00
C449   C     0.09106   0.21089   0.49150   0.00000  Uiso   1.00
C450   C     0.38427   0.16450   0.50319   0.00000  Uiso   1.00
H451   H     0.38545   0.24111   0.51149   0.00000  Uiso   1.00
H452   H     0.00100   0.28651   0.39225   0.00000  Uiso   1.00
H453   H     0.05454   0.25430   0.39809   0.00000  Uiso   1.00
H454   H     0.09511   0.32988   0.40125   0.00000  Uiso   1.00
H455   H     0.05836   0.32649   0.34109   0.00000  Uiso   1.00
H456   H     0.04278   0.03128   0.39742   0.00000  Uiso   1.00
H457   H     0.48301   0.29389   0.59974   0.00000  Uiso   1.00
H458   H     0.42777   0.26829   0.59521   0.00000  Uiso   1.00
H459   H     0.45005   0.04174   0.58430   0.00000  Uiso   1.00
H460   H     0.42195   0.01324   0.63871   0.00000  Uiso   1.00
H461   H     0.39480   0.01747   0.57180   0.00000  Uiso   1.00
H462   H     0.11589   0.09113   0.50093   0.00000  Uiso   1.00
H463   H     0.03385   0.02310   0.58920   0.00000  Uiso   1.00
H464   H     0.07725   0.06637   0.58364   0.00000  Uiso   1.00
H465   H     0.11719   0.32957   0.61380   0.00000  Uiso   1.00
H466   H     0.08496   0.29065   0.56945   0.00000  Uiso   1.00
H467   H     0.12572   0.33008   0.54114   0.00000  Uiso   1.00
H468   H     0.39017   0.08781   0.49585   0.00000  Uiso   1.00
H469   H     0.10825   0.24457   0.48796   0.00000  Uiso   1.00
H470   H     0.46399   0.02861   0.38813   0.00000  Uiso   1.00
H471   H     0.42604   0.07544   0.40849   0.00000  Uiso   1.00
H472   H     0.38027   0.00869   0.45440   0.00000  Uiso   1.00
H473   H     0.37883   0.01128   0.38084   0.00000  Uiso   1.00
H474   H     0.41426   0.29977   0.41593   0.00000  Uiso   1.00
N475   N     0.25000   0.16667   0.35788   0.00000  Uiso   1.00
N476   N     0.25000   0.16667   0.64212   0.00000  Uiso   1.00
O477   O     0.25000   0.09512   0.54562   0.00000  Uiso   1.00
O478   O     0.03466   0.29334   0.46787   0.00000  Uiso   1.00
O479   O     0.45167   0.29421   0.52164   0.00000  Uiso   1.00
O480   O     0.05145   0.03694   0.50944   0.00000  Uiso   1.00
O481   O     0.25000   0.23822   0.45438   0.00000  Uiso   1.00
O482   O     0.25000   0.23822   0.54562   0.00000  Uiso   1.00
O483   O     0.25000   0.09512   0.45438   0.00000  Uiso   1.00
O484   O     0.18392   0.16667   0.54563   0.00000  Uiso   1.00
O485   O     0.31607   0.16667   0.45437   0.00000  Uiso   1.00
O486   O     0.31607   0.16667   0.54563   0.00000  Uiso   1.00
O487   O     0.18392   0.16667   0.45437   0.00000  Uiso   1.00
O488   O     0.46122   0.03598   0.47246   0.00000  Uiso   1.00
Zn489  Zn    0.25000   0.16667   0.56093   0.00000  Uiso   1.00
Zn490  Zn    0.25000   0.16667   0.43907   0.00000  Uiso   1.00
C491   C     0.75005   0.07250   0.49995   0.00000  Uiso   1.00
C492   C     0.61575   0.16790   0.49679   0.00000  Uiso   1.00
C493   C     0.95487   0.12120   0.49534   0.00000  Uiso   1.00
C494   C     0.54443   0.21012   0.49331   0.00000  Uiso   1.00
C495   C     0.95192   0.20859   0.50706   0.00000  Uiso   1.00
C496   C     0.54866   0.12278   0.50003   0.00000  Uiso   1.00
C497   C     0.97664   0.16519   0.50057   0.00000  Uiso   1.00
C498   C     0.52332   0.16603   0.49839   0.00000  Uiso   1.00
C499   C     0.98067   0.07863   0.48750   0.00000  Uiso   1.00
C500   C     0.51816   0.25251   0.49025   0.00000  Uiso   1.00
C501   C     0.97403   0.25211   0.50803   0.00000  Uiso   1.00
C502   C     0.74995   0.26083   0.50005   0.00000  Uiso   1.00
C503   C     0.52689   0.07907   0.50074   0.00000  Uiso   1.00
C504   C     0.75002   0.02151   0.49993   0.00000  Uiso   1.00
C505   C     0.74999   0.31182   0.50007   0.00000  Uiso   1.00
C506   C     0.93970   0.03897   0.41982   0.00000  Uiso   1.00
C507   C     0.90096   0.00418   0.41755   0.00000  Uiso   1.00
C508   C     0.53574   0.28771   0.41031   0.00000  Uiso   1.00
C509   C     0.55951   0.32995   0.38618   0.00000  Uiso   1.00
C510   C     0.94906   0.29706   0.57926   0.00000  Uiso   1.00
C511   C     0.92760   0.01210   0.59428   0.00000  Uiso   1.00
C512   C     0.56363   0.03263   0.56578   0.00000  Uiso   1.00
C513   C     0.66331   0.16835   0.49910   0.00000  Uiso   1.00
C514   C     0.60008   0.32659   0.57288   0.00000  Uiso   1.00
C515   C     0.83669   0.16498   0.50090   0.00000  Uiso   1.00
C516   C     0.90547   0.20794   0.50859   0.00000  Uiso   1.00
C517   C     0.59526   0.12401   0.49971   0.00000  Uiso   1.00
C518   C     0.90818   0.12110   0.49804   0.00000  Uiso   1.00
C519   C     0.59106   0.21089   0.49150   0.00000  Uiso   1.00
C520   C     0.88427   0.16450   0.50319   0.00000  Uiso   1.00
H521   H     0.88545   0.24111   0.51149   0.00000  Uiso   1.00
H522   H     0.50100   0.28651   0.39225   0.00000  Uiso   1.00
H523   H     0.55454   0.25430   0.39809   0.00000  Uiso   1.00
H524   H     0.59511   0.32988   0.40125   0.00000  Uiso   1.00
H525   H     0.55836   0.32649   0.34109   0.00000  Uiso   1.00
H526   H     0.54278   0.03128   0.39742   0.00000  Uiso   1.00
H527   H     0.98301   0.29389   0.59974   0.00000  Uiso   1.00
H528   H     0.92777   0.26829   0.59521   0.00000  Uiso   1.00
H529   H     0.95005   0.04174   0.58430   0.00000  Uiso   1.00
H530   H     0.92195   0.01324   0.63871   0.00000  Uiso   1.00
H531   H     0.89480   0.01747   0.57180   0.00000  Uiso   1.00
H532   H     0.61589   0.09113   0.50093   0.00000  Uiso   1.00
H533   H     0.53385   0.02310   0.58920   0.00000  Uiso   1.00
H534   H     0.57725   0.06637   0.58364   0.00000  Uiso   1.00
H535   H     0.61719   0.32957   0.61380   0.00000  Uiso   1.00
H536   H     0.58496   0.29065   0.56945   0.00000  Uiso   1.00
H537   H     0.62572   0.33008   0.54114   0.00000  Uiso   1.00
H538   H     0.89017   0.08781   0.49585   0.00000  Uiso   1.00
H539   H     0.60825   0.24457   0.48796   0.00000  Uiso   1.00
H540   H     0.96399   0.02861   0.38813   0.00000  Uiso   1.00
H541   H     0.92604   0.07544   0.40849   0.00000  Uiso   1.00
H542   H     0.88027   0.00869   0.45440   0.00000  Uiso   1.00
H543   H     0.87883   0.01128   0.38084   0.00000  Uiso   1.00
H544   H     0.91426   0.29977   0.41593   0.00000  Uiso   1.00
N545   N     0.75000   0.16667   0.35788   0.00000  Uiso   1.00
N546   N     0.75000   0.16667   0.64212   0.00000  Uiso   1.00
O547   O     0.75000   0.09512   0.54562   0.00000  Uiso   1.00
O548   O     0.53466   0.29334   0.46787   0.00000  Uiso   1.00
O549   O     0.95167   0.29421   0.52164   0.00000  Uiso   1.00
O550   O     0.55145   0.03694   0.50944   0.00000  Uiso   1.00
O551   O     0.75000   0.23822   0.45438   0.00000  Uiso   1.00
O552   O     0.75000   0.23822   0.54562   0.00000  Uiso   1.00
O553   O     0.75000   0.09512   0.45438   0.00000  Uiso   1.00
O554   O     0.68392   0.16667   0.54563   0.00000  Uiso   1.00
O555   O     0.81607   0.16667   0.45437   0.00000  Uiso   1.00
O556   O     0.81607   0.16667   0.54563   0.00000  Uiso   1.00
O557   O     0.68392   0.16667   0.45437   0.00000  Uiso   1.00
O558   O     0.96122   0.03598   0.47246   0.00000  Uiso   1.00
Zn559  Zn    0.75000   0.16667   0.56093   0.00000  Uiso   1.00
Zn560  Zn    0.75000   0.16667   0.43907   0.00000  Uiso   1.00
C561   C     0.25005   0.40584   0.49995   0.00000  Uiso   1.00
C562   C     0.11575   0.50123   0.49679   0.00000  Uiso   1.00
C563   C     0.45487   0.45454   0.49534   0.00000  Uiso   1.00
C564   C     0.04443   0.54346   0.49331   0.00000  Uiso   1.00
C565   C     0.45192   0.54192   0.50706   0.00000  Uiso   1.00
C566   C     0.04866   0.45612   0.50003   0.00000  Uiso   1.00
C567   C     0.47664   0.49852   0.50057   0.00000  Uiso   1.00
C568   C     0.02332   0.49936   0.49839   0.00000  Uiso   1.00
C569   C     0.48067   0.41196   0.48750   0.00000  Uiso   1.00
C570   C     0.01816   0.58585   0.49025   0.00000  Uiso   1.00
C571   C     0.47403   0.58544   0.50803   0.00000  Uiso   1.00
C572   C     0.24995   0.59416   0.50005   0.00000  Uiso   1.00
C573   C     0.02689   0.41241   0.50074   0.00000  Uiso   1.00
C574   C     0.25002   0.35484   0.49993   0.00000  Uiso   1.00
C575   C     0.24999   0.64516   0.50007   0.00000  Uiso   1.00
C576   C     0.43970   0.37231   0.41982   0.00000  Uiso   1.00
C577   C     0.40096   0.33752   0.41755   0.00000  Uiso   1.00
C578   C     0.03574   0.62104   0.41031   0.00000  Uiso   1.00
C579   C     0.05951   0.66328   0.38618   0.00000  Uiso   1.00
C580   C     0.44906   0.63039   0.57926   0.00000  Uiso   1.00
C581   C     0.42760   0.34544   0.59428   0.00000  Uiso   1.00
C582   C     0.06363   0.36596   0.56578   0.00000  Uiso   1.00
C583   C     0.16331   0.50168   0.49910   0.00000  Uiso   1.00
C584   C     0.10008   0.65992   0.57288   0.00000  Uiso   1.00
C585   C     0.33669   0.49832   0.50090   0.00000  Uiso   1.00
C586   C     0.40547   0.54128   0.50859   0.00000  Uiso   1.00
C587   C     0.09526   0.45734   0.49971   0.00000  Uiso   1.00
C588   C     0.40818   0.45444   0.49804   0.00000  Uiso   1.00
C589   C     0.09106   0.54422   0.49150   0.00000  Uiso   1.00
C590   C     0.38427   0.49783   0.50319   0.00000  Uiso   1.00
H591   H     0.38545   0.57445   0.51149   0.00000  Uiso   1.00
H592   H     0.00100   0.61984   0.39225   0.00000  Uiso   1.00
H593   H     0.05454   0.58763   0.39809   0.00000  Uiso   1.00
H594   H     0.09511   0.66322   0.40125   0.00000  Uiso   1.00
H595   H     0.05836   0.65982   0.34109   0.00000  Uiso   1.00
H596   H     0.04278   0.36461   0.39742   0.00000  Uiso   1.00
H597   H     0.48301   0.62723   0.59974   0.00000  Uiso   1.00
H598   H     0.42777   0.60163   0.59521   0.00000  Uiso   1.00
H599   H     0.45005   0.37508   0.58430   0.00000  Uiso   1.00
H600   H     0.42195   0.34658   0.63871   0.00000  Uiso   1.00
H601   H     0.39480   0.35080   0.57180   0.00000  Uiso   1.00
H602   H     0.11589   0.42446   0.50093   0.00000  Uiso   1.00
H603   H     0.03385   0.35644   0.58920   0.00000  Uiso   1.00
H604   H     0.07725   0.39971   0.58364   0.00000  Uiso   1.00
H605   H     0.11719   0.66291   0.61380   0.00000  Uiso   1.00
H606   H     0.08496   0.62398   0.56945   0.00000  Uiso   1.00
H607   H     0.12572   0.66341   0.54114   0.00000  Uiso   1.00
H608   H     0.39017   0.42114   0.49585   0.00000  Uiso   1.00
H609   H     0.10825   0.57790   0.48796   0.00000  Uiso   1.00
H610   H     0.46399   0.36194   0.38813   0.00000  Uiso   1.00
H611   H     0.42604   0.40877   0.40849   0.00000  Uiso   1.00
H612   H     0.38027   0.34202   0.45440   0.00000  Uiso   1.00
H613   H     0.37883   0.34461   0.38084   0.00000  Uiso   1.00
H614   H     0.41426   0.63310   0.41593   0.00000  Uiso   1.00
N615   N     0.25000   0.50000   0.35788   0.00000  Uiso   1.00
N616   N     0.25000   0.50000   0.64212   0.00000  Uiso   1.00
O617   O     0.25000   0.42845   0.54562   0.00000  Uiso   1.00
O618   O     0.03466   0.62667   0.46787   0.00000  Uiso   1.00
O619   O     0.45167   0.62755   0.52164   0.00000  Uiso   1.00
O620   O     0.05145   0.37027   0.50944   0.00000  Uiso   1.00
O621   O     0.25000   0.57155   0.45438   0.00000  Uiso   1.00
O622   O     0.25000   0.57155   0.54562   0.00000  Uiso   1.00
O623   O     0.25000   0.42845   0.45438   0.00000  Uiso   1.00
O624   O     0.18392   0.50000   0.54563   0.00000  Uiso   1.00
O625   O     0.31607   0.50000   0.45437   0.00000  Uiso   1.00
O626   O     0.31607   0.50000   0.54563   0.00000  Uiso   1.00
O627   O     0.18392   0.50000   0.45437   0.00000  Uiso   1.00
O628   O     0.46122   0.36931   0.47246   0.00000  Uiso   1.00
Zn629  Zn    0.25000   0.50000   0.56093   0.00000  Uiso   1.00
Zn630  Zn    0.25000   0.50000   0.43907   0.00000  Uiso   1.00
C631   C     0.75005   0.40584   0.49995   0.00000  Uiso   1.00
C632   C     0.61575   0.50123   0.49679   0.00000  Uiso   1.00
C633   C     0.95487   0.45454   0.49534   0.00000  Uiso   1.00
C634   C     0.54443   0.54346   0.49331   0.00000  Uiso   1.00
C635   C     0.95192   0.54192   0.50706   0.00000  Uiso   1.00
C636   C     0.54866   0.45612   0.50003   0.00000  Uiso   1.00
C637   C     0.97664   0.49852   0.50057   0.00000  Uiso   1.00
C638   C     0.52332   0.49936   0.49839   0.00000  Uiso   1.00
C639   C     0.98067   0.41196   0.48750   0.00000  Uiso   1.00
C640   C     0.51816   0.58585   0.49025   0.00000  Uiso   1.00
C641   C     0.97403   0.58544   0.50803   0.00000  Uiso   1.00
C642   C     0.74995   0.59416   0.50005   0.00000  Uiso   1.00
C643   C     0.52689   0.41241   0.50074   0.00000  Uiso   1.00
C644   C     0.75002   0.35484   0.49993   0.00000  Uiso   1.00
C645   C     0.74999   0.64516   0.50007   0.00000  Uiso   1.00
C646   C     0.93970   0.37231   0.41982   0.00000  Uiso   1.00
C647   C     0.90096   0.33752   0.41755   0.00000  Uiso   1.00
C648   C     0.53574   0.62104   0.41031   0.00000  Uiso   1.00
C649   C     0.55951   0.66328   0.38618   0.00000  Uiso   1.00
C650   C     0.94906   0.63039   0.57926   0.00000  Uiso   1.00
C651   C     0.92760   0.34544   0.59428   0.00000  Uiso   1.00
C652   C     0.56363   0.36596   0.56578   0.00000  Uiso   1.00
C653   C     0.66331   0.50168   0.49910   0.00000  Uiso   1.00
C654   C     0.60008   0.65992   0.57288   0.00000  Uiso   1.00
C655   C     0.83669   0.49832   0.50090   0.00000  Uiso   1.00
C656   C     0.90547   0.54128   0.50859   0.00000  Uiso   1.00
C657   C     0.59526   0.45734   0.49971   0.00000  Uiso   1.00
C658   C     0.90818   0.45444   0.49804   0.00000  Uiso   1.00
C659   C     0.59106   0.54422   0.49150   0.00000  Uiso   1.00
C660   C     0.88427   0.49783   0.50319   0.00000  Uiso   1.00
H661   H     0.88545   0.57445   0.51149   0.00000  Uiso   1.00
H662   H     0.50100   0.61984   0.39225   0.00000  Uiso   1.00
H663   H     0.55454   0.58763   0.39809   0.00000  Uiso   1.00
H664   H     0.59511   0.66322   0.40125   0.00000  Uiso   1.00
H665   H     0.55836   0.65982   0.34109   0.00000  Uiso   1.00
H666   H     0.54278   0.36461   0.39742   0.00000  Uiso   1.00
H667   H     0.98301   0.62723   0.59974   0.00000  Uiso   1.00
H668   H     0.92777   0.60163   0.59521   0.00000  Uiso   1.00
H669   H     0.95005   0.37508   0.58430   0.00000  Uiso   1.00
H670   H     0.92195   0.34658   0.63871   0.00000  Uiso   1.00
H671   H     0.89480   0.35080   0.57180   0.00000  Uiso   1.00
H672   H     0.61589   0.42446   0.50093   0.00000  Uiso   1.00
H673   H     0.53385   0.35644   0.58920   0.00000  Uiso   1.00
H674   H     0.57725   0.39971   0.58364   0.00000  Uiso   1.00
H675   H     0.61719   0.66291   0.61380   0.00000  Uiso   1.00
H676   H     0.58496   0.62398   0.56945   0.00000  Uiso   1.00
H677   H     0.62572   0.66341   0.54114   0.00000  Uiso   1.00
H678   H     0.89017   0.42114   0.49585   0.00000  Uiso   1.00
H679   H     0.60825   0.57790   0.48796   0.00000  Uiso   1.00
H680   H     0.96399   0.36194   0.38813   0.00000  Uiso   1.00
H681   H     0.92604   0.40877   0.40849   0.00000  Uiso   1.00
H682   H     0.88027   0.34202   0.45440   0.00000  Uiso   1.00
H683   H     0.87883   0.34461   0.38084   0.00000  Uiso   1.00
H684   H     0.91426   0.63310   0.41593   0.00000  Uiso   1.00
N685   N     0.75000   0.50000   0.35788   0.00000  Uiso   1.00
N686   N     0.75000   0.50000   0.64212   0.00000  Uiso   1.00
O687   O     0.75000   0.42845   0.54562   0.00000  Uiso   1.00
O688   O     0.53466   0.62667   0.46787   0.00000  Uiso   1.00
O689   O     0.95167   0.62755   0.52164   0.00000  Uiso   1.00
O690   O     0.55145   0.37027   0.50944   0.00000  Uiso   1.00
O691   O     0.75000   0.57155   0.45438   0.00000  Uiso   1.00
O692   O     0.75000   0.57155   0.54562   0.00000  Uiso   1.00
O693   O     0.75000   0.42845   0.45438   0.00000  Uiso   1.00
O694   O     0.68392   0.50000   0.54563   0.00000  Uiso   1.00
O695   O     0.81607   0.50000   0.45437   0.00000  Uiso   1.00
O696   O     0.81607   0.50000   0.54563   0.00000  Uiso   1.00
O697   O     0.68392   0.50000   0.45437   0.00000  Uiso   1.00
O698   O     0.96122   0.36931   0.47246   0.00000  Uiso   1.00
Zn699  Zn    0.75000   0.50000   0.56093   0.00000  Uiso   1.00
Zn700  Zn    0.75000   0.50000   0.43907   0.00000  Uiso   1.00
C701   C     0.25005   0.73917   0.49995   0.00000  Uiso   1.00
C702   C     0.11575   0.83457   0.49679   0.00000  Uiso   1.00
C703   C     0.45487   0.78787   0.49534   0.00000  Uiso   1.00
C704   C     0.04443   0.87679   0.49331   0.00000  Uiso   1.00
C705   C     0.45192   0.87525   0.50706   0.00000  Uiso   1.00
C706   C     0.04866   0.78945   0.50003   0.00000  Uiso   1.00
C707   C     0.47664   0.83186   0.50057   0.00000  Uiso   1.00
C708   C     0.02332   0.83270   0.49839   0.00000  Uiso   1.00
C709   C     0.48067   0.74529   0.48750   0.00000  Uiso   1.00
C710   C     0.01816   0.91918   0.49025   0.00000  Uiso   1.00
C711   C     0.47403   0.91877   0.50803   0.00000  Uiso   1.00
C712   C     0.24995   0.92750   0.50005   0.00000  Uiso   1.00
C713   C     0.02689   0.74574   0.50074   0.00000  Uiso   1.00
C714   C     0.25002   0.68818   0.49993   0.00000  Uiso   1.00
C715   C     0.24999   0.97849   0.50007   0.00000  Uiso   1.00
C716   C     0.43970   0.70564   0.41982   0.00000  Uiso   1.00
C717   C     0.40096   0.67085   0.41755   0.00000  Uiso   1.00
C718   C     0.03574   0.95438   0.41031   0.00000  Uiso   1.00
C719   C     0.05951   0.99661   0.38618   0.00000  Uiso   1.00
C720   C     0.44906   0.96373   0.57926   0.00000  Uiso   1.00
C721   C     0.42760   0.67877   0.59428   0.00000  Uiso   1.00
C722   C     0.06363   0.69929   0.56578   0.00000  Uiso   1.00
C723   C     0.16331   0.83502   0.49910   0.00000  Uiso   1.00
C724   C     0.10008   0.99325   0.57288   0.00000  Uiso   1.00
C725   C     0.33669   0.83165   0.50090   0.00000  Uiso   1.00
C726   C     0.40547   0.87461   0.50859   0.00000  Uiso   1.00
C727   C     0.09526   0.79067   0.49971   0.00000  Uiso   1.00
C728   C     0.40818   0.78777   0.49804   0.00000  Uiso   1.00
C729   C     0.09106   0.87755   0.49150   0.00000  Uiso   1.00
C730   C     0.38427   0.83116   0.50319   0.00000  Uiso   1.00
H731   H     0.38545   0.90778   0.51149   0.00000  Uiso   1.00
H732   H     0.00100   0.95317   0.39225   0.00000  Uiso   1.00
H733   H     0.05454   0.92096   0.39809   0.00000  Uiso   1.00
H734   H     0.09511   0.99655   0.40125   0.00000  Uiso   1.00
H735   H     0.05836   0.99316   0.34109   0.00000  Uiso   1.00
H736   H     0.04278   0.69794   0.39742   0.00000  Uiso   1.00
H737   H     0.48301   0.96056   0.59974   0.00000  Uiso   1.00
H738   H     0.42777   0.93496   0.59521   0.00000  Uiso   1.00
H739   H     0.45005   0.70841   0.58430   0.00000  Uiso   1.00
H740   H     0.42195   0.67991   0.63871   0.00000  Uiso   1.00
H741   H     0.39480   0.68414   0.57180   0.00000  Uiso   1.00
H742   H     0.11589   0.75780   0.50093   0.00000  Uiso   1.00
H743   H     0.03385   0.68977   0.58920   0.00000  Uiso   1.00
H744   H     0.07725   0.73304   0.58364   0.00000  Uiso   1.00
H745   H     0.11719   0.99624   0.61380   0.00000  Uiso   1.00
H746   H     0.08496   0.95732   0.56945   0.00000  Uiso   1.00
H747   H     0.12572   0.99675   0.54114   0.00000  Uiso   1.00
H748   H     0.39017   0.75448   0.49585   0.00000  Uiso   1.00
H749   H     0.10825   0.91124   0.48796   0.00000  Uiso   1.00
H750   H     0.46399   0.69528   0.38813   0.00000  Uiso   1.00
H751   H     0.42604   0.74210   0.40849   0.00000  Uiso   1.00
H752   H     0.38027   0.67535   0.45440   0.00000  Uiso   1.00
H753   H     0.37883   0.67795   0.38084   0.00000  Uiso   1.00
H754   H     0.41426   0.96643   0.41593   0.00000  Uiso   1.00
N755   N     0.25000   0.83333   0.35788   0.00000  Uiso   1.00
N756   N     0.25000   0.83333   0.64212   0.00000  Uiso   1.00
O757   O     0.25000   0.76178   0.54562   0.00000  Uiso   1.00
O758   O     0.03466   0.96001   0.46787   0.00000  Uiso   1.00
O759   O     0.45167   0.96088   0.52164   0.00000  Uiso   1.00
O760   O     0.05145   0.70361   0.50944   0.00000  Uiso   1.00
O761   O     0.25000   0.90488   0.45438   0.00000  Uiso   1.00
O762   O     0.25000   0.90488   0.54562   0.00000  Uiso   1.00
O763   O     0.25000   0.76178   0.45438   0.00000  Uiso   1.00
O764   O     0.18392   0.83333   0.54563   0.00000  Uiso   1.00
O765   O     0.31607   0.83333   0.45437   0.00000  Uiso   1.00
O766   O     0.31607   0.83333   0.54563   0.00000  Uiso   1.00
O767   O     0.18392   0.83333   0.45437   0.00000  Uiso   1.00
O768   O     0.46122   0.70265   0.47246   0.00000  Uiso   1.00
Zn769  Zn    0.25000   0.83333   0.56093   0.00000  Uiso   1.00
Zn770  Zn    0.25000   0.83333   0.43907   0.00000  Uiso   1.00
C771   C     0.75005   0.73917   0.49995   0.00000  Uiso   1.00
C772   C     0.61575   0.83457   0.49679   0.00000  Uiso   1.00
C773   C     0.95487   0.78787   0.49534   0.00000  Uiso   1.00
C774   C     0.54443   0.87679   0.49331   0.00000  Uiso   1.00
C775   C     0.95192   0.87525   0.50706   0.00000  Uiso   1.00
C776   C     0.54866   0.78945   0.50003   0.00000  Uiso   1.00
C777   C     0.97664   0.83186   0.50057   0.00000  Uiso   1.00
C778   C     0.52332   0.83270   0.49839   0.00000  Uiso   1.00
C779   C     0.98067   0.74529   0.48750   0.00000  Uiso   1.00
C780   C     0.51816   0.91918   0.49025   0.00000  Uiso   1.00
C781   C     0.97403   0.91877   0.50803   0.00000  Uiso   1.00
C782   C     0.74995   0.92750   0.50005   0.00000  Uiso   1.00
C783   C     0.52689   0.74574   0.50074   0.00000  Uiso   1.00
C784   C     0.75002   0.68818   0.49993   0.00000  Uiso   1.00
C785   C     0.74999   0.97849   0.50007   0.00000  Uiso   1.00
C786   C     0.93970   0.70564   0.41982   0.00000  Uiso   1.00
C787   C     0.90096   0.67085   0.41755   0.00000  Uiso   1.00
C788   C     0.53574   0.95438   0.41031   0.00000  Uiso   1.00
C789   C     0.55951   0.99661   0.38618   0.00000  Uiso   1.00
C790   C     0.94906   0.96373   0.57926   0.00000  Uiso   1.00
C791   C     0.92760   0.67877   0.59428   0.00000  Uiso   1.00
C792   C     0.56363   0.69929   0.56578   0.00000  Uiso   1.00
C793   C     0.66331   0.83502   0.49910   0.00000  Uiso   1.00
C794   C     0.60008   0.99325   0.57288   0.00000  Uiso   1.00
C795   C     0.83669   0.83165   0.50090   0.00000  Uiso   1.00
C796   C     0.90547   0.87461   0.50859   0.00000  Uiso   1.00
C797   C     0.59526   0.79067   0.49971   0.00000  Uiso   1.00
C798   C     0.90818   0.78777   0.49804   0.00000  Uiso   1.00
C799   C     0.59106   0.87755   0.49150   0.00000  Uiso   1.00
C800   C     0.88427   0.83116   0.50319   0.00000  Uiso   1.00
H801   H     0.88545   0.90778   0.51149   0.00000  Uiso   1.00
H802   H     0.50100   0.95317   0.39225   0.00000  Uiso   1.00
H803   H     0.55454   0.92096   0.39809   0.00000  Uiso   1.00
H804   H     0.59511   0.99655   0.40125   0.00000  Uiso   1.00
H805   H     0.55836   0.99316   0.34109   0.00000  Uiso   1.00
H806   H     0.54278   0.69794   0.39742   0.00000  Uiso   1.00
H807   H     0.98301   0.96056   0.59974   0.00000  Uiso   1.00
H808   H     0.92777   0.93496   0.59521   0.00000  Uiso   1.00
H809   H     0.95005   0.70841   0.58430   0.00000  Uiso   1.00
H810   H     0.92195   0.67991   0.63871   0.00000  Uiso   1.00
H811   H     0.89480   0.68414   0.57180   0.00000  Uiso   1.00
H812   H     0.61589   0.75780   0.50093   0.00000  Uiso   1.00
H813   H     0.53385   0.68977   0.58920   0.00000  Uiso   1.00
H814   H     0.57725   0.73304   0.58364   0.00000  Uiso   1.00
H815   H     0.61719   0.99624   0.61380   0.00000  Uiso   1.00
H816   H     0.58496   0.95732   0.56945   0.00000  Uiso   1.00
H817   H     0.62572   0.99675   0.54114   0.00000  Uiso   1.00
H818   H     0.89017   0.75448   0.49585   0.00000  Uiso   1.00
H819   H     0.60825   0.91124   0.48796   0.00000  Uiso   1.00
H820   H     0.96399   0.69528   0.38813   0.00000  Uiso   1.00
H821   H     0.92604   0.74210   0.40849   0.00000  Uiso   1.00
H822   H     0.88027   0.67535   0.45440   0.00000  Uiso   1.00
H823   H     0.87883   0.67795   0.38084   0.00000  Uiso   1.00
H824   H     0.91426   0.96643   0.41593   0.00000  Uiso   1.00
N825   N     0.75000   0.83333   0.35788   0.00000  Uiso   1.00
N826   N     0.75000   0.83333   0.64212   0.00000  Uiso   1.00
O827   O     0.75000   0.76178   0.54562   0.00000  Uiso   1.00
O828   O     0.53466   0.96001   0.46787   0.00000  Uiso   1.00
O829   O     0.95167   0.96088   0.52164   0.00000  Uiso   1.00
O830   O     0.55145   0.70361   0.50944   0.00000  Uiso   1.00
O831   O     0.75000   0.90488   0.45438   0.00000  Uiso   1.00
O832   O     0.75000   0.90488   0.54562   0.00000  Uiso   1.00
O833   O     0.75000   0.76178   0.45438   0.00000  Uiso   1.00
O834   O     0.68392   0.83333   0.54563   0.00000  Uiso   1.00
O835   O     0.81607   0.83333   0.45437   0.00000  Uiso   1.00
O836   O     0.81607   0.83333   0.54563   0.00000  Uiso   1.00
O837   O     0.68392   0.83333   0.45437   0.00000  Uiso   1.00
O838   O     0.96122   0.70265   0.47246   0.00000  Uiso   1.00
Zn839  Zn    0.75000   0.83333   0.56093   0.00000  Uiso   1.00
Zn840  Zn    0.75000   0.83333   0.43907   0.00000  Uiso   1.00
C841   C     0.25005   0.07250   0.83328   0.00000  Uiso   1.00
C842   C     0.11575   0.16790   0.83012   0.00000  Uiso   1.00
C843   C     0.45487   0.12120   0.82867   0.00000  Uiso   1.00
C844   C     0.04443   0.21012   0.82665   0.00000  Uiso   1.00
C845   C     0.45192   0.20859   0.84040   0.00000  Uiso   1.00
C846   C     0.04866   0.12278   0.83337   0.00000  Uiso   1.00
C847   C     0.47664   0.16519   0.83391   0.00000  Uiso   1.00
C848   C     0.02332   0.16603   0.83172   0.00000  Uiso   1.00
C849   C     0.48067   0.07863   0.82083   0.00000  Uiso   1.00
C850   C     0.01816   0.25251   0.82358   0.00000  Uiso   1.00
C851   C     0.47403   0.25211   0.84136   0.00000  Uiso   1.00
C852   C     0.24995   0.26083   0.83339   0.00000  Uiso   1.00
C853   C     0.02689   0.07907   0.83407   0.00000  Uiso   1.00
C854   C     0.25002   0.02151   0.83326   0.00000  Uiso   1.00
C855   C     0.24999   0.31182   0.83341   0.00000  Uiso   1.00
C856   C     0.43970   0.03897   0.75315   0.00000  Uiso   1.00
C857   C     0.40096   0.00418   0.75088   0.00000  Uiso   1.00
C858   C     0.03574   0.28771   0.74365   0.00000  Uiso   1.00
C859   C     0.05951   0.32995   0.71951   0.00000  Uiso   1.00
C860   C     0.44906   0.29706   0.91260   0.00000  Uiso   1.00
C861   C     0.42760   0.01210   0.92761   0.00000  Uiso   1.00
C862   C     0.06363   0.03263   0.89911   0.00000  Uiso   1.00
C863   C     0.16331   0.16835   0.83243   0.00000  Uiso   1.00
C864   C     0.10008   0.32659   0.90622   0.00000  Uiso   1.00
C865   C     0.33669   0.16498   0.83423   0.00000  Uiso   1.00
C866   C     0.40547   0.20794   0.84192   0.00000  Uiso   1.00
C867   C     0.09526   0.12401   0.83304   0.00000  Uiso   1.00
C868   C     0.40818   0.12110   0.83137   0.00000  Uiso   1.00
C869   C     0.09106   0.21089   0.82483   0.00000  Uiso   1.00
C870   C     0.38427   0.16450   0.83652   0.00000  Uiso   1.00
H871   H     0.38545   0.24111   0.84483   0.00000  Uiso   1.00
H872   H     0.00100   0.28651   0.72558   0.00000  Uiso   1.00
H873   H     0.05454   0.25430   0.73142   0.00000  Uiso   1.00
H874   H     0.09511   0.32988   0.73458   0.00000  Uiso   1.00
H875   H     0.05836   0.32649   0.67443   0.00000  Uiso   1.00
H876   H     0.04278   0.03128   0.73075   0.00000  Uiso   1.00
H877   H     0.48301   0.29389   0.93307   0.00000  Uiso   1.00
H878   H     0.42777   0.26829   0.92854   0.00000  Uiso   1.00
H879   H     0.45005   0.04174   0.91764   0.00000  Uiso   1.00
H880   H     0.42195   0.01324   0.97205   0.00000  Uiso   1.00
H881   H     0.39480   0.01747   0.90513   0.00000  Uiso   1.00
H882   H     0.11589   0.09113   0.83427   0.00000  Uiso   1.00
H883   H     0.03385   0.02310   0.92254   0.00000  Uiso   1.00
H884   H     0.07725   0.06637   0.91697   0.00000  Uiso   1.00
H885   H     0.11719   0.32957   0.94713   0.00000  Uiso   1.00
H886   H     0.08496   0.29065   0.90279   0.00000  Uiso   1.00
H887   H     0.12572   0.33008   0.87447   0.00000  Uiso   1.00
H888   H     0.39017   0.08781   0.82918   0.00000  Uiso   1.00
H889   H     0.10825   0.24457   0.82129   0.00000  Uiso   1.00
H890   H     0.46399   0.02861   0.72147   0.00000  Uiso   1.00
H891   H     0.42604   0.07544   0.74182   0.00000  Uiso   1.00
H892   H     0.38027   0.00869   0.78774   0.00000  Uiso   1.00
H893   H     0.37883   0.01128   0.71417   0.00000  Uiso   1.00
H894   H     0.41426   0.29977   0.74926   0.00000  Uiso   1.00
N895   N     0.25000   0.16667   0.69121   0.00000  Uiso   1.00
N896   N     0.25000   0.16667   0.97545   0.00000  Uiso   1.00
O897   O     0.25000   0.09512   0.87895   0.00000  Uiso   1.00
O898   O     0.03466   0.29334   0.80121   0.00000  Uiso   1.00
O899   O     0.45167   0.29421   0.85497   0.00000  Uiso   1.00
O900   O     0.05145   0.03694   0.84277   0.00000  Uiso   1.00
O901   O     0.25000   0.23822   0.78772   0.00000  Uiso   1.00
O902   O     0.25000   0.23822   0.87895   0.00000  Uiso   1.00
O903   O     0.25000   0.09512   0.78772   0.00000  Uiso   1.00
O904   O     0.18392   0.16667   0.87896   0.00000  Uiso   1.00
O905   O     0.31607   0.16667   0.78770   0.00000  Uiso   1.00
O906   O     0.31607   0.16667   0.87896   0.00000  Uiso   1.00
O907   O     0.18392   0.16667   0.78770   0.00000  Uiso   1.00
O908   O     0.46122   0.03598   0.80580   0.00000  Uiso   1.00
Zn909  Zn    0.25000   0.16667   0.89426   0.00000  Uiso   1.00
Zn910  Zn    0.25000   0.16667   0.77241   0.00000  Uiso   1.00
C911   C     0.75005   0.07250   0.83328   0.00000  Uiso   1.00
C912   C     0.61575   0.16790   0.83012   0.00000  Uiso   1.00
C913   C     0.95487   0.12120   0.82867   0.00000  Uiso   1.00
C914   C     0.54443   0.21012   0.82665   0.00000  Uiso   1.00
C915   C     0.95192   0.20859   0.84040   0.00000  Uiso   1.00
C916   C     0.54866   0.12278   0.83337   0.00000  Uiso   1.00
C917   C     0.97664   0.16519   0.83391   0.00000  Uiso   1.00
C918   C     0.52332   0.16603   0.83172   0.00000  Uiso   1.00
C919   C     0.98067   0.07863   0.82083   0.00000  Uiso   1.00
C920   C     0.51816   0.25251   0.82358   0.00000  Uiso   1.00
C921   C     0.97403   0.25211   0.84136   0.00000  Uiso   1.00
C922   C     0.74995   0.26083   0.83339   0.00000  Uiso   1.00
C923   C     0.52689   0.07907   0.83407   0.00000  Uiso   1.00
C924   C     0.75002   0.02151   0.83326   0.00000  Uiso   1.00
C925   C     0.74999   0.31182   0.83341   0.00000  Uiso   1.00
C926   C     0.93970   0.03897   0.75315   0.00000  Uiso   1.00
C927   C     0.90096   0.00418   0.75088   0.00000  Uiso   1.00
C928   C     0.53574   0.28771   0.74365   0.00000  Uiso   1.00
C929   C     0.55951   0.32995   0.71951   0.00000  Uiso   1.00
C930   C     0.94906   0.29706   0.91260   0.00000  Uiso   1.00
C931   C     0.92760   0.01210   0.92761   0.00000  Uiso   1.00
C932   C     0.56363   0.03263   0.89911   0.00000  Uiso   1.00
C933   C     0.66331   0.16835   0.83243   0.00000  Uiso   1.00
C934   C     0.60008   0.32659   0.90622   0.00000  Uiso   1.00
C935   C     0.83669   0.16498   0.83423   0.00000  Uiso   1.00
C936   C     0.90547   0.20794   0.84192   0.00000  Uiso   1.00
C937   C     0.59526   0.12401   0.83304   0.00000  Uiso   1.00
C938   C     0.90818   0.12110   0.83137   0.00000  Uiso   1.00
C939   C     0.59106   0.21089   0.82483   0.00000  Uiso   1.00
C940   C     0.88427   0.16450   0.83652   0.00000  Uiso   1.00
H941   H     0.88545   0.24111   0.84483   0.00000  Uiso   1.00
H942   H     0.50100   0.28651   0.72558   0.00000  Uiso   1.00
H943   H     0.55454   0.25430   0.73142   0.00000  Uiso   1.00
H944   H     0.59511   0.32988   0.73458   0.00000  Uiso   1.00
H945   H     0.55836   0.32649   0.67443   0.00000  Uiso   1.00
H946   H     0.54278   0.03128   0.73075   0.00000  Uiso   1.00
H947   H     0.98301   0.29389   0.93307   0.00000  Uiso   1.00
H948   H     0.92777   0.26829   0.92854   0.00000  Uiso   1.00
H949   H     0.95005   0.04174   0.91764   0.00000  Uiso   1.00
H950   H     0.92195   0.01324   0.97205   0.00000  Uiso   1.00
H951   H     0.89480   0.01747   0.90513   0.00000  Uiso   1.00
H952   H     0.61589   0.09113   0.83427   0.00000  Uiso   1.00
H953   H     0.53385   0.02310   0.92254   0.00000  Uiso   1.00
H954   H     0.57725   0.06637   0.91697   0.00000  Uiso   1.00
H955   H     0.61719   0.32957   0.94713   0.00000  Uiso   1.00
H956   H     0.58496   0.29065   0.90279   0.00000  Uiso   1.00
H957   H     0.62572   0.33008   0.87447   0.00000  Uiso   1.00
H958   H     0.89017   0.08781   0.82918   0.00000  Uiso   1.00
H959   H     0.60825   0.24457   0.82129   0.00000  Uiso   1.00
H960   H     0.96399   0.02861   0.72147   0.00000  Uiso   1.00
H961   H     0.92604   0.07544   0.74182   0.00000  Uiso   1.00
H962   H     0.88027   0.00869   0.78774   0.00000  Uiso   1.00
H963   H     0.87883   0.01128   0.71417   0.00000  Uiso   1.00
H964   H     0.91426   0.29977   0.74926   0.00000  Uiso   1.00
N965   N     0.75000   0.16667   0.69121   0.00000  Uiso   1.00
N966   N     0.75000   0.16667   0.97545   0.00000  Uiso   1.00
O967   O     0.75000   0.09512   0.87895   0.00000  Uiso   1.00
O968   O     0.53466   0.29334   0.80121   0.00000  Uiso   1.00
O969   O     0.95167   0.29421   0.85497   0.00000  Uiso   1.00
O970   O     0.55145   0.03694   0.84277   0.00000  Uiso   1.00
O971   O     0.75000   0.23822   0.78772   0.00000  Uiso   1.00
O972   O     0.75000   0.23822   0.87895   0.00000  Uiso   1.00
O973   O     0.75000   0.09512   0.78772   0.00000  Uiso   1.00
O974   O     0.68392   0.16667   0.87896   0.00000  Uiso   1.00
O975   O     0.81607   0.16667   0.78770   0.00000  Uiso   1.00
O976   O     0.81607   0.16667   0.87896   0.00000  Uiso   1.00
O977   O     0.68392   0.16667   0.78770   0.00000  Uiso   1.00
O978   O     0.96122   0.03598   0.80580   0.00000  Uiso   1.00
Zn979  Zn    0.75000   0.16667   0.89426   0.00000  Uiso   1.00
Zn980  Zn    0.75000   0.16667   0.77241   0.00000  Uiso   1.00
C981   C     0.25005   0.40584   0.83328   0.00000  Uiso   1.00
C982   C     0.11575   0.50123   0.83012   0.00000  Uiso   1.00
C983   C     0.45487   0.45454   0.82867   0.00000  Uiso   1.00
C984   C     0.04443   0.54346   0.82665   0.00000  Uiso   1.00
C985   C     0.45192   0.54192   0.84040   0.00000  Uiso   1.00
C986   C     0.04866   0.45612   0.83337   0.00000  Uiso   1.00
C987   C     0.47664   0.49852   0.83391   0.00000  Uiso   1.00
C988   C     0.02332   0.49936   0.83172   0.00000  Uiso   1.00
C989   C     0.48067   0.41196   0.82083   0.00000  Uiso   1.00
C990   C     0.01816   0.58585   0.82358   0.00000  Uiso   1.00
C991   C     0.47403   0.58544   0.84136   0.00000  Uiso   1.00
C992   C     0.24995   0.59416   0.83339   0.00000  Uiso   1.00
C993   C     0.02689   0.41241   0.83407   0.00000  Uiso   1.00
C994   C     0.25002   0.35484   0.83326   0.00000  Uiso   1.00
C995   C     0.24999   0.64516   0.83341   0.00000  Uiso   1.00
C996   C     0.43970   0.37231   0.75315   0.00000  Uiso   1.00
C997   C     0.40096   0.33752   0.75088   0.00000  Uiso   1.00
C998   C     0.03574   0.62104   0.74365   0.00000  Uiso   1.00
C999   C     0.05951   0.66328   0.71951   0.00000  Uiso   1.00
C1000  C     0.44906   0.63039   0.91260   0.00000  Uiso   1.00
C1001  C     0.42760   0.34544   0.92761   0.00000  Uiso   1.00
C1002  C     0.06363   0.36596   0.89911   0.00000  Uiso   1.00
C1003  C     0.16331   0.50168   0.83243   0.00000  Uiso   1.00
C1004  C     0.10008   0.65992   0.90622   0.00000  Uiso   1.00
C1005  C     0.33669   0.49832   0.83423   0.00000  Uiso   1.00
C1006  C     0.40547   0.54128   0.84192   0.00000  Uiso   1.00
C1007  C     0.09526   0.45734   0.83304   0.00000  Uiso   1.00
C1008  C     0.40818   0.45444   0.83137   0.00000  Uiso   1.00
C1009  C     0.09106   0.54422   0.82483   0.00000  Uiso   1.00
C1010  C     0.38427   0.49783   0.83652   0.00000  Uiso   1.00
H1011  H     0.38545   0.57445   0.84483   0.00000  Uiso   1.00
H1012  H     0.00100   0.61984   0.72558   0.00000  Uiso   1.00
H1013  H     0.05454   0.58763   0.73142   0.00000  Uiso   1.00
H1014  H     0.09511   0.66322   0.73458   0.00000  Uiso   1.00
H1015  H     0.05836   0.65982   0.67443   0.00000  Uiso   1.00
H1016  H     0.04278   0.36461   0.73075   0.00000  Uiso   1.00
H1017  H     0.48301   0.62723   0.93307   0.00000  Uiso   1.00
H1018  H     0.42777   0.60163   0.92854   0.00000  Uiso   1.00
H1019  H     0.45005   0.37508   0.91764   0.00000  Uiso   1.00
H1020  H     0.42195   0.34658   0.97205   0.00000  Uiso   1.00
H1021  H     0.39480   0.35080   0.90513   0.00000  Uiso   1.00
H1022  H     0.11589   0.42446   0.83427   0.00000  Uiso   1.00
H1023  H     0.03385   0.35644   0.92254   0.00000  Uiso   1.00
H1024  H     0.07725   0.39971   0.91697   0.00000  Uiso   1.00
H1025  H     0.11719   0.66291   0.94713   0.00000  Uiso   1.00
H1026  H     0.08496   0.62398   0.90279   0.00000  Uiso   1.00
H1027  H     0.12572   0.66341   0.87447   0.00000  Uiso   1.00
H1028  H     0.39017   0.42114   0.82918   0.00000  Uiso   1.00
H1029  H     0.10825   0.57790   0.82129   0.00000  Uiso   1.00
H1030  H     0.46399   0.36194   0.72147   0.00000  Uiso   1.00
H1031  H     0.42604   0.40877   0.74182   0.00000  Uiso   1.00
H1032  H     0.38027   0.34202   0.78774   0.00000  Uiso   1.00
H1033  H     0.37883   0.34461   0.71417   0.00000  Uiso   1.00
H1034  H     0.41426   0.63310   0.74926   0.00000  Uiso   1.00
N1035  N     0.25000   0.50000   0.69121   0.00000  Uiso   1.00
N1036  N     0.25000   0.50000   0.97545   0.00000  Uiso   1.00
O1037  O     0.25000   0.42845   0.87895   0.00000  Uiso   1.00
O1038  O     0.03466   0.62667   0.80121   0.00000  Uiso   1.00
O1039  O     0.45167   0.62755   0.85497   0.00000  Uiso   1.00
O1040  O     0.05145   0.37027   0.84277   0.00000  Uiso   1.00
O1041  O     0.25000   0.57155   0.78772   0.00000  Uiso   1.00
O1042  O     0.25000   0.57155   0.87895   0.00000  Uiso   1.00
O1043  O     0.25000   0.42845   0.78772   0.00000  Uiso   1.00
O1044  O     0.18392   0.50000   0.87896   0.00000  Uiso   1.00
O1045  O     0.31607   0.50000   0.78770   0.00000  Uiso   1.00
O1046  O     0.31607   0.50000   0.87896   0.00000  Uiso   1.00
O1047  O     0.18392   0.50000   0.78770   0.00000  Uiso   1.00
O1048  O     0.46122   0.36931   0.80580   0.00000  Uiso   1.00
Zn1049 Zn    0.25000   0.50000   0.89426   0.00000  Uiso   1.00
Zn1050 Zn    0.25000   0.50000   0.77241   0.00000  Uiso   1.00
C1051  C     0.75005   0.40584   0.83328   0.00000  Uiso   1.00
C1052  C     0.61575   0.50123   0.83012   0.00000  Uiso   1.00
C1053  C     0.95487   0.45454   0.82867   0.00000  Uiso   1.00
C1054  C     0.54443   0.54346   0.82665   0.00000  Uiso   1.00
C1055  C     0.95192   0.54192   0.84040   0.00000  Uiso   1.00
C1056  C     0.54866   0.45612   0.83337   0.00000  Uiso   1.00
C1057  C     0.97664   0.49852   0.83391   0.00000  Uiso   1.00
C1058  C     0.52332   0.49936   0.83172   0.00000  Uiso   1.00
C1059  C     0.98067   0.41196   0.82083   0.00000  Uiso   1.00
C1060  C     0.51816   0.58585   0.82358   0.00000  Uiso   1.00
C1061  C     0.97403   0.58544   0.84136   0.00000  Uiso   1.00
C1062  C     0.74995   0.59416   0.83339   0.00000  Uiso   1.00
C1063  C     0.52689   0.41241   0.83407   0.00000  Uiso   1.00
C1064  C     0.75002   0.35484   0.83326   0.00000  Uiso   1.00
C1065  C     0.74999   0.64516   0.83341   0.00000  Uiso   1.00
C1066  C     0.93970   0.37231   0.75315   0.00000  Uiso   1.00
C1067  C     0.90096   0.33752   0.75088   0.00000  Uiso   1.00
C1068  C     0.53574   0.62104   0.74365   0.00000  Uiso   1.00
C1069  C     0.55951   0.66328   0.71951   0.00000  Uiso   1.00
C1070  C     0.94906   0.63039   0.91260   0.00000  Uiso   1.00
C1071  C     0.92760   0.34544   0.92761   0.00000  Uiso   1.00
C1072  C     0.56363   0.36596   0.89911   0.00000  Uiso   1.00
C1073  C     0.66331   0.50168   0.83243   0.00000  Uiso   1.00
C1074  C     0.60008   0.65992   0.90622   0.00000  Uiso   1.00
C1075  C     0.83669   0.49832   0.83423   0.00000  Uiso   1.00
C1076  C     0.90547   0.54128   0.84192   0.00000  Uiso   1.00
C1077  C     0.59526   0.45734   0.83304   0.00000  Uiso   1.00
C1078  C     0.90818   0.45444   0.83137   0.00000  Uiso   1.00
C1079  C     0.59106   0.54422   0.82483   0.00000  Uiso   1.00
C1080  C     0.88427   0.49783   0.83652   0.00000  Uiso   1.00
H1081  H     0.88545   0.57445   0.84483   0.00000  Uiso   1.00
H1082  H     0.50100   0.61984   0.72558   0.00000  Uiso   1.00
H1083  H     0.55454   0.58763   0.73142   0.00000  Uiso   1.00
H1084  H     0.59511   0.66322   0.73458   0.00000  Uiso   1.00
H1085  H     0.55836   0.65982   0.67443   0.00000  Uiso   1.00
H1086  H     0.54278   0.36461   0.73075   0.00000  Uiso   1.00
H1087  H     0.98301   0.62723   0.93307   0.00000  Uiso   1.00
H1088  H     0.92777   0.60163   0.92854   0.00000  Uiso   1.00
H1089  H     0.95005   0.37508   0.91764   0.00000  Uiso   1.00
H1090  H     0.92195   0.34658   0.97205   0.00000  Uiso   1.00
H1091  H     0.89480   0.35080   0.90513   0.00000  Uiso   1.00
H1092  H     0.61589   0.42446   0.83427   0.00000  Uiso   1.00
H1093  H     0.53385   0.35644   0.92254   0.00000  Uiso   1.00
H1094  H     0.57725   0.39971   0.91697   0.00000  Uiso   1.00
H1095  H     0.61719   0.66291   0.94713   0.00000  Uiso   1.00
H1096  H     0.58496   0.62398   0.90279   0.00000  Uiso   1.00
H1097  H     0.62572   0.66341   0.87447   0.00000  Uiso   1.00
H1098  H     0.89017   0.42114   0.82918   0.00000  Uiso   1.00
H1099  H     0.60825   0.57790   0.82129   0.00000  Uiso   1.00
H1100  H     0.96399   0.36194   0.72147   0.00000  Uiso   1.00
H1101  H     0.92604   0.40877   0.74182   0.00000  Uiso   1.00
H1102  H     0.88027   0.34202   0.78774   0.00000  Uiso   1.00
H1103  H     0.87883   0.34461   0.71417   0.00000  Uiso   1.00
H1104  H     0.91426   0.63310   0.74926   0.00000  Uiso   1.00
N1105  N     0.75000   0.50000   0.69121   0.00000  Uiso   1.00
N1106  N     0.75000   0.50000   0.97545   0.00000  Uiso   1.00
O1107  O     0.75000   0.42845   0.87895   0.00000  Uiso   1.00
O1108  O     0.53466   0.62667   0.80121   0.00000  Uiso   1.00
O1109  O     0.95167   0.62755   0.85497   0.00000  Uiso   1.00
O1110  O     0.55145   0.37027   0.84277   0.00000  Uiso   1.00
O1111  O     0.75000   0.57155   0.78772   0.00000  Uiso   1.00
O1112  O     0.75000   0.57155   0.87895   0.00000  Uiso   1.00
O1113  O     0.75000   0.42845   0.78772   0.00000  Uiso   1.00
O1114  O     0.68392   0.50000   0.87896   0.00000  Uiso   1.00
O1115  O     0.81607   0.50000   0.78770   0.00000  Uiso   1.00
O1116  O     0.81607   0.50000   0.87896   0.00000  Uiso   1.00
O1117  O     0.68392   0.50000   0.78770   0.00000  Uiso   1.00
O1118  O     0.96122   0.36931   0.80580   0.00000  Uiso   1.00
Zn1119 Zn    0.75000   0.50000   0.89426   0.00000  Uiso   1.00
Zn1120 Zn    0.75000   0.50000   0.77241   0.00000  Uiso   1.00
C1121  C     0.25005   0.73917   0.83328   0.00000  Uiso   1.00
C1122  C     0.11575   0.83457   0.83012   0.00000  Uiso   1.00
C1123  C     0.45487   0.78787   0.82867   0.00000  Uiso   1.00
C1124  C     0.04443   0.87679   0.82665   0.00000  Uiso   1.00
C1125  C     0.45192   0.87525   0.84040   0.00000  Uiso   1.00
C1126  C     0.04866   0.78945   0.83337   0.00000  Uiso   1.00
C1127  C     0.47664   0.83186   0.83391   0.00000  Uiso   1.00
C1128  C     0.02332   0.83270   0.83172   0.00000  Uiso   1.00
C1129  C     0.48067   0.74529   0.82083   0.00000  Uiso   1.00
C1130  C     0.01816   0.91918   0.82358   0.00000  Uiso   1.00
C1131  C     0.47403   0.91877   0.84136   0.00000  Uiso   1.00
C1132  C     0.24995   0.92750   0.83339   0.00000  Uiso   1.00
C1133  C     0.02689   0.74574   0.83407   0.00000  Uiso   1.00
C1134  C     0.25002   0.68818   0.83326   0.00000  Uiso   1.00
C1135  C     0.24999   0.97849   0.83341   0.00000  Uiso   1.00
C1136  C     0.43970   0.70564   0.75315   0.00000  Uiso   1.00
C1137  C     0.40096   0.67085   0.75088   0.00000  Uiso   1.00
C1138  C     0.03574   0.95438   0.74365   0.00000  Uiso   1.00
C1139  C     0.05951   0.99661   0.71951   0.00000  Uiso   1.00
C1140  C     0.44906   0.96373   0.91260   0.00000  Uiso   1.00
C1141  C     0.42760   0.67877   0.92761   0.00000  Uiso   1.00
C1142  C     0.06363   0.69929   0.89911   0.00000  Uiso   1.00
C1143  C     0.16331   0.83502   0.83243   0.00000  Uiso   1.00
C1144  C     0.10008   0.99325   0.90622   0.00000  Uiso   1.00
C1145  C     0.33669   0.83165   0.83423   0.00000  Uiso   1.00
C1146  C     0.40547   0.87461   0.84192   0.00000  Uiso   1.00
C1147  C     0.09526   0.79067   0.83304   0.00000  Uiso   1.00
C1148  C     0.40818   0.78777   0.83137   0.00000  Uiso   1.00
C1149  C     0.09106   0.87755   0.82483   0.00000  Uiso   1.00
C1150  C     0.38427   0.83116   0.83652   0.00000  Uiso   1.00
H1151  H     0.38545   0.90778   0.84483   0.00000  Uiso   1.00
H1152  H     0.00100   0.95317   0.72558   0.00000  Uiso   1.00
H1153  H     0.05454   0.92096   0.73142   0.00000  Uiso   1.00
H1154  H     0.09511   0.99655   0.73458   0.00000  Uiso   1.00
H1155  H     0.05836   0.99316   0.67443   0.00000  Uiso   1.00
H1156  H     0.04278   0.69794   0.73075   0.00000  Uiso   1.00
H1157  H     0.48301   0.96056   0.93307   0.00000  Uiso   1.00
H1158  H     0.42777   0.93496   0.92854   0.00000  Uiso   1.00
H1159  H     0.45005   0.70841   0.91764   0.00000  Uiso   1.00
H1160  H     0.42195   0.67991   0.97205   0.00000  Uiso   1.00
H1161  H     0.39480   0.68414   0.90513   0.00000  Uiso   1.00
H1162  H     0.11589   0.75780   0.83427   0.00000  Uiso   1.00
H1163  H     0.03385   0.68977   0.92254   0.00000  Uiso   1.00
H1164  H     0.07725   0.73304   0.91697   0.00000  Uiso   1.00
H1165  H     0.11719   0.99624   0.94713   0.00000  Uiso   1.00
H1166  H     0.08496   0.95732   0.90279   0.00000  Uiso   1.00
H1167  H     0.12572   0.99675   0.87447   0.00000  Uiso   1.00
H1168  H     0.39017   0.75448   0.82918   0.00000  Uiso   1.00
H1169  H     0.10825   0.91124   0.82129   0.00000  Uiso   1.00
H1170  H     0.46399   0.69528   0.72147   0.00000  Uiso   1.00
H1171  H     0.42604   0.74210   0.74182   0.00000  Uiso   1.00
H1172  H     0.38027   0.67535   0.78774   0.00000  Uiso   1.00
H1173  H     0.37883   0.67795   0.71417   0.00000  Uiso   1.00
H1174  H     0.41426   0.96643   0.74926   0.00000  Uiso   1.00
N1175  N     0.25000   0.83333   0.69121   0.00000  Uiso   1.00
N1176  N     0.25000   0.83333   0.97545   0.00000  Uiso   1.00
O1177  O     0.25000   0.76178   0.87895   0.00000  Uiso   1.00
O1178  O     0.03466   0.96001   0.80121   0.00000  Uiso   1.00
O1179  O     0.45167   0.96088   0.85497   0.00000  Uiso   1.00
O1180  O     0.05145   0.70361   0.84277   0.00000  Uiso   1.00
O1181  O     0.25000   0.90488   0.78772   0.00000  Uiso   1.00
O1182  O     0.25000   0.90488   0.87895   0.00000  Uiso   1.00
O1183  O     0.25000   0.76178   0.78772   0.00000  Uiso   1.00
O1184  O     0.18392   0.83333   0.87896   0.00000  Uiso   1.00
O1185  O     0.31607   0.83333   0.78770   0.00000  Uiso   1.00
O1186  O     0.31607   0.83333   0.87896   0.00000  Uiso   1.00
O1187  O     0.18392   0.83333   0.78770   0.00000  Uiso   1.00
O1188  O     0.46122   0.70265   0.80580   0.00000  Uiso   1.00
Zn1189 Zn    0.25000   0.83333   0.89426   0.00000  Uiso   1.00
Zn1190 Zn    0.25000   0.83333   0.77241   0.00000  Uiso   1.00
C1191  C     0.75005   0.73917   0.83328   0.00000  Uiso   1.00
C1192  C     0.61575   0.83457   0.83012   0.00000  Uiso   1.00
C1193  C     0.95487   0.78787   0.82867   0.00000  Uiso   1.00
C1194  C     0.54443   0.87679   0.82665   0.00000  Uiso   1.00
C1195  C     0.95192   0.87525   0.84040   0.00000  Uiso   1.00
C1196  C     0.54866   0.78945   0.83337   0.00000  Uiso   1.00
C1197  C     0.97664   0.83186   0.83391   0.00000  Uiso   1.00
C1198  C     0.52332   0.83270   0.83172   0.00000  Uiso   1.00
C1199  C     0.98067   0.74529   0.82083   0.00000  Uiso   1.00
C1200  C     0.51816   0.91918   0.82358   0.00000  Uiso   1.00
C1201  C     0.97403   0.91877   0.84136   0.00000  Uiso   1.00
C1202  C     0.74995   0.92750   0.83339   0.00000  Uiso   1.00
C1203  C     0.52689   0.74574   0.83407   0.00000  Uiso   1.00
C1204  C     0.75002   0.68818   0.83326   0.00000  Uiso   1.00
C1205  C     0.74999   0.97849   0.83341   0.00000  Uiso   1.00
C1206  C     0.93970   0.70564   0.75315   0.00000  Uiso   1.00
C1207  C     0.90096   0.67085   0.75088   0.00000  Uiso   1.00
C1208  C     0.53574   0.95438   0.74365   0.00000  Uiso   1.00
C1209  C     0.55951   0.99661   0.71951   0.00000  Uiso   1.00
C1210  C     0.94906   0.96373   0.91260   0.00000  Uiso   1.00
C1211  C     0.92760   0.67877   0.92761   0.00000  Uiso   1.00
C1212  C     0.56363   0.69929   0.89911   0.00000  Uiso   1.00
C1213  C     0.66331   0.83502   0.83243   0.00000  Uiso   1.00
C1214  C     0.60008   0.99325   0.90622   0.00000  Uiso   1.00
C1215  C     0.83669   0.83165   0.83423   0.00000  Uiso   1.00
C1216  C     0.90547   0.87461   0.84192   0.00000  Uiso   1.00
C1217  C     0.59526   0.79067   0.83304   0.00000  Uiso   1.00
C1218  C     0.90818   0.78777   0.83137   0.00000  Uiso   1.00
C1219  C     0.59106   0.87755   0.82483   0.00000  Uiso   1.00
C1220  C     0.88427   0.83116   0.83652   0.00000  Uiso   1.00
H1221  H     0.88545   0.90778   0.84483   0.00000  Uiso   1.00
H1222  H     0.50100   0.95317   0.72558   0.00000  Uiso   1.00
H1223  H     0.55454   0.92096   0.73142   0.00000  Uiso   1.00
H1224  H     0.59511   0.99655   0.73458   0.00000  Uiso   1.00
H1225  H     0.55836   0.99316   0.67443   0.00000  Uiso   1.00
H1226  H     0.54278   0.69794   0.73075   0.00000  Uiso   1.00
H1227  H     0.98301   0.96056   0.93307   0.00000  Uiso   1.00
H1228  H     0.92777   0.93496   0.92854   0.00000  Uiso   1.00
H1229  H     0.95005   0.70841   0.91764   0.00000  Uiso   1.00
H1230  H     0.92195   0.67991   0.97205   0.00000  Uiso   1.00
H1231  H     0.89480   0.68414   0.90513   0.00000  Uiso   1.00
H1232  H     0.61589   0.75780   0.83427   0.00000  Uiso   1.00
H1233  H     0.53385   0.68977   0.92254   0.00000  Uiso   1.00
H1234  H     0.57725   0.73304   0.91697   0.00000  Uiso   1.00
H1235  H     0.61719   0.99624   0.94713   0.00000  Uiso   1.00
H1236  H     0.58496   0.95732   0.90279   0.00000  Uiso   1.00
H1237  H     0.62572   0.99675   0.87447   0.00000  Uiso   1.00
H1238  H     0.89017   0.75448   0.82918   0.00000  Uiso   1.00
H1239  H     0.60825   0.91124   0.82129   0.00000  Uiso   1.00
H1240  H     0.96399   0.69528   0.72147   0.00000  Uiso   1.00
H1241  H     0.92604   0.74210   0.74182   0.00000  Uiso   1.00
H1242  H     0.88027   0.67535   0.78774   0.00000  Uiso   1.00
H1243  H     0.87883   0.67795   0.71417   0.00000  Uiso   1.00
H1244  H     0.91426   0.96643   0.74926   0.00000  Uiso   1.00
N1245  N     0.75000   0.83333   0.69121   0.00000  Uiso   1.00
N1246  N     0.75000   0.83333   0.97545   0.00000  Uiso   1.00
O1247  O     0.75000   0.76178   0.87895   0.00000  Uiso   1.00
O1248  O     0.53466   0.96001   0.80121   0.00000  Uiso   1.00
O1249  O     0.95167   0.96088   0.85497   0.00000  Uiso   1.00
O1250  O     0.55145   0.70361   0.84277   0.00000  Uiso   1.00
O1251  O     0.75000   0.90488   0.78772   0.00000  Uiso   1.00
O1252  O     0.75000   0.90488   0.87895   0.00000  Uiso   1.00
O1253  O     0.75000   0.76178   0.78772   0.00000  Uiso   1.00
O1254  O     0.68392   0.83333   0.87896   0.00000  Uiso   1.00
O1255  O     0.81607   0.83333   0.78770   0.00000  Uiso   1.00
O1256  O     0.81607   0.83333   0.87896   0.00000  Uiso   1.00
O1257  O     0.68392   0.83333   0.78770   0.00000  Uiso   1.00
O1258  O     0.96122   0.70265   0.80580   0.00000  Uiso   1.00
Zn1259 Zn    0.75000   0.83333   0.89426   0.00000  Uiso   1.00
Zn1260 Zn    0.75000   0.83333   0.77241   0.00000  Uiso   1.00
loop_
_geom_bond_atom_site_label_1
_geom_bond_atom_site_label_2
_geom_bond_distance
_geom_bond_site_symmetry_2
_ccdc_geom_bond_type
C1     O63     1.278   .     A
C1     C14     1.416   .     S
C1     O57     1.277   .     A
C2     C27     1.382   .     A
C2     C23     1.416   .     S
C2     C29     1.387   .     A
C3     C28     1.394   .     A
C3     C7      1.403   .     A
C3     C9      1.406   .     A
C4     C29     1.391   .     A
C4     C8      1.400   .     A
C4     C10     1.395   .     A
C5     C11     1.393   .     A
C5     C26     1.385   .     A
C5     C7      1.404   .     A
C6     C8      1.399   .     A
C6     C13     1.393   .     A
C6     C27     1.389   .     A
C7     C78     1.393   .     S
C8     C77     1.393   1_455 S
C9     O68     1.377   .     S
C9     C83     1.404   .     S
C10    O58     1.371   .     S
C10    C81     1.397   1_455 S
C11    O59     1.373   .     S
C11    C80     1.397   .     S
C12    C15     1.416   .     S
C12    O62     1.278   .     A
C12    O61     1.277   .     A
C13    O60     1.374   .     S
C13    C79     1.404   1_455 S
C14    C295    1.195   1_545 S
C15    C154    1.195   .     S
C16    O68     1.418   .     S
C16    H50     1.107   .     S
C16    H51     1.112   .     S
C16    C17     1.526   .     S
C17    H52     1.110   .     S
C17    H53     1.109   .     S
C17    H334    1.110   1_545 S
C18    H33     1.114   .     S
C18    H32     1.113   .     S
C18    C19     1.518   .     S
C18    O58     1.413   .     S
C19    H35     1.103   .     S
C19    H34     1.111   .     S
C19    H176    1.108   .     S
C20    H37     1.114   .     S
C20    H38     1.113   .     S
C20    O59     1.412   .     S
C20    C161    1.519   .     S
C21    H39     1.108   .     S
C21    H40     1.102   .     S
C21    H41     1.111   .     S
C21    C300    1.519   1_545 S
C22    H44     1.114   .     S
C22    O60     1.414   .     S
C22    H43     1.109   .     S
C22    C304    1.524   1_545 S
C23    O67     1.269   .     A
C23    O64     1.273   .     A
C24    H46     1.109   .     S
C24    H45     1.110   .     S
C24    H47     1.111   .     S
C24    C162    1.524   .     S
C25    O65     1.273   .     A
C25    C30     1.416   .     S
C25    O66     1.269   .     A
C26    H31     1.085   .     S
C26    C30     1.382   .     A
C27    H42     1.085   .     S
C28    C30     1.389   .     A
C28    H48     1.083   .     S
C29    H49     1.085   .     S
H36    C299    1.108   1_545 S
H54    C157    1.110   .     S
N55    Zn70    1.980   .     S
N55    N896    1.197   1_554 S
N56    Zn69    1.980   .     S
N56    N475    1.197   .     S
O57    Zn69    2.020   .     S
O61    Zn70    2.020   .     S
O62    Zn69    2.023   .     S
O63    Zn70    2.023   .     S
O64    Zn69    1.991   .     S
O65    Zn70    1.991   .     S
O66    Zn69    2.014   .     S
O67    Zn70    2.014   .     S
C71    O133    1.278   .     A
C71    C84     1.416   .     S
C71    O127    1.277   .     A
C72    C97     1.382   .     A
C72    C93     1.416   .     S
C72    C99     1.387   .     A
C73    C98     1.394   .     A
C73    C77     1.403   .     A
C73    C79     1.406   .     A
C74    C99     1.391   .     A
C74    C78     1.400   .     A
C74    C80     1.395   .     A
C75    C81     1.393   .     A
C75    C96     1.385   .     A
C75    C77     1.404   .     A
C76    C78     1.399   .     A
C76    C83     1.393   .     A
C76    C97     1.389   .     A
C77    C8      1.393   1_655 S
C79    O138    1.377   .     S
C79    C13     1.404   1_655 S
C80    O128    1.371   .     S
C81    O129    1.373   .     S
C81    C10     1.397   1_655 S
C82    C85     1.416   .     S
C82    O132    1.278   .     A
C82    O131    1.277   .     A
C83    O130    1.374   .     S
C84    C365    1.195   1_545 S
C85    C224    1.195   .     S
C86    O138    1.418   .     S
C86    H120    1.107   .     S
C86    H121    1.112   .     S
C86    C87     1.526   .     S
C87    H122    1.110   .     S
C87    H123    1.109   .     S
C87    H404    1.110   1_545 S
C88    H103    1.114   .     S
C88    H102    1.113   .     S
C88    C89     1.518   .     S
C88    O128    1.413   .     S
C89    H105    1.103   .     S
C89    H104    1.111   .     S
C89    H246    1.108   .     S
C90    H107    1.114   .     S
C90    H108    1.113   .     S
C90    O129    1.412   .     S
C90    C231    1.519   .     S
C91    H109    1.108   .     S
C91    H110    1.102   .     S
C91    H111    1.111   .     S
C91    C370    1.519   1_545 S
C92    H114    1.114   .     S
C92    O130    1.414   .     S
C92    H113    1.109   .     S
C92    C374    1.524   1_545 S
C93    O137    1.269   .     A
C93    O134    1.273   .     A
C94    H116    1.109   .     S
C94    H115    1.110   .     S
C94    H117    1.111   .     S
C94    C232    1.524   .     S
C95    O135    1.273   .     A
C95    C100    1.416   .     S
C95    O136    1.269   .     A
C96    H101    1.085   .     S
C96    C100    1.382   .     A
C97    H112    1.085   .     S
C98    C100    1.389   .     A
C98    H118    1.083   .     S
C99    H119    1.085   .     S
H106   C369    1.108   1_545 S
H124   C227    1.110   .     S
N125   Zn140   1.980   .     S
N125   N966    1.197   1_554 S
N126   Zn139   1.980   .     S
N126   N545    1.197   .     S
O127   Zn139   2.020   .     S
O131   Zn140   2.020   .     S
O132   Zn139   2.023   .     S
O133   Zn140   2.023   .     S
O134   Zn139   1.991   .     S
O135   Zn140   1.991   .     S
O136   Zn139   2.014   .     S
O137   Zn140   2.014   .     S
C141   O203    1.278   .     A
C141   C154    1.416   .     S
C141   O197    1.277   .     A
C142   C167    1.382   .     A
C142   C163    1.416   .     S
C142   C169    1.387   .     A
C143   C168    1.394   .     A
C143   C147    1.403   .     A
C143   C149    1.406   .     A
C144   C169    1.391   .     A
C144   C148    1.400   .     A
C144   C150    1.395   .     A
C145   C151    1.393   .     A
C145   C166    1.385   .     A
C145   C147    1.404   .     A
C146   C148    1.399   .     A
C146   C153    1.393   .     A
C146   C167    1.389   .     A
C147   C218    1.393   .     S
C148   C217    1.393   1_455 S
C149   O208    1.377   .     S
C149   C223    1.404   .     S
C150   O198    1.371   .     S
C150   C221    1.397   1_455 S
C151   O199    1.373   .     S
C151   C220    1.397   .     S
C152   C155    1.416   .     S
C152   O202    1.278   .     A
C152   O201    1.277   .     A
C153   O200    1.374   .     S
C153   C219    1.404   1_455 S
C155   C294    1.195   .     S
C156   O208    1.418   .     S
C156   H190    1.107   .     S
C156   H191    1.112   .     S
C156   C157    1.526   .     S
C157   H192    1.110   .     S
C157   H193    1.109   .     S
C158   H173    1.114   .     S
C158   H172    1.113   .     S
C158   C159    1.518   .     S
C158   O198    1.413   .     S
C159   H175    1.103   .     S
C159   H174    1.111   .     S
C159   H316    1.108   .     S
C160   H177    1.114   .     S
C160   H178    1.113   .     S
C160   O199    1.412   .     S
C160   C301    1.519   .     S
C161   H179    1.108   .     S
C161   H180    1.102   .     S
C161   H181    1.111   .     S
C162   H184    1.114   .     S
C162   O200    1.414   .     S
C162   H183    1.109   .     S
C163   O207    1.269   .     A
C163   O204    1.273   .     A
C164   H186    1.109   .     S
C164   H185    1.110   .     S
C164   H187    1.111   .     S
C164   C302    1.524   .     S
C165   O205    1.273   .     A
C165   C170    1.416   .     S
C165   O206    1.269   .     A
C166   H171    1.085   .     S
C166   C170    1.382   .     A
C167   H182    1.085   .     S
C168   C170    1.389   .     A
C168   H188    1.083   .     S
C169   H189    1.085   .     S
H194   C297    1.110   .     S
N195   Zn210   1.980   .     S
N195   N1036   1.197   1_554 S
N196   Zn209   1.980   .     S
N196   N615    1.197   .     S
O197   Zn209   2.020   .     S
O201   Zn210   2.020   .     S
O202   Zn209   2.023   .     S
O203   Zn210   2.023   .     S
O204   Zn209   1.991   .     S
O205   Zn210   1.991   .     S
O206   Zn209   2.014   .     S
O207   Zn210   2.014   .     S
C211   O273    1.278   .     A
C211   C224    1.416   .     S
C211   O267    1.277   .     A
C212   C237    1.382   .     A
C212   C233    1.416   .     S
C212   C239    1.387   .     A
C213   C238    1.394   .     A
C213   C217    1.403   .     A
C213   C219    1.406   .     A
C214   C239    1.391   .     A
C214   C218    1.400   .     A
C214   C220    1.395   .     A
C215   C221    1.393   .     A
C215   C236    1.385   .     A
C215   C217    1.404   .     A
C216   C218    1.399   .     A
C216   C223    1.393   .     A
C216   C237    1.389   .     A
C217   C148    1.393   1_655 S
C219   O278    1.377   .     S
C219   C153    1.404   1_655 S
C220   O268    1.371   .     S
C221   O269    1.373   .     S
C221   C150    1.397   1_655 S
C222   C225    1.416   .     S
C222   O272    1.278   .     A
C222   O271    1.277   .     A
C223   O270    1.374   .     S
C225   C364    1.195   .     S
C226   O278    1.418   .     S
C226   H260    1.107   .     S
C226   H261    1.112   .     S
C226   C227    1.526   .     S
C227   H262    1.110   .     S
C227   H263    1.109   .     S
C228   H243    1.114   .     S
C228   H242    1.113   .     S
C228   C229    1.518   .     S
C228   O268    1.413   .     S
C229   H245    1.103   .     S
C229   H244    1.111   .     S
C229   H386    1.108   .     S
C230   H247    1.114   .     S
C230   H248    1.113   .     S
C230   O269    1.412   .     S
C230   C371    1.519   .     S
C231   H249    1.108   .     S
C231   H250    1.102   .     S
C231   H251    1.111   .     S
C232   H254    1.114   .     S
C232   O270    1.414   .     S
C232   H253    1.109   .     S
C233   O277    1.269   .     A
C233   O274    1.273   .     A
C234   H256    1.109   .     S
C234   H255    1.110   .     S
C234   H257    1.111   .     S
C234   C372    1.524   .     S
C235   O275    1.273   .     A
C235   C240    1.416   .     S
C235   O276    1.269   .     A
C236   H241    1.085   .     S
C236   C240    1.382   .     A
C237   H252    1.085   .     S
C238   C240    1.389   .     A
C238   H258    1.083   .     S
C239   H259    1.085   .     S
H264   C367    1.110   .     S
N265   Zn280   1.980   .     S
N265   N1106   1.197   1_554 S
N266   Zn279   1.980   .     S
N266   N685    1.197   .     S
O267   Zn279   2.020   .     S
O271   Zn280   2.020   .     S
O272   Zn279   2.023   .     S
O273   Zn280   2.023   .     S
O274   Zn279   1.991   .     S
O275   Zn280   1.991   .     S
O276   Zn279   2.014   .     S
O277   Zn280   2.014   .     S
C281   O343    1.278   .     A
C281   C294    1.416   .     S
C281   O337    1.277   .     A
C282   C307    1.382   .     A
C282   C303    1.416   .     S
C282   C309    1.387   .     A
C283   C308    1.394   .     A
C283   C287    1.403   .     A
C283   C289    1.406   .     A
C284   C309    1.391   .     A
C284   C288    1.400   .     A
C284   C290    1.395   .     A
C285   C291    1.393   .     A
C285   C306    1.385   .     A
C285   C287    1.404   .     A
C286   C288    1.399   .     A
C286   C293    1.393   .     A
C286   C307    1.389   .     A
C287   C358    1.393   .     S
C288   C357    1.393   1_455 S
C289   O348    1.377   .     S
C289   C363    1.404   .     S
C290   O338    1.371   .     S
C290   C361    1.397   1_455 S
C291   O339    1.373   .     S
C291   C360    1.397   .     S
C292   C295    1.416   .     S
C292   O342    1.278   .     A
C292   O341    1.277   .     A
C293   O340    1.374   .     S
C293   C359    1.404   1_455 S
C295   C14     1.195   1_565 S
C296   O348    1.418   .     S
C296   H330    1.107   .     S
C296   H331    1.112   .     S
C296   C297    1.526   .     S
C297   H332    1.110   .     S
C297   H333    1.109   .     S
C298   H313    1.114   .     S
C298   H312    1.113   .     S
C298   C299    1.518   .     S
C298   O338    1.413   .     S
C299   H315    1.103   .     S
C299   H314    1.111   .     S
C299   H36     1.108   1_565 S
C300   H317    1.114   .     S
C300   H318    1.113   .     S
C300   O339    1.412   .     S
C300   C21     1.519   1_565 S
C301   H319    1.108   .     S
C301   H320    1.102   .     S
C301   H321    1.111   .     S
C302   H324    1.114   .     S
C302   O340    1.414   .     S
C302   H323    1.109   .     S
C303   O347    1.269   .     A
C303   O344    1.273   .     A
C304   H326    1.109   .     S
C304   H325    1.110   .     S
C304   H327    1.111   .     S
C304   C22     1.524   1_565 S
C305   O345    1.273   .     A
C305   C310    1.416   .     S
C305   O346    1.269   .     A
C306   H311    1.085   .     S
C306   C310    1.382   .     A
C307   H322    1.085   .     S
C308   C310    1.389   .     A
C308   H328    1.083   .     S
C309   H329    1.085   .     S
H334   C17     1.110   1_565 S
N335   Zn350   1.980   .     S
N335   N1176   1.197   1_554 S
N336   Zn349   1.980   .     S
N336   N755    1.197   .     S
O337   Zn349   2.020   .     S
O341   Zn350   2.020   .     S
O342   Zn349   2.023   .     S
O343   Zn350   2.023   .     S
O344   Zn349   1.991   .     S
O345   Zn350   1.991   .     S
O346   Zn349   2.014   .     S
O347   Zn350   2.014   .     S
C351   O413    1.278   .     A
C351   C364    1.416   .     S
C351   O407    1.277   .     A
C352   C377    1.382   .     A
C352   C373    1.416   .     S
C352   C379    1.387   .     A
C353   C378    1.394   .     A
C353   C357    1.403   .     A
C353   C359    1.406   .     A
C354   C379    1.391   .     A
C354   C358    1.400   .     A
C354   C360    1.395   .     A
C355   C361    1.393   .     A
C355   C376    1.385   .     A
C355   C357    1.404   .     A
C356   C358    1.399   .     A
C356   C363    1.393   .     A
C356   C377    1.389   .     A
C357   C288    1.393   1_655 S
C359   O418    1.377   .     S
C359   C293    1.404   1_655 S
C360   O408    1.371   .     S
C361   O409    1.373   .     S
C361   C290    1.397   1_655 S
C362   C365    1.416   .     S
C362   O412    1.278   .     A
C362   O411    1.277   .     A
C363   O410    1.374   .     S
C365   C84     1.195   1_565 S
C366   O418    1.418   .     S
C366   H400    1.107   .     S
C366   H401    1.112   .     S
C366   C367    1.526   .     S
C367   H402    1.110   .     S
C367   H403    1.109   .     S
C368   H383    1.114   .     S
C368   H382    1.113   .     S
C368   C369    1.518   .     S
C368   O408    1.413   .     S
C369   H385    1.103   .     S
C369   H384    1.111   .     S
C369   H106    1.108   1_565 S
C370   H387    1.114   .     S
C370   H388    1.113   .     S
C370   O409    1.412   .     S
C370   C91     1.519   1_565 S
C371   H389    1.108   .     S
C371   H390    1.102   .     S
C371   H391    1.111   .     S
C372   H394    1.114   .     S
C372   O410    1.414   .     S
C372   H393    1.109   .     S
C373   O417    1.269   .     A
C373   O414    1.273   .     A
C374   H396    1.109   .     S
C374   H395    1.110   .     S
C374   H397    1.111   .     S
C374   C92     1.524   1_565 S
C375   O415    1.273   .     A
C375   C380    1.416   .     S
C375   O416    1.269   .     A
C376   H381    1.085   .     S
C376   C380    1.382   .     A
C377   H392    1.085   .     S
C378   C380    1.389   .     A
C378   H398    1.083   .     S
C379   H399    1.085   .     S
H404   C87     1.110   1_565 S
N405   Zn420   1.980   .     S
N405   N1246   1.197   1_554 S
N406   Zn419   1.980   .     S
N406   N825    1.197   .     S
O407   Zn419   2.020   .     S
O411   Zn420   2.020   .     S
O412   Zn419   2.023   .     S
O413   Zn420   2.023   .     S
O414   Zn419   1.991   .     S
O415   Zn420   1.991   .     S
O416   Zn419   2.014   .     S
O417   Zn420   2.014   .     S
C421   O483    1.278   .     A
C421   C434    1.416   .     S
C421   O477    1.277   .     A
C422   C447    1.382   .     A
C422   C443    1.416   .     S
C422   C449    1.387   .     A
C423   C448    1.394   .     A
C423   C427    1.403   .     A
C423   C429    1.406   .     A
C424   C449    1.391   .     A
C424   C428    1.400   .     A
C424   C430    1.395   .     A
C425   C431    1.393   .     A
C425   C446    1.385   .     A
C425   C427    1.404   .     A
C426   C428    1.399   .     A
C426   C433    1.393   .     A
C426   C447    1.389   .     A
C427   C498    1.393   .     S
C428   C497    1.393   1_455 S
C429   O488    1.377   .     S
C429   C503    1.404   .     S
C430   O478    1.371   .     S
C430   C501    1.397   1_455 S
C431   O479    1.373   .     S
C431   C500    1.397   .     S
C432   C435    1.416   .     S
C432   O482    1.278   .     A
C432   O481    1.277   .     A
C433   O480    1.374   .     S
C433   C499    1.404   1_455 S
C434   C715    1.195   1_545 S
C435   C574    1.195   .     S
C436   O488    1.418   .     S
C436   H470    1.107   .     S
C436   H471    1.112   .     S
C436   C437    1.526   .     S
C437   H472    1.110   .     S
C437   H473    1.109   .     S
C437   H754    1.110   1_545 S
C438   H453    1.114   .     S
C438   H452    1.113   .     S
C438   C439    1.518   .     S
C438   O478    1.413   .     S
C439   H455    1.103   .     S
C439   H454    1.111   .     S
C439   H596    1.108   .     S
C440   H457    1.114   .     S
C440   H458    1.113   .     S
C440   O479    1.412   .     S
C440   C581    1.519   .     S
C441   H459    1.108   .     S
C441   H460    1.102   .     S
C441   H461    1.111   .     S
C441   C720    1.519   1_545 S
C442   H464    1.114   .     S
C442   O480    1.414   .     S
C442   H463    1.109   .     S
C442   C724    1.524   1_545 S
C443   O487    1.269   .     A
C443   O484    1.273   .     A
C444   H466    1.109   .     S
C444   H465    1.110   .     S
C444   H467    1.111   .     S
C444   C582    1.524   .     S
C445   O485    1.273   .     A
C445   C450    1.416   .     S
C445   O486    1.269   .     A
C446   H451    1.085   .     S
C446   C450    1.382   .     A
C447   H462    1.085   .     S
C448   C450    1.389   .     A
C448   H468    1.083   .     S
C449   H469    1.085   .     S
H456   C719    1.108   1_545 S
H474   C577    1.110   .     S
N475   Zn490   1.980   .     S
N476   Zn489   1.980   .     S
N476   N895    1.197   .     S
O477   Zn489   2.020   .     S
O481   Zn490   2.020   .     S
O482   Zn489   2.023   .     S
O483   Zn490   2.023   .     S
O484   Zn489   1.991   .     S
O485   Zn490   1.991   .     S
O486   Zn489   2.014   .     S
O487   Zn490   2.014   .     S
C491   O553    1.278   .     A
C491   C504    1.416   .     S
C491   O547    1.277   .     A
C492   C517    1.382   .     A
C492   C513    1.416   .     S
C492   C519    1.387   .     A
C493   C518    1.394   .     A
C493   C497    1.403   .     A
C493   C499    1.406   .     A
C494   C519    1.391   .     A
C494   C498    1.400   .     A
C494   C500    1.395   .     A
C495   C501    1.393   .     A
C495   C516    1.385   .     A
C495   C497    1.404   .     A
C496   C498    1.399   .     A
C496   C503    1.393   .     A
C496   C517    1.389   .     A
C497   C428    1.393   1_655 S
C499   O558    1.377   .     S
C499   C433    1.404   1_655 S
C500   O548    1.371   .     S
C501   O549    1.373   .     S
C501   C430    1.397   1_655 S
C502   C505    1.416   .     S
C502   O552    1.278   .     A
C502   O551    1.277   .     A
C503   O550    1.374   .     S
C504   C785    1.195   1_545 S
C505   C644    1.195   .     S
C506   O558    1.418   .     S
C506   H540    1.107   .     S
C506   H541    1.112   .     S
C506   C507    1.526   .     S
C507   H542    1.110   .     S
C507   H543    1.109   .     S
C507   H824    1.110   1_545 S
C508   H523    1.114   .     S
C508   H522    1.113   .     S
C508   C509    1.518   .     S
C508   O548    1.413   .     S
C509   H525    1.103   .     S
C509   H524    1.111   .     S
C509   H666    1.108   .     S
C510   H527    1.114   .     S
C510   H528    1.113   .     S
C510   O549    1.412   .     S
C510   C651    1.519   .     S
C511   H529    1.108   .     S
C511   H530    1.102   .     S
C511   H531    1.111   .     S
C511   C790    1.519   1_545 S
C512   H534    1.114   .     S
C512   O550    1.414   .     S
C512   H533    1.109   .     S
C512   C794    1.524   1_545 S
C513   O557    1.269   .     A
C513   O554    1.273   .     A
C514   H536    1.109   .     S
C514   H535    1.110   .     S
C514   H537    1.111   .     S
C514   C652    1.524   .     S
C515   O555    1.273   .     A
C515   C520    1.416   .     S
C515   O556    1.269   .     A
C516   H521    1.085   .     S
C516   C520    1.382   .     A
C517   H532    1.085   .     S
C518   C520    1.389   .     A
C518   H538    1.083   .     S
C519   H539    1.085   .     S
H526   C789    1.108   1_545 S
H544   C647    1.110   .     S
N545   Zn560   1.980   .     S
N546   Zn559   1.980   .     S
N546   N965    1.197   .     S
O547   Zn559   2.020   .     S
O551   Zn560   2.020   .     S
O552   Zn559   2.023   .     S
O553   Zn560   2.023   .     S
O554   Zn559   1.991   .     S
O555   Zn560   1.991   .     S
O556   Zn559   2.014   .     S
O557   Zn560   2.014   .     S
C561   O623    1.278   .     A
C561   C574    1.416   .     S
C561   O617    1.277   .     A
C562   C587    1.382   .     A
C562   C583    1.416   .     S
C562   C589    1.387   .     A
C563   C588    1.394   .     A
C563   C567    1.403   .     A
C563   C569    1.406   .     A
C564   C589    1.391   .     A
C564   C568    1.400   .     A
C564   C570    1.395   .     A
C565   C571    1.393   .     A
C565   C586    1.385   .     A
C565   C567    1.404   .     A
C566   C568    1.399   .     A
C566   C573    1.393   .     A
C566   C587    1.389   .     A
C567   C638    1.393   .     S
C568   C637    1.393   1_455 S
C569   O628    1.377   .     S
C569   C643    1.404   .     S
C570   O618    1.371   .     S
C570   C641    1.397   1_455 S
C571   O619    1.373   .     S
C571   C640    1.397   .     S
C572   C575    1.416   .     S
C572   O622    1.278   .     A
C572   O621    1.277   .     A
C573   O620    1.374   .     S
C573   C639    1.404   1_455 S
C575   C714    1.195   .     S
C576   O628    1.418   .     S
C576   H610    1.107   .     S
C576   H611    1.112   .     S
C576   C577    1.526   .     S
C577   H612    1.110   .     S
C577   H613    1.109   .     S
C578   H593    1.114   .     S
C578   H592    1.113   .     S
C578   C579    1.518   .     S
C578   O618    1.413   .     S
C579   H595    1.103   .     S
C579   H594    1.111   .     S
C579   H736    1.108   .     S
C580   H597    1.114   .     S
C580   H598    1.113   .     S
C580   O619    1.412   .     S
C580   C721    1.519   .     S
C581   H599    1.108   .     S
C581   H600    1.102   .     S
C581   H601    1.111   .     S
C582   H604    1.114   .     S
C582   O620    1.414   .     S
C582   H603    1.109   .     S
C583   O627    1.269   .     A
C583   O624    1.273   .     A
C584   H606    1.109   .     S
C584   H605    1.110   .     S
C584   H607    1.111   .     S
C584   C722    1.524   .     S
C585   O625    1.273   .     A
C585   C590    1.416   .     S
C585   O626    1.269   .     A
C586   H591    1.085   .     S
C586   C590    1.382   .     A
C587   H602    1.085   .     S
C588   C590    1.389   .     A
C588   H608    1.083   .     S
C589   H609    1.085   .     S
H614   C717    1.110   .     S
N615   Zn630   1.980   .     S
N616   Zn629   1.980   .     S
N616   N1035   1.197   .     S
O617   Zn629   2.020   .     S
O621   Zn630   2.020   .     S
O622   Zn629   2.023   .     S
O623   Zn630   2.023   .     S
O624   Zn629   1.991   .     S
O625   Zn630   1.991   .     S
O626   Zn629   2.014   .     S
O627   Zn630   2.014   .     S
C631   O693    1.278   .     A
C631   C644    1.416   .     S
C631   O687    1.277   .     A
C632   C657    1.382   .     A
C632   C653    1.416   .     S
C632   C659    1.387   .     A
C633   C658    1.394   .     A
C633   C637    1.403   .     A
C633   C639    1.406   .     A
C634   C659    1.391   .     A
C634   C638    1.400   .     A
C634   C640    1.395   .     A
C635   C641    1.393   .     A
C635   C656    1.385   .     A
C635   C637    1.404   .     A
C636   C638    1.399   .     A
C636   C643    1.393   .     A
C636   C657    1.389   .     A
C637   C568    1.393   1_655 S
C639   O698    1.377   .     S
C639   C573    1.404   1_655 S
C640   O688    1.371   .     S
C641   O689    1.373   .     S
C641   C570    1.397   1_655 S
C642   C645    1.416   .     S
C642   O692    1.278   .     A
C642   O691    1.277   .     A
C643   O690    1.374   .     S
C645   C784    1.195   .     S
C646   O698    1.418   .     S
C646   H680    1.107   .     S
C646   H681    1.112   .     S
C646   C647    1.526   .     S
C647   H682    1.110   .     S
C647   H683    1.109   .     S
C648   H663    1.114   .     S
C648   H662    1.113   .     S
C648   C649    1.518   .     S
C648   O688    1.413   .     S
C649   H665    1.103   .     S
C649   H664    1.111   .     S
C649   H806    1.108   .     S
C650   H667    1.114   .     S
C650   H668    1.113   .     S
C650   O689    1.412   .     S
C650   C791    1.519   .     S
C651   H669    1.108   .     S
C651   H670    1.102   .     S
C651   H671    1.111   .     S
C652   H674    1.114   .     S
C652   O690    1.414   .     S
C652   H673    1.109   .     S
C653   O697    1.269   .     A
C653   O694    1.273   .     A
C654   H676    1.109   .     S
C654   H675    1.110   .     S
C654   H677    1.111   .     S
C654   C792    1.524   .     S
C655   O695    1.273   .     A
C655   C660    1.416   .     S
C655   O696    1.269   .     A
C656   H661    1.085   .     S
C656   C660    1.382   .     A
C657   H672    1.085   .     S
C658   C660    1.389   .     A
C658   H678    1.083   .     S
C659   H679    1.085   .     S
H684   C787    1.110   .     S
N685   Zn700   1.980   .     S
N686   Zn699   1.980   .     S
N686   N1105   1.197   .     S
O687   Zn699   2.020   .     S
O691   Zn700   2.020   .     S
O692   Zn699   2.023   .     S
O693   Zn700   2.023   .     S
O694   Zn699   1.991   .     S
O695   Zn700   1.991   .     S
O696   Zn699   2.014   .     S
O697   Zn700   2.014   .     S
C701   O763    1.278   .     A
C701   C714    1.416   .     S
C701   O757    1.277   .     A
C702   C727    1.382   .     A
C702   C723    1.416   .     S
C702   C729    1.387   .     A
C703   C728    1.394   .     A
C703   C707    1.403   .     A
C703   C709    1.406   .     A
C704   C729    1.391   .     A
C704   C708    1.400   .     A
C704   C710    1.395   .     A
C705   C711    1.393   .     A
C705   C726    1.385   .     A
C705   C707    1.404   .     A
C706   C708    1.399   .     A
C706   C713    1.393   .     A
C706   C727    1.389   .     A
C707   C778    1.393   .     S
C708   C777    1.393   1_455 S
C709   O768    1.377   .     S
C709   C783    1.404   .     S
C710   O758    1.371   .     S
C710   C781    1.397   1_455 S
C711   O759    1.373   .     S
C711   C780    1.397   .     S
C712   C715    1.416   .     S
C712   O762    1.278   .     A
C712   O761    1.277   .     A
C713   O760    1.374   .     S
C713   C779    1.404   1_455 S
C715   C434    1.195   1_565 S
C716   O768    1.418   .     S
C716   H750    1.107   .     S
C716   H751    1.112   .     S
C716   C717    1.526   .     S
C717   H752    1.110   .     S
C717   H753    1.109   .     S
C718   H733    1.114   .     S
C718   H732    1.113   .     S
C718   C719    1.518   .     S
C718   O758    1.413   .     S
C719   H735    1.103   .     S
C719   H734    1.111   .     S
C719   H456    1.108   1_565 S
C720   H737    1.114   .     S
C720   H738    1.113   .     S
C720   O759    1.412   .     S
C720   C441    1.519   1_565 S
C721   H739    1.108   .     S
C721   H740    1.102   .     S
C721   H741    1.111   .     S
C722   H744    1.114   .     S
C722   O760    1.414   .     S
C722   H743    1.109   .     S
C723   O767    1.269   .     A
C723   O764    1.273   .     A
C724   H746    1.109   .     S
C724   H745    1.110   .     S
C724   H747    1.111   .     S
C724   C442    1.524   1_565 S
C725   O765    1.273   .     A
C725   C730    1.416   .     S
C725   O766    1.269   .     A
C726   H731    1.085   .     S
C726   C730    1.382   .     A
C727   H742    1.085   .     S
C728   C730    1.389   .     A
C728   H748    1.083   .     S
C729   H749    1.085   .     S
H754   C437    1.110   1_565 S
N755   Zn770   1.980   .     S
N756   Zn769   1.980   .     S
N756   N1175   1.197   .     S
O757   Zn769   2.020   .     S
O761   Zn770   2.020   .     S
O762   Zn769   2.023   .     S
O763   Zn770   2.023   .     S
O764   Zn769   1.991   .     S
O765   Zn770   1.991   .     S
O766   Zn769   2.014   .     S
O767   Zn770   2.014   .     S
C771   O833    1.278   .     A
C771   C784    1.416   .     S
C771   O827    1.277   .     A
C772   C797    1.382   .     A
C772   C793    1.416   .     S
C772   C799    1.387   .     A
C773   C798    1.394   .     A
C773   C777    1.403   .     A
C773   C779    1.406   .     A
C774   C799    1.391   .     A
C774   C778    1.400   .     A
C774   C780    1.395   .     A
C775   C781    1.393   .     A
C775   C796    1.385   .     A
C775   C777    1.404   .     A
C776   C778    1.399   .     A
C776   C783    1.393   .     A
C776   C797    1.389   .     A
C777   C708    1.393   1_655 S
C779   O838    1.377   .     S
C779   C713    1.404   1_655 S
C780   O828    1.371   .     S
C781   O829    1.373   .     S
C781   C710    1.397   1_655 S
C782   C785    1.416   .     S
C782   O832    1.278   .     A
C782   O831    1.277   .     A
C783   O830    1.374   .     S
C785   C504    1.195   1_565 S
C786   O838    1.418   .     S
C786   H820    1.107   .     S
C786   H821    1.112   .     S
C786   C787    1.526   .     S
C787   H822    1.110   .     S
C787   H823    1.109   .     S
C788   H803    1.114   .     S
C788   H802    1.113   .     S
C788   C789    1.518   .     S
C788   O828    1.413   .     S
C789   H805    1.103   .     S
C789   H804    1.111   .     S
C789   H526    1.108   1_565 S
C790   H807    1.114   .     S
C790   H808    1.113   .     S
C790   O829    1.412   .     S
C790   C511    1.519   1_565 S
C791   H809    1.108   .     S
C791   H810    1.102   .     S
C791   H811    1.111   .     S
C792   H814    1.114   .     S
C792   O830    1.414   .     S
C792   H813    1.109   .     S
C793   O837    1.269   .     A
C793   O834    1.273   .     A
C794   H816    1.109   .     S
C794   H815    1.110   .     S
C794   H817    1.111   .     S
C794   C512    1.524   1_565 S
C795   O835    1.273   .     A
C795   C800    1.416   .     S
C795   O836    1.269   .     A
C796   H801    1.085   .     S
C796   C800    1.382   .     A
C797   H812    1.085   .     S
C798   C800    1.389   .     A
C798   H818    1.083   .     S
C799   H819    1.085   .     S
H824   C507    1.110   1_565 S
N825   Zn840   1.980   .     S
N826   Zn839   1.980   .     S
N826   N1245   1.197   .     S
O827   Zn839   2.020   .     S
O831   Zn840   2.020   .     S
O832   Zn839   2.023   .     S
O833   Zn840   2.023   .     S
O834   Zn839   1.991   .     S
O835   Zn840   1.991   .     S
O836   Zn839   2.014   .     S
O837   Zn840   2.014   .     S
C841   O903    1.278   .     A
C841   C854    1.416   .     S
C841   O897    1.277   .     A
C842   C867    1.382   .     A
C842   C863    1.416   .     S
C842   C869    1.387   .     A
C843   C868    1.394   .     A
C843   C847    1.403   .     A
C843   C849    1.406   .     A
C844   C869    1.391   .     A
C844   C848    1.400   .     A
C844   C850    1.395   .     A
C845   C851    1.393   .     A
C845   C866    1.385   .     A
C845   C847    1.404   .     A
C846   C848    1.399   .     A
C846   C853    1.393   .     A
C846   C867    1.389   .     A
C847   C918    1.393   .     S
C848   C917    1.393   1_455 S
C849   O908    1.377   .     S
C849   C923    1.404   .     S
C850   O898    1.371   .     S
C850   C921    1.397   1_455 S
C851   O899    1.373   .     S
C851   C920    1.397   .     S
C852   C855    1.416   .     S
C852   O902    1.278   .     A
C852   O901    1.277   .     A
C853   O900    1.374   .     S
C853   C919    1.404   1_455 S
C854   C1135   1.195   1_545 S
C855   C994    1.195   .     S
C856   O908    1.418   .     S
C856   H890    1.107   .     S
C856   H891    1.112   .     S
C856   C857    1.526   .     S
C857   H892    1.110   .     S
C857   H893    1.109   .     S
C857   H1174   1.110   1_545 S
C858   H873    1.114   .     S
C858   H872    1.113   .     S
C858   C859    1.518   .     S
C858   O898    1.413   .     S
C859   H875    1.103   .     S
C859   H874    1.111   .     S
C859   H1016   1.108   .     S
C860   H877    1.114   .     S
C860   H878    1.113   .     S
C860   O899    1.412   .     S
C860   C1001   1.519   .     S
C861   H879    1.108   .     S
C861   H880    1.102   .     S
C861   H881    1.111   .     S
C861   C1140   1.519   1_545 S
C862   H884    1.114   .     S
C862   O900    1.414   .     S
C862   H883    1.109   .     S
C862   C1144   1.524   1_545 S
C863   O907    1.269   .     A
C863   O904    1.273   .     A
C864   H886    1.109   .     S
C864   H885    1.110   .     S
C864   H887    1.111   .     S
C864   C1002   1.524   .     S
C865   O905    1.273   .     A
C865   C870    1.416   .     S
C865   O906    1.269   .     A
C866   H871    1.085   .     S
C866   C870    1.382   .     A
C867   H882    1.085   .     S
C868   C870    1.389   .     A
C868   H888    1.083   .     S
C869   H889    1.085   .     S
H876   C1139   1.108   1_545 S
H894   C997    1.110   .     S
N895   Zn910   1.980   .     S
N896   Zn909   1.980   .     S
N896   N55     1.197   1_556 S
O897   Zn909   2.020   .     S
O901   Zn910   2.020   .     S
O902   Zn909   2.023   .     S
O903   Zn910   2.023   .     S
O904   Zn909   1.991   .     S
O905   Zn910   1.991   .     S
O906   Zn909   2.014   .     S
O907   Zn910   2.014   .     S
C911   O973    1.278   .     A
C911   C924    1.416   .     S
C911   O967    1.277   .     A
C912   C937    1.382   .     A
C912   C933    1.416   .     S
C912   C939    1.387   .     A
C913   C938    1.394   .     A
C913   C917    1.403   .     A
C913   C919    1.406   .     A
C914   C939    1.391   .     A
C914   C918    1.400   .     A
C914   C920    1.395   .     A
C915   C921    1.393   .     A
C915   C936    1.385   .     A
C915   C917    1.404   .     A
C916   C918    1.399   .     A
C916   C923    1.393   .     A
C916   C937    1.389   .     A
C917   C848    1.393   1_655 S
C919   O978    1.377   .     S
C919   C853    1.404   1_655 S
C920   O968    1.371   .     S
C921   O969    1.373   .     S
C921   C850    1.397   1_655 S
C922   C925    1.416   .     S
C922   O972    1.278   .     A
C922   O971    1.277   .     A
C923   O970    1.374   .     S
C924   C1205   1.195   1_545 S
C925   C1064   1.195   .     S
C926   O978    1.418   .     S
C926   H960    1.107   .     S
C926   H961    1.112   .     S
C926   C927    1.526   .     S
C927   H962    1.110   .     S
C927   H963    1.109   .     S
C927   H1244   1.110   1_545 S
C928   H943    1.114   .     S
C928   H942    1.113   .     S
C928   C929    1.518   .     S
C928   O968    1.413   .     S
C929   H945    1.103   .     S
C929   H944    1.111   .     S
C929   H1086   1.108   .     S
C930   H947    1.114   .     S
C930   H948    1.113   .     S
C930   O969    1.412   .     S
C930   C1071   1.519   .     S
C931   H949    1.108   .     S
C931   H950    1.102   .     S
C931   H951    1.111   .     S
C931   C1210   1.519   1_545 S
C932   H954    1.114   .     S
C932   O970    1.414   .     S
C932   H953    1.109   .     S
C932   C1214   1.524   1_545 S
C933   O977    1.269   .     A
C933   O974    1.273   .     A
C934   H956    1.109   .     S
C934   H955    1.110   .     S
C934   H957    1.111   .     S
C934   C1072   1.524   .     S
C935   O975    1.273   .     A
C935   C940    1.416   .     S
C935   O976    1.269   .     A
C936   H941    1.085   .     S
C936   C940    1.382   .     A
C937   H952    1.085   .     S
C938   C940    1.389   .     A
C938   H958    1.083   .     S
C939   H959    1.085   .     S
H946   C1209   1.108   1_545 S
H964   C1067   1.110   .     S
N965   Zn980   1.980   .     S
N966   Zn979   1.980   .     S
N966   N125    1.197   1_556 S
O967   Zn979   2.020   .     S
O971   Zn980   2.020   .     S
O972   Zn979   2.023   .     S
O973   Zn980   2.023   .     S
O974   Zn979   1.991   .     S
O975   Zn980   1.991   .     S
O976   Zn979   2.014   .     S
O977   Zn980   2.014   .     S
C981   O1043   1.278   .     A
C981   C994    1.416   .     S
C981   O1037   1.277   .     A
C982   C1007   1.382   .     A
C982   C1003   1.416   .     S
C982   C1009   1.387   .     A
C983   C1008   1.394   .     A
C983   C987    1.403   .     A
C983   C989    1.406   .     A
C984   C1009   1.391   .     A
C984   C988    1.400   .     A
C984   C990    1.395   .     A
C985   C991    1.393   .     A
C985   C1006   1.385   .     A
C985   C987    1.404   .     A
C986   C988    1.399   .     A
C986   C993    1.393   .     A
C986   C1007   1.389   .     A
C987   C1058   1.393   .     S
C988   C1057   1.393   1_455 S
C989   O1048   1.377   .     S
C989   C1063   1.404   .     S
C990   O1038   1.371   .     S
C990   C1061   1.397   1_455 S
C991   O1039   1.373   .     S
C991   C1060   1.397   .     S
C992   C995    1.416   .     S
C992   O1042   1.278   .     A
C992   O1041   1.277   .     A
C993   O1040   1.374   .     S
C993   C1059   1.404   1_455 S
C995   C1134   1.195   .     S
C996   O1048   1.418   .     S
C996   H1030   1.107   .     S
C996   H1031   1.112   .     S
C996   C997    1.526   .     S
C997   H1032   1.110   .     S
C997   H1033   1.109   .     S
C998   H1013   1.114   .     S
C998   H1012   1.113   .     S
C998   C999    1.518   .     S
C998   O1038   1.413   .     S
C999   H1015   1.103   .     S
C999   H1014   1.111   .     S
C999   H1156   1.108   .     S
C1000  H1017   1.114   .     S
C1000  H1018   1.113   .     S
C1000  O1039   1.412   .     S
C1000  C1141   1.519   .     S
C1001  H1019   1.108   .     S
C1001  H1020   1.102   .     S
C1001  H1021   1.111   .     S
C1002  H1024   1.114   .     S
C1002  O1040   1.414   .     S
C1002  H1023   1.109   .     S
C1003  O1047   1.269   .     A
C1003  O1044   1.273   .     A
C1004  H1026   1.109   .     S
C1004  H1025   1.110   .     S
C1004  H1027   1.111   .     S
C1004  C1142   1.524   .     S
C1005  O1045   1.273   .     A
C1005  C1010   1.416   .     S
C1005  O1046   1.269   .     A
C1006  H1011   1.085   .     S
C1006  C1010   1.382   .     A
C1007  H1022   1.085   .     S
C1008  C1010   1.389   .     A
C1008  H1028   1.083   .     S
C1009  H1029   1.085   .     S
H1034  C1137   1.110   .     S
N1035  Zn1050  1.980   .     S
N1036  Zn1049  1.980   .     S
N1036  N195    1.197   1_556 S
O1037  Zn1049  2.020   .     S
O1041  Zn1050  2.020   .     S
O1042  Zn1049  2.023   .     S
O1043  Zn1050  2.023   .     S
O1044  Zn1049  1.991   .     S
O1045  Zn1050  1.991   .     S
O1046  Zn1049  2.014   .     S
O1047  Zn1050  2.014   .     S
C1051  O1113   1.278   .     A
C1051  C1064   1.416   .     S
C1051  O1107   1.277   .     A
C1052  C1077   1.382   .     A
C1052  C1073   1.416   .     S
C1052  C1079   1.387   .     A
C1053  C1078   1.394   .     A
C1053  C1057   1.403   .     A
C1053  C1059   1.406   .     A
C1054  C1079   1.391   .     A
C1054  C1058   1.400   .     A
C1054  C1060   1.395   .     A
C1055  C1061   1.393   .     A
C1055  C1076   1.385   .     A
C1055  C1057   1.404   .     A
C1056  C1058   1.399   .     A
C1056  C1063   1.393   .     A
C1056  C1077   1.389   .     A
C1057  C988    1.393   1_655 S
C1059  O1118   1.377   .     S
C1059  C993    1.404   1_655 S
C1060  O1108   1.371   .     S
C1061  O1109   1.373   .     S
C1061  C990    1.397   1_655 S
C1062  C1065   1.416   .     S
C1062  O1112   1.278   .     A
C1062  O1111   1.277   .     A
C1063  O1110   1.374   .     S
C1065  C1204   1.195   .     S
C1066  O1118   1.418   .     S
C1066  H1100   1.107   .     S
C1066  H1101   1.112   .     S
C1066  C1067   1.526   .     S
C1067  H1102   1.110   .     S
C1067  H1103   1.109   .     S
C1068  H1083   1.114   .     S
C1068  H1082   1.113   .     S
C1068  C1069   1.518   .     S
C1068  O1108   1.413   .     S
C1069  H1085   1.103   .     S
C1069  H1084   1.111   .     S
C1069  H1226   1.108   .     S
C1070  H1087   1.114   .     S
C1070  H1088   1.113   .     S
C1070  O1109   1.412   .     S
C1070  C1211   1.519   .     S
C1071  H1089   1.108   .     S
C1071  H1090   1.102   .     S
C1071  H1091   1.111   .     S
C1072  H1094   1.114   .     S
C1072  O1110   1.414   .     S
C1072  H1093   1.109   .     S
C1073  O1117   1.269   .     A
C1073  O1114   1.273   .     A
C1074  H1096   1.109   .     S
C1074  H1095   1.110   .     S
C1074  H1097   1.111   .     S
C1074  C1212   1.524   .     S
C1075  O1115   1.273   .     A
C1075  C1080   1.416   .     S
C1075  O1116   1.269   .     A
C1076  H1081   1.085   .     S
C1076  C1080   1.382   .     A
C1077  H1092   1.085   .     S
C1078  C1080   1.389   .     A
C1078  H1098   1.083   .     S
C1079  H1099   1.085   .     S
H1104  C1207   1.110   .     S
N1105  Zn1120  1.980   .     S
N1106  Zn1119  1.980   .     S
N1106  N265    1.197   1_556 S
O1107  Zn1119  2.020   .     S
O1111  Zn1120  2.020   .     S
O1112  Zn1119  2.023   .     S
O1113  Zn1120  2.023   .     S
O1114  Zn1119  1.991   .     S
O1115  Zn1120  1.991   .     S
O1116  Zn1119  2.014   .     S
O1117  Zn1120  2.014   .     S
C1121  O1183   1.278   .     A
C1121  C1134   1.416   .     S
C1121  O1177   1.277   .     A
C1122  C1147   1.382   .     A
C1122  C1143   1.416   .     S
C1122  C1149   1.387   .     A
C1123  C1148   1.394   .     A
C1123  C1127   1.403   .     A
C1123  C1129   1.406   .     A
C1124  C1149   1.391   .     A
C1124  C1128   1.400   .     A
C1124  C1130   1.395   .     A
C1125  C1131   1.393   .     A
C1125  C1146   1.385   .     A
C1125  C1127   1.404   .     A
C1126  C1128   1.399   .     A
C1126  C1133   1.393   .     A
C1126  C1147   1.389   .     A
C1127  C1198   1.393   .     S
C1128  C1197   1.393   1_455 S
C1129  O1188   1.377   .     S
C1129  C1203   1.404   .     S
C1130  O1178   1.371   .     S
C1130  C1201   1.397   1_455 S
C1131  O1179   1.373   .     S
C1131  C1200   1.397   .     S
C1132  C1135   1.416   .     S
C1132  O1182   1.278   .     A
C1132  O1181   1.277   .     A
C1133  O1180   1.374   .     S
C1133  C1199   1.404   1_455 S
C1135  C854    1.195   1_565 S
C1136  O1188   1.418   .     S
C1136  H1170   1.107   .     S
C1136  H1171   1.112   .     S
C1136  C1137   1.526   .     S
C1137  H1172   1.110   .     S
C1137  H1173   1.109   .     S
C1138  H1153   1.114   .     S
C1138  H1152   1.113   .     S
C1138  C1139   1.518   .     S
C1138  O1178   1.413   .     S
C1139  H1155   1.103   .     S
C1139  H1154   1.111   .     S
C1139  H876    1.108   1_565 S
C1140  H1157   1.114   .     S
C1140  H1158   1.113   .     S
C1140  O1179   1.412   .     S
C1140  C861    1.519   1_565 S
C1141  H1159   1.108   .     S
C1141  H1160   1.102   .     S
C1141  H1161   1.111   .     S
C1142  H1164   1.114   .     S
C1142  O1180   1.414   .     S
C1142  H1163   1.109   .     S
C1143  O1187   1.269   .     A
C1143  O1184   1.273   .     A
C1144  H1166   1.109   .     S
C1144  H1165   1.110   .     S
C1144  H1167   1.111   .     S
C1144  C862    1.524   1_565 S
C1145  O1185   1.273   .     A
C1145  C1150   1.416   .     S
C1145  O1186   1.269   .     A
C1146  H1151   1.085   .     S
C1146  C1150   1.382   .     A
C1147  H1162   1.085   .     S
C1148  C1150   1.389   .     A
C1148  H1168   1.083   .     S
C1149  H1169   1.085   .     S
H1174  C857    1.110   1_565 S
N1175  Zn1190  1.980   .     S
N1176  Zn1189  1.980   .     S
N1176  N335    1.197   1_556 S
O1177  Zn1189  2.020   .     S
O1181  Zn1190  2.020   .     S
O1182  Zn1189  2.023   .     S
O1183  Zn1190  2.023   .     S
O1184  Zn1189  1.991   .     S
O1185  Zn1190  1.991   .     S
O1186  Zn1189  2.014   .     S
O1187  Zn1190  2.014   .     S
C1191  O1253   1.278   .     A
C1191  C1204   1.416   .     S
C1191  O1247   1.277   .     A
C1192  C1217   1.382   .     A
C1192  C1213   1.416   .     S
C1192  C1219   1.387   .     A
C1193  C1218   1.394   .     A
C1193  C1197   1.403   .     A
C1193  C1199   1.406   .     A
C1194  C1219   1.391   .     A
C1194  C1198   1.400   .     A
C1194  C1200   1.395   .     A
C1195  C1201   1.393   .     A
C1195  C1216   1.385   .     A
C1195  C1197   1.404   .     A
C1196  C1198   1.399   .     A
C1196  C1203   1.393   .     A
C1196  C1217   1.389   .     A
C1197  C1128   1.393   1_655 S
C1199  O1258   1.377   .     S
C1199  C1133   1.404   1_655 S
C1200  O1248   1.371   .     S
C1201  O1249   1.373   .     S
C1201  C1130   1.397   1_655 S
C1202  C1205   1.416   .     S
C1202  O1252   1.278   .     A
C1202  O1251   1.277   .     A
C1203  O1250   1.374   .     S
C1205  C924    1.195   1_565 S
C1206  O1258   1.418   .     S
C1206  H1240   1.107   .     S
C1206  H1241   1.112   .     S
C1206  C1207   1.526   .     S
C1207  H1242   1.110   .     S
C1207  H1243   1.109   .     S
C1208  H1223   1.114   .     S
C1208  H1222   1.113   .     S
C1208  C1209   1.518   .     S
C1208  O1248   1.413   .     S
C1209  H1225   1.103   .     S
C1209  H1224   1.111   .     S
C1209  H946    1.108   1_565 S
C1210  H1227   1.114   .     S
C1210  H1228   1.113   .     S
C1210  O1249   1.412   .     S
C1210  C931    1.519   1_565 S
C1211  H1229   1.108   .     S
C1211  H1230   1.102   .     S
C1211  H1231   1.111   .     S
C1212  H1234   1.114   .     S
C1212  O1250   1.414   .     S
C1212  H1233   1.109   .     S
C1213  O1257   1.269   .     A
C1213  O1254   1.273   .     A
C1214  H1236   1.109   .     S
C1214  H1235   1.110   .     S
C1214  H1237   1.111   .     S
C1214  C932    1.524   1_565 S
C1215  O1255   1.273   .     A
C1215  C1220   1.416   .     S
C1215  O1256   1.269   .     A
C1216  H1221   1.085   .     S
C1216  C1220   1.382   .     A
C1217  H1232   1.085   .     S
C1218  C1220   1.389   .     A
C1218  H1238   1.083   .     S
C1219  H1239   1.085   .     S
H1244  C927    1.110   1_565 S
N1245  Zn1260  1.980   .     S
N1246  Zn1259  1.980   .     S
N1246  N405    1.197   1_556 S
O1247  Zn1259  2.020   .     S
O1251  Zn1260  2.020   .     S
O1252  Zn1259  2.023   .     S
O1253  Zn1260  2.023   .     S
O1254  Zn1259  1.991   .     S
O1255  Zn1260  1.991   .     S
O1256  Zn1259  2.014   .     S
O1257  Zn1260  2.014   .     S
