data_str_m3_o1_o1_pcu_sym.29
_audit_creation_date              2020-01-03
_audit_creation_method            'Materials Studio'
_symmetry_space_group_name_H-M    'P1'
_symmetry_Int_Tables_number       1
_symmetry_cell_setting            triclinic
loop_
_symmetry_equiv_pos_as_xyz
  x,y,z
_cell_length_a                    31.5940
_cell_length_b                    29.1305
_cell_length_c                    29.8657
_cell_angle_alpha                 85.7773
_cell_angle_beta                  90.7636
_cell_angle_gamma                 90.1123
loop_
_atom_site_label
_atom_site_type_symbol
_atom_site_fract_x
_atom_site_fract_y
_atom_site_fract_z
_atom_site_U_iso_or_equiv
_atom_site_adp_type
_atom_site_occupancy
C1     C     0.06177   0.19128   0.16793   0.00000  Uiso   1.00
C2     C     0.49729   0.20918   0.31266   0.00000  Uiso   1.00
C3     C     0.49873   0.20942   0.02720   0.00000  Uiso   1.00
C4     C     0.49934   0.29049   0.30613   0.00000  Uiso   1.00
C5     C     0.24383   0.04050   0.02072   0.00000  Uiso   1.00
C6     C     0.25052   0.45927   0.31276   0.00000  Uiso   1.00
C7     C     0.25464   0.45987   0.02699   0.00000  Uiso   1.00
C8     C     0.24587   0.04035   0.30606   0.00000  Uiso   1.00
C9     C     0.37726   0.16110   0.12684   0.00000  Uiso   1.00
C10    C     0.12127   0.34361   0.20520   0.00000  Uiso   1.00
C11    C     0.11319   0.35857   0.12407   0.00000  Uiso   1.00
C12    C     0.43873   0.30897   0.16517   0.00000  Uiso   1.00
C13    C     0.38367   0.14586   0.20814   0.00000  Uiso   1.00
C14    C     0.10192   0.12561   0.20816   0.00000  Uiso   1.00
C15    C     0.39987   0.37608   0.12726   0.00000  Uiso   1.00
C16    C     0.37743   0.34076   0.20052   0.00000  Uiso   1.00
C17    C     0.11742   0.15095   0.12974   0.00000  Uiso   1.00
C18    C     0.13321   0.40094   0.12669   0.00000  Uiso   1.00
C19    C     0.36505   0.10296   0.20522   0.00000  Uiso   1.00
C20    C     0.35389   0.12065   0.12372   0.00000  Uiso   1.00
C21    C     0.13905   0.38705   0.20861   0.00000  Uiso   1.00
C22    C     0.35445   0.38010   0.20778   0.00000  Uiso   1.00
C23    C     0.43643   0.19492   0.16718   0.00000  Uiso   1.00
C24    C     0.13638   0.10880   0.12424   0.00000  Uiso   1.00
C25    C     0.12498   0.08541   0.20303   0.00000  Uiso   1.00
C26    C     0.37559   0.41465   0.13430   0.00000  Uiso   1.00
C27    C     0.10190   0.33378   0.16441   0.00000  Uiso   1.00
C28    C     0.39665   0.16964   0.16809   0.00000  Uiso   1.00
C29    C     0.40296   0.34046   0.16227   0.00000  Uiso   1.00
C30    C     0.09641   0.15771   0.17021   0.00000  Uiso   1.00
C31    C     0.34631   0.09227   0.16384   0.00000  Uiso   1.00
C32    C     0.15027   0.41270   0.16834   0.00000  Uiso   1.00
C33    C     0.14692   0.08108   0.16311   0.00000  Uiso   1.00
C34    C     0.06318   0.30616   0.16602   0.00000  Uiso   1.00
C35    C     0.34954   0.41385   0.17177   0.00000  Uiso   1.00
C36    C     0.01039   0.33617   0.03949   0.00000  Uiso   1.00
C37    C     0.48818   0.16430   0.29317   0.00000  Uiso   1.00
C38    C     0.00306   0.16516   0.05461   0.00000  Uiso   1.00
C39    C     0.48829   0.33370   0.27932   0.00000  Uiso   1.00
C40    C     0.23545   0.08520   0.04084   0.00000  Uiso   1.00
C41    C     0.24154   0.41385   0.29442   0.00000  Uiso   1.00
C42    C     0.26613   0.41671   0.05359   0.00000  Uiso   1.00
C43    C     0.24252   0.08377   0.27753   0.00000  Uiso   1.00
C44    C     0.37935   0.19664   0.08834   0.00000  Uiso   1.00
C45    C     0.31199   0.44237   0.16818   0.00000  Uiso   1.00
C46    C     0.12828   0.30653   0.24192   0.00000  Uiso   1.00
C47    C     0.11112   0.33686   0.08033   0.00000  Uiso   1.00
C48    C     0.37674   0.17062   0.24937   0.00000  Uiso   1.00
C49    C     0.08841   0.13530   0.25395   0.00000  Uiso   1.00
C50    C     0.41723   0.37223   0.08177   0.00000  Uiso   1.00
C51    C     0.37155   0.29807   0.23008   0.00000  Uiso   1.00
C52    C     0.12906   0.19045   0.09820   0.00000  Uiso   1.00
C53    C     0.12863   0.43610   0.08836   0.00000  Uiso   1.00
C54    C     0.37020   0.06763   0.24389   0.00000  Uiso   1.00
C55    C     0.34069   0.10783   0.07814   0.00000  Uiso   1.00
C56    C     0.18669   0.05566   0.16554   0.00000  Uiso   1.00
C57    C     0.13080   0.40962   0.25099   0.00000  Uiso   1.00
C58    C     0.34125   0.38854   0.25407   0.00000  Uiso   1.00
C59    C     0.13664   0.09044   0.07874   0.00000  Uiso   1.00
C60    C     0.12259   0.04500   0.23634   0.00000  Uiso   1.00
C61    C     0.38116   0.45846   0.10631   0.00000  Uiso   1.00
C62    C     0.18717   0.44305   0.16730   0.00000  Uiso   1.00
C63    C     0.31174   0.05868   0.16576   0.00000  Uiso   1.00
C64    C     0.00230   0.29079   0.02055   0.00000  Uiso   1.00
H65    H     0.03128   0.40177   0.02950   0.00000  Uiso   1.00
H66    H     0.15074   0.28839   0.30423   0.00000  Uiso   1.00
H67    H     0.10767   0.34400   0.01304   0.00000  Uiso   1.00
H68    H     0.33459   0.19212   0.29347   0.00000  Uiso   1.00
H69    H     0.08930   0.17938   0.30300   0.00000  Uiso   1.00
H70    H     0.44623   0.40407   0.02818   0.00000  Uiso   1.00
H71    H     0.37641   0.26594   0.29225   0.00000  Uiso   1.00
H72    H     0.17485   0.23552   0.07817   0.00000  Uiso   1.00
H73    H     0.09007   0.48252   0.05532   0.00000  Uiso   1.00
H74    H     0.37507   0.05307   0.31087   0.00000  Uiso   1.00
H75    H     0.31435   0.12765   0.01792   0.00000  Uiso   1.00
H76    H     0.45914   0.10223   0.29955   0.00000  Uiso   1.00
H77    H     0.08872   0.42089   0.29907   0.00000  Uiso   1.00
H78    H     0.34213   0.43211   0.30363   0.00000  Uiso   1.00
H79    H     0.12735   0.10228   0.01197   0.00000  Uiso   1.00
H80    H     0.13267   0.01805   0.29979   0.00000  Uiso   1.00
H81    H     0.40730   0.02186   0.10265   0.00000  Uiso   1.00
H82    H     0.04027   0.11087   0.07342   0.00000  Uiso   1.00
H83    H     0.00662   0.38637   0.23646   0.00000  Uiso   1.00
H84    H     0.20980   0.14891   0.03459   0.00000  Uiso   1.00
H85    H     0.21825   0.34951   0.30557   0.00000  Uiso   1.00
H86    H     0.30900   0.36586   0.06531   0.00000  Uiso   1.00
H87    H     0.27194   0.13389   0.24066   0.00000  Uiso   1.00
H88    H     0.36820   0.26233   0.06588   0.00000  Uiso   1.00
N89    N     0.00000   0.25000   0.28573   0.00000  Uiso   1.00
N90    N     0.00000   0.25000   0.04760   0.00000  Uiso   1.00
N91    N     0.25000  -0.00000   0.28573   0.00000  Uiso   1.00
N92    N     0.25000  -0.00000   0.04760   0.00000  Uiso   1.00
O93    O     0.04581   0.20419   0.20487   0.00000  Uiso   1.00
O94    O     0.20420   0.04581   0.12846   0.00000  Uiso   1.00
O95    O     0.20420   0.04581   0.20487   0.00000  Uiso   1.00
O96    O     0.29581   0.45419   0.12846   0.00000  Uiso   1.00
O97    O     0.20420   0.45419   0.12846   0.00000  Uiso   1.00
O98    O     0.29581   0.04581   0.20487   0.00000  Uiso   1.00
O99    O     0.29581   0.04581   0.12846   0.00000  Uiso   1.00
O100   O     0.20420   0.45419   0.20487   0.00000  Uiso   1.00
O101   O     0.00085   0.34279   0.07755   0.00000  Uiso   1.00
O102   O     0.02841   0.37259   0.01315   0.00000  Uiso   1.00
O103   O     0.00127   0.15625   0.25665   0.00000  Uiso   1.00
O104   O     0.45420   0.29581   0.12846   0.00000  Uiso   1.00
O105   O     0.46312   0.13098   0.31635   0.00000  Uiso   1.00
O106   O     0.47225   0.14685   0.07257   0.00000  Uiso   1.00
O107   O     0.04142   0.14153   0.05505   0.00000  Uiso   1.00
O108   O     0.45356   0.35101   0.28391   0.00000  Uiso   1.00
O109   O     0.01815   0.35690   0.25221   0.00000  Uiso   1.00
O110   O     0.25053   0.09301   0.07698   0.00000  Uiso   1.00
O111   O     0.21138   0.11981   0.01800   0.00000  Uiso   1.00
O112   O     0.25151   0.40603   0.25669   0.00000  Uiso   1.00
O113   O     0.22037   0.37949   0.32064   0.00000  Uiso   1.00
O114   O     0.24112   0.39799   0.07986   0.00000  Uiso   1.00
O115   O     0.45420   0.29581   0.20487   0.00000  Uiso   1.00
O116   O     0.30473   0.39555   0.04586   0.00000  Uiso   1.00
O117   O     0.20784   0.10077   0.26847   0.00000  Uiso   1.00
O118   O     0.27889   0.10639   0.26230   0.00000  Uiso   1.00
O119   O     0.39229   0.18687   0.05181   0.00000  Uiso   1.00
O120   O     0.36718   0.24174   0.09469   0.00000  Uiso   1.00
O121   O     0.12136   0.26632   0.23506   0.00000  Uiso   1.00
O122   O     0.14636   0.31676   0.28288   0.00000  Uiso   1.00
O123   O     0.11273   0.29506   0.07992   0.00000  Uiso   1.00
O124   O     0.11019   0.36346   0.03960   0.00000  Uiso   1.00
O125   O     0.40577   0.18835   0.26895   0.00000  Uiso   1.00
O126   O     0.04581   0.20419   0.12846   0.00000  Uiso   1.00
O127   O     0.33580   0.17437   0.26556   0.00000  Uiso   1.00
O128   O     0.06904   0.10625   0.27722   0.00000  Uiso   1.00
O129   O     0.09981   0.17687   0.27135   0.00000  Uiso   1.00
O130   O     0.40908   0.33835   0.06140   0.00000  Uiso   1.00
O131   O     0.44016   0.40871   0.06077   0.00000  Uiso   1.00
O132   O     0.35604   0.26435   0.21418   0.00000  Uiso   1.00
O133   O     0.38363   0.29630   0.27537   0.00000  Uiso   1.00
O134   O     0.10555   0.20340   0.06701   0.00000  Uiso   1.00
O135   O     0.16874   0.21092   0.10303   0.00000  Uiso   1.00
O136   O     0.15535   0.43995   0.05907   0.00000  Uiso   1.00
O137   O     0.45420   0.20419   0.12846   0.00000  Uiso   1.00
O138   O     0.09170   0.46246   0.08449   0.00000  Uiso   1.00
O139   O     0.37510   0.02720   0.23667   0.00000  Uiso   1.00
O140   O     0.37106   0.08036   0.28813   0.00000  Uiso   1.00
O141   O     0.35002   0.07015   0.06575   0.00000  Uiso   1.00
O142   O     0.31951   0.13969   0.04852   0.00000  Uiso   1.00
O143   O     0.15654   0.43478   0.26749   0.00000  Uiso   1.00
O144   O     0.09193   0.40219   0.27200   0.00000  Uiso   1.00
O145   O     0.32267   0.35886   0.27733   0.00000  Uiso   1.00
O146   O     0.35177   0.43035   0.27159   0.00000  Uiso   1.00
O147   O     0.14075   0.04922   0.07499   0.00000  Uiso   1.00
O148   O     0.04581   0.29581   0.20487   0.00000  Uiso   1.00
O149   O     0.12814   0.11935   0.04028   0.00000  Uiso   1.00
O150   O     0.10891   0.00863   0.22419   0.00000  Uiso   1.00
O151   O     0.13606   0.04808   0.28077   0.00000  Uiso   1.00
O152   O     0.36884   0.46220   0.06723   0.00000  Uiso   1.00
O153   O     0.40129   0.49521   0.12537   0.00000  Uiso   1.00
O154   O     0.04581   0.29581   0.12846   0.00000  Uiso   1.00
O155   O     0.45420   0.20419   0.20487   0.00000  Uiso   1.00
O156   O     0.29581   0.45419   0.20487   0.00000  Uiso   1.00
Zn157  Zn    0.00000   0.25000   0.21771   0.00000  Uiso   1.00
Zn158  Zn    0.00000   0.25000   0.11563   0.00000  Uiso   1.00
Zn159  Zn    0.25000  -0.00000   0.21771   0.00000  Uiso   1.00
Zn160  Zn    0.25000  -0.00000   0.11563   0.00000  Uiso   1.00
C161   C     0.56177   0.19128   0.16793   0.00000  Uiso   1.00
C162   C     0.99729   0.20918   0.31266   0.00000  Uiso   1.00
C163   C     0.99873   0.20942   0.02720   0.00000  Uiso   1.00
C164   C     0.99934   0.29049   0.30613   0.00000  Uiso   1.00
C165   C     0.74383   0.04050   0.02072   0.00000  Uiso   1.00
C166   C     0.75052   0.45927   0.31276   0.00000  Uiso   1.00
C167   C     0.75464   0.45987   0.02699   0.00000  Uiso   1.00
C168   C     0.74587   0.04035   0.30606   0.00000  Uiso   1.00
C169   C     0.87726   0.16110   0.12684   0.00000  Uiso   1.00
C170   C     0.62127   0.34361   0.20520   0.00000  Uiso   1.00
C171   C     0.61319   0.35857   0.12407   0.00000  Uiso   1.00
C172   C     0.93873   0.30897   0.16517   0.00000  Uiso   1.00
C173   C     0.88367   0.14586   0.20814   0.00000  Uiso   1.00
C174   C     0.60192   0.12561   0.20816   0.00000  Uiso   1.00
C175   C     0.89987   0.37608   0.12726   0.00000  Uiso   1.00
C176   C     0.87743   0.34076   0.20052   0.00000  Uiso   1.00
C177   C     0.61742   0.15095   0.12974   0.00000  Uiso   1.00
C178   C     0.63321   0.40094   0.12669   0.00000  Uiso   1.00
C179   C     0.86505   0.10296   0.20522   0.00000  Uiso   1.00
C180   C     0.85389   0.12065   0.12372   0.00000  Uiso   1.00
C181   C     0.63905   0.38705   0.20861   0.00000  Uiso   1.00
C182   C     0.85445   0.38010   0.20778   0.00000  Uiso   1.00
C183   C     0.93643   0.19492   0.16718   0.00000  Uiso   1.00
C184   C     0.63638   0.10880   0.12424   0.00000  Uiso   1.00
C185   C     0.62498   0.08541   0.20303   0.00000  Uiso   1.00
C186   C     0.87559   0.41465   0.13430   0.00000  Uiso   1.00
C187   C     0.60190   0.33378   0.16441   0.00000  Uiso   1.00
C188   C     0.89665   0.16964   0.16809   0.00000  Uiso   1.00
C189   C     0.90296   0.34046   0.16227   0.00000  Uiso   1.00
C190   C     0.59641   0.15771   0.17021   0.00000  Uiso   1.00
C191   C     0.84631   0.09227   0.16384   0.00000  Uiso   1.00
C192   C     0.65027   0.41270   0.16834   0.00000  Uiso   1.00
C193   C     0.64692   0.08108   0.16311   0.00000  Uiso   1.00
C194   C     0.56318   0.30616   0.16602   0.00000  Uiso   1.00
C195   C     0.84954   0.41385   0.17177   0.00000  Uiso   1.00
C196   C     0.51039   0.33617   0.03949   0.00000  Uiso   1.00
C197   C     0.98818   0.16430   0.29317   0.00000  Uiso   1.00
C198   C     0.50306   0.16516   0.05461   0.00000  Uiso   1.00
C199   C     0.98829   0.33370   0.27932   0.00000  Uiso   1.00
C200   C     0.73545   0.08520   0.04084   0.00000  Uiso   1.00
C201   C     0.74154   0.41385   0.29442   0.00000  Uiso   1.00
C202   C     0.76613   0.41671   0.05359   0.00000  Uiso   1.00
C203   C     0.74252   0.08377   0.27753   0.00000  Uiso   1.00
C204   C     0.87935   0.19664   0.08834   0.00000  Uiso   1.00
C205   C     0.81199   0.44237   0.16818   0.00000  Uiso   1.00
C206   C     0.62828   0.30653   0.24192   0.00000  Uiso   1.00
C207   C     0.61112   0.33686   0.08033   0.00000  Uiso   1.00
C208   C     0.87674   0.17062   0.24937   0.00000  Uiso   1.00
C209   C     0.58841   0.13530   0.25395   0.00000  Uiso   1.00
C210   C     0.91723   0.37223   0.08177   0.00000  Uiso   1.00
C211   C     0.87155   0.29807   0.23008   0.00000  Uiso   1.00
C212   C     0.62906   0.19045   0.09820   0.00000  Uiso   1.00
C213   C     0.62863   0.43610   0.08836   0.00000  Uiso   1.00
C214   C     0.87020   0.06763   0.24389   0.00000  Uiso   1.00
C215   C     0.84069   0.10783   0.07814   0.00000  Uiso   1.00
C216   C     0.68669   0.05566   0.16554   0.00000  Uiso   1.00
C217   C     0.63080   0.40962   0.25099   0.00000  Uiso   1.00
C218   C     0.84125   0.38854   0.25407   0.00000  Uiso   1.00
C219   C     0.63664   0.09044   0.07874   0.00000  Uiso   1.00
C220   C     0.62259   0.04500   0.23634   0.00000  Uiso   1.00
C221   C     0.88116   0.45846   0.10631   0.00000  Uiso   1.00
C222   C     0.68717   0.44305   0.16730   0.00000  Uiso   1.00
C223   C     0.81174   0.05868   0.16576   0.00000  Uiso   1.00
C224   C     0.50230   0.29079   0.02055   0.00000  Uiso   1.00
H225   H     0.53128   0.40177   0.02950   0.00000  Uiso   1.00
H226   H     0.65074   0.28839   0.30423   0.00000  Uiso   1.00
H227   H     0.60767   0.34400   0.01304   0.00000  Uiso   1.00
H228   H     0.83459   0.19212   0.29347   0.00000  Uiso   1.00
H229   H     0.58930   0.17938   0.30300   0.00000  Uiso   1.00
H230   H     0.94623   0.40407   0.02818   0.00000  Uiso   1.00
H231   H     0.87641   0.26594   0.29225   0.00000  Uiso   1.00
H232   H     0.67485   0.23552   0.07817   0.00000  Uiso   1.00
H233   H     0.59007   0.48252   0.05532   0.00000  Uiso   1.00
H234   H     0.87507   0.05307   0.31087   0.00000  Uiso   1.00
H235   H     0.81435   0.12765   0.01792   0.00000  Uiso   1.00
H236   H     0.95914   0.10223   0.29955   0.00000  Uiso   1.00
H237   H     0.58872   0.42089   0.29907   0.00000  Uiso   1.00
H238   H     0.84213   0.43211   0.30363   0.00000  Uiso   1.00
H239   H     0.62735   0.10228   0.01197   0.00000  Uiso   1.00
H240   H     0.63267   0.01805   0.29979   0.00000  Uiso   1.00
H241   H     0.90730   0.02186   0.10265   0.00000  Uiso   1.00
H242   H     0.54027   0.11087   0.07342   0.00000  Uiso   1.00
H243   H     0.50662   0.38637   0.23646   0.00000  Uiso   1.00
H244   H     0.70980   0.14891   0.03459   0.00000  Uiso   1.00
H245   H     0.71825   0.34951   0.30557   0.00000  Uiso   1.00
H246   H     0.80900   0.36586   0.06531   0.00000  Uiso   1.00
H247   H     0.77194   0.13389   0.24066   0.00000  Uiso   1.00
H248   H     0.86820   0.26233   0.06588   0.00000  Uiso   1.00
N249   N     0.50000   0.25000   0.28573   0.00000  Uiso   1.00
N250   N     0.50000   0.25000   0.04760   0.00000  Uiso   1.00
N251   N     0.75000  -0.00000   0.28573   0.00000  Uiso   1.00
N252   N     0.75000  -0.00000   0.04760   0.00000  Uiso   1.00
O253   O     0.54581   0.20419   0.20487   0.00000  Uiso   1.00
O254   O     0.70420   0.04581   0.12846   0.00000  Uiso   1.00
O255   O     0.70420   0.04581   0.20487   0.00000  Uiso   1.00
O256   O     0.79581   0.45419   0.12846   0.00000  Uiso   1.00
O257   O     0.70420   0.45419   0.12846   0.00000  Uiso   1.00
O258   O     0.79581   0.04581   0.20487   0.00000  Uiso   1.00
O259   O     0.79581   0.04581   0.12846   0.00000  Uiso   1.00
O260   O     0.70420   0.45419   0.20487   0.00000  Uiso   1.00
O261   O     0.50085   0.34279   0.07755   0.00000  Uiso   1.00
O262   O     0.52841   0.37259   0.01315   0.00000  Uiso   1.00
O263   O     0.50127   0.15625   0.25665   0.00000  Uiso   1.00
O264   O     0.95420   0.29581   0.12846   0.00000  Uiso   1.00
O265   O     0.96312   0.13098   0.31635   0.00000  Uiso   1.00
O266   O     0.97225   0.14685   0.07257   0.00000  Uiso   1.00
O267   O     0.54142   0.14153   0.05505   0.00000  Uiso   1.00
O268   O     0.95356   0.35101   0.28391   0.00000  Uiso   1.00
O269   O     0.51815   0.35690   0.25221   0.00000  Uiso   1.00
O270   O     0.75053   0.09301   0.07698   0.00000  Uiso   1.00
O271   O     0.71138   0.11981   0.01800   0.00000  Uiso   1.00
O272   O     0.75151   0.40603   0.25669   0.00000  Uiso   1.00
O273   O     0.72037   0.37949   0.32064   0.00000  Uiso   1.00
O274   O     0.74112   0.39799   0.07986   0.00000  Uiso   1.00
O275   O     0.95420   0.29581   0.20487   0.00000  Uiso   1.00
O276   O     0.80473   0.39555   0.04586   0.00000  Uiso   1.00
O277   O     0.70784   0.10077   0.26847   0.00000  Uiso   1.00
O278   O     0.77889   0.10639   0.26230   0.00000  Uiso   1.00
O279   O     0.89229   0.18687   0.05181   0.00000  Uiso   1.00
O280   O     0.86718   0.24174   0.09469   0.00000  Uiso   1.00
O281   O     0.62136   0.26632   0.23506   0.00000  Uiso   1.00
O282   O     0.64636   0.31676   0.28288   0.00000  Uiso   1.00
O283   O     0.61273   0.29506   0.07992   0.00000  Uiso   1.00
O284   O     0.61019   0.36346   0.03960   0.00000  Uiso   1.00
O285   O     0.90577   0.18835   0.26895   0.00000  Uiso   1.00
O286   O     0.54581   0.20419   0.12846   0.00000  Uiso   1.00
O287   O     0.83580   0.17437   0.26556   0.00000  Uiso   1.00
O288   O     0.56904   0.10625   0.27722   0.00000  Uiso   1.00
O289   O     0.59981   0.17687   0.27135   0.00000  Uiso   1.00
O290   O     0.90908   0.33835   0.06140   0.00000  Uiso   1.00
O291   O     0.94016   0.40871   0.06077   0.00000  Uiso   1.00
O292   O     0.85604   0.26435   0.21418   0.00000  Uiso   1.00
O293   O     0.88363   0.29630   0.27537   0.00000  Uiso   1.00
O294   O     0.60555   0.20340   0.06701   0.00000  Uiso   1.00
O295   O     0.66874   0.21092   0.10303   0.00000  Uiso   1.00
O296   O     0.65535   0.43995   0.05907   0.00000  Uiso   1.00
O297   O     0.95420   0.20419   0.12846   0.00000  Uiso   1.00
O298   O     0.59170   0.46246   0.08449   0.00000  Uiso   1.00
O299   O     0.87510   0.02720   0.23667   0.00000  Uiso   1.00
O300   O     0.87106   0.08036   0.28813   0.00000  Uiso   1.00
O301   O     0.85002   0.07015   0.06575   0.00000  Uiso   1.00
O302   O     0.81951   0.13969   0.04852   0.00000  Uiso   1.00
O303   O     0.65654   0.43478   0.26749   0.00000  Uiso   1.00
O304   O     0.59193   0.40219   0.27200   0.00000  Uiso   1.00
O305   O     0.82267   0.35886   0.27733   0.00000  Uiso   1.00
O306   O     0.85177   0.43035   0.27159   0.00000  Uiso   1.00
O307   O     0.64075   0.04922   0.07499   0.00000  Uiso   1.00
O308   O     0.54581   0.29581   0.20487   0.00000  Uiso   1.00
O309   O     0.62814   0.11935   0.04028   0.00000  Uiso   1.00
O310   O     0.60891   0.00863   0.22419   0.00000  Uiso   1.00
O311   O     0.63606   0.04808   0.28077   0.00000  Uiso   1.00
O312   O     0.86884   0.46220   0.06723   0.00000  Uiso   1.00
O313   O     0.90129   0.49521   0.12537   0.00000  Uiso   1.00
O314   O     0.54581   0.29581   0.12846   0.00000  Uiso   1.00
O315   O     0.95420   0.20419   0.20487   0.00000  Uiso   1.00
O316   O     0.79581   0.45419   0.20487   0.00000  Uiso   1.00
Zn317  Zn    0.50000   0.25000   0.21771   0.00000  Uiso   1.00
Zn318  Zn    0.50000   0.25000   0.11563   0.00000  Uiso   1.00
Zn319  Zn    0.75000  -0.00000   0.21771   0.00000  Uiso   1.00
Zn320  Zn    0.75000  -0.00000   0.11563   0.00000  Uiso   1.00
C321   C     0.06177   0.69128   0.16793   0.00000  Uiso   1.00
C322   C     0.49729   0.70918   0.31266   0.00000  Uiso   1.00
C323   C     0.49873   0.70942   0.02720   0.00000  Uiso   1.00
C324   C     0.49934   0.79049   0.30613   0.00000  Uiso   1.00
C325   C     0.24383   0.54050   0.02072   0.00000  Uiso   1.00
C326   C     0.25052   0.95927   0.31276   0.00000  Uiso   1.00
C327   C     0.25464   0.95987   0.02699   0.00000  Uiso   1.00
C328   C     0.24587   0.54035   0.30606   0.00000  Uiso   1.00
C329   C     0.37726   0.66110   0.12684   0.00000  Uiso   1.00
C330   C     0.12127   0.84361   0.20520   0.00000  Uiso   1.00
C331   C     0.11319   0.85857   0.12407   0.00000  Uiso   1.00
C332   C     0.43873   0.80897   0.16517   0.00000  Uiso   1.00
C333   C     0.38367   0.64586   0.20814   0.00000  Uiso   1.00
C334   C     0.10192   0.62561   0.20816   0.00000  Uiso   1.00
C335   C     0.39987   0.87608   0.12726   0.00000  Uiso   1.00
C336   C     0.37743   0.84076   0.20052   0.00000  Uiso   1.00
C337   C     0.11742   0.65095   0.12974   0.00000  Uiso   1.00
C338   C     0.13321   0.90094   0.12669   0.00000  Uiso   1.00
C339   C     0.36505   0.60296   0.20522   0.00000  Uiso   1.00
C340   C     0.35389   0.62065   0.12372   0.00000  Uiso   1.00
C341   C     0.13905   0.88705   0.20861   0.00000  Uiso   1.00
C342   C     0.35445   0.88010   0.20778   0.00000  Uiso   1.00
C343   C     0.43643   0.69492   0.16718   0.00000  Uiso   1.00
C344   C     0.13638   0.60880   0.12424   0.00000  Uiso   1.00
C345   C     0.12498   0.58541   0.20303   0.00000  Uiso   1.00
C346   C     0.37559   0.91465   0.13430   0.00000  Uiso   1.00
C347   C     0.10190   0.83378   0.16441   0.00000  Uiso   1.00
C348   C     0.39665   0.66964   0.16809   0.00000  Uiso   1.00
C349   C     0.40296   0.84046   0.16227   0.00000  Uiso   1.00
C350   C     0.09641   0.65771   0.17021   0.00000  Uiso   1.00
C351   C     0.34631   0.59227   0.16384   0.00000  Uiso   1.00
C352   C     0.15027   0.91270   0.16834   0.00000  Uiso   1.00
C353   C     0.14692   0.58108   0.16311   0.00000  Uiso   1.00
C354   C     0.06318   0.80616   0.16602   0.00000  Uiso   1.00
C355   C     0.34954   0.91385   0.17177   0.00000  Uiso   1.00
C356   C     0.01039   0.83617   0.03949   0.00000  Uiso   1.00
C357   C     0.48818   0.66430   0.29317   0.00000  Uiso   1.00
C358   C     0.00306   0.66516   0.05461   0.00000  Uiso   1.00
C359   C     0.48829   0.83370   0.27932   0.00000  Uiso   1.00
C360   C     0.23545   0.58520   0.04084   0.00000  Uiso   1.00
C361   C     0.24154   0.91385   0.29442   0.00000  Uiso   1.00
C362   C     0.26613   0.91671   0.05359   0.00000  Uiso   1.00
C363   C     0.24252   0.58377   0.27753   0.00000  Uiso   1.00
C364   C     0.37935   0.69664   0.08834   0.00000  Uiso   1.00
C365   C     0.31199   0.94237   0.16818   0.00000  Uiso   1.00
C366   C     0.12828   0.80653   0.24192   0.00000  Uiso   1.00
C367   C     0.11112   0.83686   0.08033   0.00000  Uiso   1.00
C368   C     0.37674   0.67062   0.24937   0.00000  Uiso   1.00
C369   C     0.08841   0.63530   0.25395   0.00000  Uiso   1.00
C370   C     0.41723   0.87223   0.08177   0.00000  Uiso   1.00
C371   C     0.37155   0.79807   0.23008   0.00000  Uiso   1.00
C372   C     0.12906   0.69045   0.09820   0.00000  Uiso   1.00
C373   C     0.12863   0.93610   0.08836   0.00000  Uiso   1.00
C374   C     0.37020   0.56763   0.24389   0.00000  Uiso   1.00
C375   C     0.34069   0.60783   0.07814   0.00000  Uiso   1.00
C376   C     0.18669   0.55566   0.16554   0.00000  Uiso   1.00
C377   C     0.13080   0.90962   0.25099   0.00000  Uiso   1.00
C378   C     0.34125   0.88854   0.25407   0.00000  Uiso   1.00
C379   C     0.13664   0.59044   0.07874   0.00000  Uiso   1.00
C380   C     0.12259   0.54500   0.23634   0.00000  Uiso   1.00
C381   C     0.38116   0.95846   0.10631   0.00000  Uiso   1.00
C382   C     0.18717   0.94305   0.16730   0.00000  Uiso   1.00
C383   C     0.31174   0.55868   0.16576   0.00000  Uiso   1.00
C384   C     0.00230   0.79079   0.02055   0.00000  Uiso   1.00
H385   H     0.03128   0.90177   0.02950   0.00000  Uiso   1.00
H386   H     0.15074   0.78839   0.30423   0.00000  Uiso   1.00
H387   H     0.10767   0.84400   0.01304   0.00000  Uiso   1.00
H388   H     0.33459   0.69212   0.29347   0.00000  Uiso   1.00
H389   H     0.08930   0.67938   0.30300   0.00000  Uiso   1.00
H390   H     0.44623   0.90407   0.02818   0.00000  Uiso   1.00
H391   H     0.37641   0.76594   0.29225   0.00000  Uiso   1.00
H392   H     0.17485   0.73552   0.07817   0.00000  Uiso   1.00
H393   H     0.09007   0.98252   0.05532   0.00000  Uiso   1.00
H394   H     0.37507   0.55307   0.31087   0.00000  Uiso   1.00
H395   H     0.31435   0.62765   0.01792   0.00000  Uiso   1.00
H396   H     0.45914   0.60223   0.29955   0.00000  Uiso   1.00
H397   H     0.08872   0.92089   0.29907   0.00000  Uiso   1.00
H398   H     0.34213   0.93211   0.30363   0.00000  Uiso   1.00
H399   H     0.12735   0.60228   0.01197   0.00000  Uiso   1.00
H400   H     0.13267   0.51805   0.29979   0.00000  Uiso   1.00
H401   H     0.40730   0.52186   0.10265   0.00000  Uiso   1.00
H402   H     0.04027   0.61087   0.07342   0.00000  Uiso   1.00
H403   H     0.00662   0.88637   0.23646   0.00000  Uiso   1.00
H404   H     0.20980   0.64891   0.03459   0.00000  Uiso   1.00
H405   H     0.21825   0.84951   0.30557   0.00000  Uiso   1.00
H406   H     0.30900   0.86586   0.06531   0.00000  Uiso   1.00
H407   H     0.27194   0.63389   0.24066   0.00000  Uiso   1.00
H408   H     0.36820   0.76233   0.06588   0.00000  Uiso   1.00
N409   N     0.00000   0.75000   0.28573   0.00000  Uiso   1.00
N410   N     0.00000   0.75000   0.04760   0.00000  Uiso   1.00
N411   N     0.25000   0.50000   0.28573   0.00000  Uiso   1.00
N412   N     0.25000   0.50000   0.04760   0.00000  Uiso   1.00
O413   O     0.04581   0.70419   0.20487   0.00000  Uiso   1.00
O414   O     0.20420   0.54581   0.12846   0.00000  Uiso   1.00
O415   O     0.20420   0.54581   0.20487   0.00000  Uiso   1.00
O416   O     0.29581   0.95419   0.12846   0.00000  Uiso   1.00
O417   O     0.20420   0.95419   0.12846   0.00000  Uiso   1.00
O418   O     0.29581   0.54581   0.20487   0.00000  Uiso   1.00
O419   O     0.29581   0.54581   0.12846   0.00000  Uiso   1.00
O420   O     0.20420   0.95419   0.20487   0.00000  Uiso   1.00
O421   O     0.00085   0.84279   0.07755   0.00000  Uiso   1.00
O422   O     0.02841   0.87259   0.01315   0.00000  Uiso   1.00
O423   O     0.00127   0.65625   0.25665   0.00000  Uiso   1.00
O424   O     0.45420   0.79581   0.12846   0.00000  Uiso   1.00
O425   O     0.46312   0.63098   0.31635   0.00000  Uiso   1.00
O426   O     0.47225   0.64685   0.07257   0.00000  Uiso   1.00
O427   O     0.04142   0.64153   0.05505   0.00000  Uiso   1.00
O428   O     0.45356   0.85101   0.28391   0.00000  Uiso   1.00
O429   O     0.01815   0.85690   0.25221   0.00000  Uiso   1.00
O430   O     0.25053   0.59301   0.07698   0.00000  Uiso   1.00
O431   O     0.21138   0.61981   0.01800   0.00000  Uiso   1.00
O432   O     0.25151   0.90603   0.25669   0.00000  Uiso   1.00
O433   O     0.22037   0.87949   0.32064   0.00000  Uiso   1.00
O434   O     0.24112   0.89799   0.07986   0.00000  Uiso   1.00
O435   O     0.45420   0.79581   0.20487   0.00000  Uiso   1.00
O436   O     0.30473   0.89555   0.04586   0.00000  Uiso   1.00
O437   O     0.20784   0.60077   0.26847   0.00000  Uiso   1.00
O438   O     0.27889   0.60639   0.26230   0.00000  Uiso   1.00
O439   O     0.39229   0.68687   0.05181   0.00000  Uiso   1.00
O440   O     0.36718   0.74174   0.09469   0.00000  Uiso   1.00
O441   O     0.12136   0.76632   0.23506   0.00000  Uiso   1.00
O442   O     0.14636   0.81676   0.28288   0.00000  Uiso   1.00
O443   O     0.11273   0.79506   0.07992   0.00000  Uiso   1.00
O444   O     0.11019   0.86346   0.03960   0.00000  Uiso   1.00
O445   O     0.40577   0.68835   0.26895   0.00000  Uiso   1.00
O446   O     0.04581   0.70419   0.12846   0.00000  Uiso   1.00
O447   O     0.33580   0.67437   0.26556   0.00000  Uiso   1.00
O448   O     0.06904   0.60625   0.27722   0.00000  Uiso   1.00
O449   O     0.09981   0.67687   0.27135   0.00000  Uiso   1.00
O450   O     0.40908   0.83835   0.06140   0.00000  Uiso   1.00
O451   O     0.44016   0.90871   0.06077   0.00000  Uiso   1.00
O452   O     0.35604   0.76435   0.21418   0.00000  Uiso   1.00
O453   O     0.38363   0.79630   0.27537   0.00000  Uiso   1.00
O454   O     0.10555   0.70340   0.06701   0.00000  Uiso   1.00
O455   O     0.16874   0.71092   0.10303   0.00000  Uiso   1.00
O456   O     0.15535   0.93995   0.05907   0.00000  Uiso   1.00
O457   O     0.45420   0.70419   0.12846   0.00000  Uiso   1.00
O458   O     0.09170   0.96246   0.08449   0.00000  Uiso   1.00
O459   O     0.37510   0.52720   0.23667   0.00000  Uiso   1.00
O460   O     0.37106   0.58036   0.28813   0.00000  Uiso   1.00
O461   O     0.35002   0.57015   0.06575   0.00000  Uiso   1.00
O462   O     0.31951   0.63969   0.04852   0.00000  Uiso   1.00
O463   O     0.15654   0.93478   0.26749   0.00000  Uiso   1.00
O464   O     0.09193   0.90219   0.27200   0.00000  Uiso   1.00
O465   O     0.32267   0.85886   0.27733   0.00000  Uiso   1.00
O466   O     0.35177   0.93035   0.27159   0.00000  Uiso   1.00
O467   O     0.14075   0.54922   0.07499   0.00000  Uiso   1.00
O468   O     0.04581   0.79581   0.20487   0.00000  Uiso   1.00
O469   O     0.12814   0.61935   0.04028   0.00000  Uiso   1.00
O470   O     0.10891   0.50863   0.22419   0.00000  Uiso   1.00
O471   O     0.13606   0.54808   0.28077   0.00000  Uiso   1.00
O472   O     0.36884   0.96220   0.06723   0.00000  Uiso   1.00
O473   O     0.40129   0.99521   0.12537   0.00000  Uiso   1.00
O474   O     0.04581   0.79581   0.12846   0.00000  Uiso   1.00
O475   O     0.45420   0.70419   0.20487   0.00000  Uiso   1.00
O476   O     0.29581   0.95419   0.20487   0.00000  Uiso   1.00
Zn477  Zn    0.00000   0.75000   0.21771   0.00000  Uiso   1.00
Zn478  Zn    0.00000   0.75000   0.11563   0.00000  Uiso   1.00
Zn479  Zn    0.25000   0.50000   0.21771   0.00000  Uiso   1.00
Zn480  Zn    0.25000   0.50000   0.11563   0.00000  Uiso   1.00
C481   C     0.56177   0.69128   0.16793   0.00000  Uiso   1.00
C482   C     0.99729   0.70918   0.31266   0.00000  Uiso   1.00
C483   C     0.99873   0.70942   0.02720   0.00000  Uiso   1.00
C484   C     0.99934   0.79049   0.30613   0.00000  Uiso   1.00
C485   C     0.74383   0.54050   0.02072   0.00000  Uiso   1.00
C486   C     0.75052   0.95927   0.31276   0.00000  Uiso   1.00
C487   C     0.75464   0.95987   0.02699   0.00000  Uiso   1.00
C488   C     0.74587   0.54035   0.30606   0.00000  Uiso   1.00
C489   C     0.87726   0.66110   0.12684   0.00000  Uiso   1.00
C490   C     0.62127   0.84361   0.20520   0.00000  Uiso   1.00
C491   C     0.61319   0.85857   0.12407   0.00000  Uiso   1.00
C492   C     0.93873   0.80897   0.16517   0.00000  Uiso   1.00
C493   C     0.88367   0.64586   0.20814   0.00000  Uiso   1.00
C494   C     0.60192   0.62561   0.20816   0.00000  Uiso   1.00
C495   C     0.89987   0.87608   0.12726   0.00000  Uiso   1.00
C496   C     0.87743   0.84076   0.20052   0.00000  Uiso   1.00
C497   C     0.61742   0.65095   0.12974   0.00000  Uiso   1.00
C498   C     0.63321   0.90094   0.12669   0.00000  Uiso   1.00
C499   C     0.86505   0.60296   0.20522   0.00000  Uiso   1.00
C500   C     0.85389   0.62065   0.12372   0.00000  Uiso   1.00
C501   C     0.63905   0.88705   0.20861   0.00000  Uiso   1.00
C502   C     0.85445   0.88010   0.20778   0.00000  Uiso   1.00
C503   C     0.93643   0.69492   0.16718   0.00000  Uiso   1.00
C504   C     0.63638   0.60880   0.12424   0.00000  Uiso   1.00
C505   C     0.62498   0.58541   0.20303   0.00000  Uiso   1.00
C506   C     0.87559   0.91465   0.13430   0.00000  Uiso   1.00
C507   C     0.60190   0.83378   0.16441   0.00000  Uiso   1.00
C508   C     0.89665   0.66964   0.16809   0.00000  Uiso   1.00
C509   C     0.90296   0.84046   0.16227   0.00000  Uiso   1.00
C510   C     0.59641   0.65771   0.17021   0.00000  Uiso   1.00
C511   C     0.84631   0.59227   0.16384   0.00000  Uiso   1.00
C512   C     0.65027   0.91270   0.16834   0.00000  Uiso   1.00
C513   C     0.64692   0.58108   0.16311   0.00000  Uiso   1.00
C514   C     0.56318   0.80616   0.16602   0.00000  Uiso   1.00
C515   C     0.84954   0.91385   0.17177   0.00000  Uiso   1.00
C516   C     0.51039   0.83617   0.03949   0.00000  Uiso   1.00
C517   C     0.98818   0.66430   0.29317   0.00000  Uiso   1.00
C518   C     0.50306   0.66516   0.05461   0.00000  Uiso   1.00
C519   C     0.98829   0.83370   0.27932   0.00000  Uiso   1.00
C520   C     0.73545   0.58520   0.04084   0.00000  Uiso   1.00
C521   C     0.74154   0.91385   0.29442   0.00000  Uiso   1.00
C522   C     0.76613   0.91671   0.05359   0.00000  Uiso   1.00
C523   C     0.74252   0.58377   0.27753   0.00000  Uiso   1.00
C524   C     0.87935   0.69664   0.08834   0.00000  Uiso   1.00
C525   C     0.81199   0.94237   0.16818   0.00000  Uiso   1.00
C526   C     0.62828   0.80653   0.24192   0.00000  Uiso   1.00
C527   C     0.61112   0.83686   0.08033   0.00000  Uiso   1.00
C528   C     0.87674   0.67062   0.24937   0.00000  Uiso   1.00
C529   C     0.58841   0.63530   0.25395   0.00000  Uiso   1.00
C530   C     0.91723   0.87223   0.08177   0.00000  Uiso   1.00
C531   C     0.87155   0.79807   0.23008   0.00000  Uiso   1.00
C532   C     0.62906   0.69045   0.09820   0.00000  Uiso   1.00
C533   C     0.62863   0.93610   0.08836   0.00000  Uiso   1.00
C534   C     0.87020   0.56763   0.24389   0.00000  Uiso   1.00
C535   C     0.84069   0.60783   0.07814   0.00000  Uiso   1.00
C536   C     0.68669   0.55566   0.16554   0.00000  Uiso   1.00
C537   C     0.63080   0.90962   0.25099   0.00000  Uiso   1.00
C538   C     0.84125   0.88854   0.25407   0.00000  Uiso   1.00
C539   C     0.63664   0.59044   0.07874   0.00000  Uiso   1.00
C540   C     0.62259   0.54500   0.23634   0.00000  Uiso   1.00
C541   C     0.88116   0.95846   0.10631   0.00000  Uiso   1.00
C542   C     0.68717   0.94305   0.16730   0.00000  Uiso   1.00
C543   C     0.81174   0.55868   0.16576   0.00000  Uiso   1.00
C544   C     0.50230   0.79079   0.02055   0.00000  Uiso   1.00
H545   H     0.53128   0.90177   0.02950   0.00000  Uiso   1.00
H546   H     0.65074   0.78839   0.30423   0.00000  Uiso   1.00
H547   H     0.60767   0.84400   0.01304   0.00000  Uiso   1.00
H548   H     0.83459   0.69212   0.29347   0.00000  Uiso   1.00
H549   H     0.58930   0.67938   0.30300   0.00000  Uiso   1.00
H550   H     0.94623   0.90407   0.02818   0.00000  Uiso   1.00
H551   H     0.87641   0.76594   0.29225   0.00000  Uiso   1.00
H552   H     0.67485   0.73552   0.07817   0.00000  Uiso   1.00
H553   H     0.59007   0.98252   0.05532   0.00000  Uiso   1.00
H554   H     0.87507   0.55307   0.31087   0.00000  Uiso   1.00
H555   H     0.81435   0.62765   0.01792   0.00000  Uiso   1.00
H556   H     0.95914   0.60223   0.29955   0.00000  Uiso   1.00
H557   H     0.58872   0.92089   0.29907   0.00000  Uiso   1.00
H558   H     0.84213   0.93211   0.30363   0.00000  Uiso   1.00
H559   H     0.62735   0.60228   0.01197   0.00000  Uiso   1.00
H560   H     0.63267   0.51805   0.29979   0.00000  Uiso   1.00
H561   H     0.90730   0.52186   0.10265   0.00000  Uiso   1.00
H562   H     0.54027   0.61087   0.07342   0.00000  Uiso   1.00
H563   H     0.50662   0.88637   0.23646   0.00000  Uiso   1.00
H564   H     0.70980   0.64891   0.03459   0.00000  Uiso   1.00
H565   H     0.71825   0.84951   0.30557   0.00000  Uiso   1.00
H566   H     0.80900   0.86586   0.06531   0.00000  Uiso   1.00
H567   H     0.77194   0.63389   0.24066   0.00000  Uiso   1.00
H568   H     0.86820   0.76233   0.06588   0.00000  Uiso   1.00
N569   N     0.50000   0.75000   0.28573   0.00000  Uiso   1.00
N570   N     0.50000   0.75000   0.04760   0.00000  Uiso   1.00
N571   N     0.75000   0.50000   0.28573   0.00000  Uiso   1.00
N572   N     0.75000   0.50000   0.04760   0.00000  Uiso   1.00
O573   O     0.54581   0.70419   0.20487   0.00000  Uiso   1.00
O574   O     0.70420   0.54581   0.12846   0.00000  Uiso   1.00
O575   O     0.70420   0.54581   0.20487   0.00000  Uiso   1.00
O576   O     0.79581   0.95419   0.12846   0.00000  Uiso   1.00
O577   O     0.70420   0.95419   0.12846   0.00000  Uiso   1.00
O578   O     0.79581   0.54581   0.20487   0.00000  Uiso   1.00
O579   O     0.79581   0.54581   0.12846   0.00000  Uiso   1.00
O580   O     0.70420   0.95419   0.20487   0.00000  Uiso   1.00
O581   O     0.50085   0.84279   0.07755   0.00000  Uiso   1.00
O582   O     0.52841   0.87259   0.01315   0.00000  Uiso   1.00
O583   O     0.50127   0.65625   0.25665   0.00000  Uiso   1.00
O584   O     0.95420   0.79581   0.12846   0.00000  Uiso   1.00
O585   O     0.96312   0.63098   0.31635   0.00000  Uiso   1.00
O586   O     0.97225   0.64685   0.07257   0.00000  Uiso   1.00
O587   O     0.54142   0.64153   0.05505   0.00000  Uiso   1.00
O588   O     0.95356   0.85101   0.28391   0.00000  Uiso   1.00
O589   O     0.51815   0.85690   0.25221   0.00000  Uiso   1.00
O590   O     0.75053   0.59301   0.07698   0.00000  Uiso   1.00
O591   O     0.71138   0.61981   0.01800   0.00000  Uiso   1.00
O592   O     0.75151   0.90603   0.25669   0.00000  Uiso   1.00
O593   O     0.72037   0.87949   0.32064   0.00000  Uiso   1.00
O594   O     0.74112   0.89799   0.07986   0.00000  Uiso   1.00
O595   O     0.95420   0.79581   0.20487   0.00000  Uiso   1.00
O596   O     0.80473   0.89555   0.04586   0.00000  Uiso   1.00
O597   O     0.70784   0.60077   0.26847   0.00000  Uiso   1.00
O598   O     0.77889   0.60639   0.26230   0.00000  Uiso   1.00
O599   O     0.89229   0.68687   0.05181   0.00000  Uiso   1.00
O600   O     0.86718   0.74174   0.09469   0.00000  Uiso   1.00
O601   O     0.62136   0.76632   0.23506   0.00000  Uiso   1.00
O602   O     0.64636   0.81676   0.28288   0.00000  Uiso   1.00
O603   O     0.61273   0.79506   0.07992   0.00000  Uiso   1.00
O604   O     0.61019   0.86346   0.03960   0.00000  Uiso   1.00
O605   O     0.90577   0.68835   0.26895   0.00000  Uiso   1.00
O606   O     0.54581   0.70419   0.12846   0.00000  Uiso   1.00
O607   O     0.83580   0.67437   0.26556   0.00000  Uiso   1.00
O608   O     0.56904   0.60625   0.27722   0.00000  Uiso   1.00
O609   O     0.59981   0.67687   0.27135   0.00000  Uiso   1.00
O610   O     0.90908   0.83835   0.06140   0.00000  Uiso   1.00
O611   O     0.94016   0.90871   0.06077   0.00000  Uiso   1.00
O612   O     0.85604   0.76435   0.21418   0.00000  Uiso   1.00
O613   O     0.88363   0.79630   0.27537   0.00000  Uiso   1.00
O614   O     0.60555   0.70340   0.06701   0.00000  Uiso   1.00
O615   O     0.66874   0.71092   0.10303   0.00000  Uiso   1.00
O616   O     0.65535   0.93995   0.05907   0.00000  Uiso   1.00
O617   O     0.95420   0.70419   0.12846   0.00000  Uiso   1.00
O618   O     0.59170   0.96246   0.08449   0.00000  Uiso   1.00
O619   O     0.87510   0.52720   0.23667   0.00000  Uiso   1.00
O620   O     0.87106   0.58036   0.28813   0.00000  Uiso   1.00
O621   O     0.85002   0.57015   0.06575   0.00000  Uiso   1.00
O622   O     0.81951   0.63969   0.04852   0.00000  Uiso   1.00
O623   O     0.65654   0.93478   0.26749   0.00000  Uiso   1.00
O624   O     0.59193   0.90219   0.27200   0.00000  Uiso   1.00
O625   O     0.82267   0.85886   0.27733   0.00000  Uiso   1.00
O626   O     0.85177   0.93035   0.27159   0.00000  Uiso   1.00
O627   O     0.64075   0.54922   0.07499   0.00000  Uiso   1.00
O628   O     0.54581   0.79581   0.20487   0.00000  Uiso   1.00
O629   O     0.62814   0.61935   0.04028   0.00000  Uiso   1.00
O630   O     0.60891   0.50863   0.22419   0.00000  Uiso   1.00
O631   O     0.63606   0.54808   0.28077   0.00000  Uiso   1.00
O632   O     0.86884   0.96220   0.06723   0.00000  Uiso   1.00
O633   O     0.90129   0.99521   0.12537   0.00000  Uiso   1.00
O634   O     0.54581   0.79581   0.12846   0.00000  Uiso   1.00
O635   O     0.95420   0.70419   0.20487   0.00000  Uiso   1.00
O636   O     0.79581   0.95419   0.20487   0.00000  Uiso   1.00
Zn637  Zn    0.50000   0.75000   0.21771   0.00000  Uiso   1.00
Zn638  Zn    0.50000   0.75000   0.11563   0.00000  Uiso   1.00
Zn639  Zn    0.75000   0.50000   0.21771   0.00000  Uiso   1.00
Zn640  Zn    0.75000   0.50000   0.11563   0.00000  Uiso   1.00
C641   C     0.06177   0.19128   0.50127   0.00000  Uiso   1.00
C642   C     0.49729   0.20918   0.64600   0.00000  Uiso   1.00
C643   C     0.49873   0.20942   0.36053   0.00000  Uiso   1.00
C644   C     0.49934   0.29049   0.63946   0.00000  Uiso   1.00
C645   C     0.24383   0.04050   0.35405   0.00000  Uiso   1.00
C646   C     0.25052   0.45927   0.64610   0.00000  Uiso   1.00
C647   C     0.25464   0.45987   0.36032   0.00000  Uiso   1.00
C648   C     0.24587   0.04035   0.63939   0.00000  Uiso   1.00
C649   C     0.37726   0.16110   0.46018   0.00000  Uiso   1.00
C650   C     0.12127   0.34361   0.53854   0.00000  Uiso   1.00
C651   C     0.11319   0.35857   0.45741   0.00000  Uiso   1.00
C652   C     0.43873   0.30897   0.49851   0.00000  Uiso   1.00
C653   C     0.38367   0.14586   0.54147   0.00000  Uiso   1.00
C654   C     0.10192   0.12561   0.54149   0.00000  Uiso   1.00
C655   C     0.39987   0.37608   0.46060   0.00000  Uiso   1.00
C656   C     0.37743   0.34076   0.53386   0.00000  Uiso   1.00
C657   C     0.11742   0.15095   0.46307   0.00000  Uiso   1.00
C658   C     0.13321   0.40094   0.46003   0.00000  Uiso   1.00
C659   C     0.36505   0.10296   0.53855   0.00000  Uiso   1.00
C660   C     0.35389   0.12065   0.45706   0.00000  Uiso   1.00
C661   C     0.13905   0.38705   0.54194   0.00000  Uiso   1.00
C662   C     0.35445   0.38010   0.54111   0.00000  Uiso   1.00
C663   C     0.43643   0.19492   0.50052   0.00000  Uiso   1.00
C664   C     0.13638   0.10880   0.45757   0.00000  Uiso   1.00
C665   C     0.12498   0.08541   0.53637   0.00000  Uiso   1.00
C666   C     0.37559   0.41465   0.46764   0.00000  Uiso   1.00
C667   C     0.10190   0.33378   0.49774   0.00000  Uiso   1.00
C668   C     0.39665   0.16964   0.50142   0.00000  Uiso   1.00
C669   C     0.40296   0.34046   0.49561   0.00000  Uiso   1.00
C670   C     0.09641   0.15771   0.50354   0.00000  Uiso   1.00
C671   C     0.34631   0.09227   0.49718   0.00000  Uiso   1.00
C672   C     0.15027   0.41270   0.50168   0.00000  Uiso   1.00
C673   C     0.14692   0.08108   0.49645   0.00000  Uiso   1.00
C674   C     0.06318   0.30616   0.49935   0.00000  Uiso   1.00
C675   C     0.34954   0.41385   0.50510   0.00000  Uiso   1.00
C676   C     0.01039   0.33617   0.37282   0.00000  Uiso   1.00
C677   C     0.48818   0.16430   0.62651   0.00000  Uiso   1.00
C678   C     0.00306   0.16516   0.38794   0.00000  Uiso   1.00
C679   C     0.48829   0.33370   0.61265   0.00000  Uiso   1.00
C680   C     0.23545   0.08520   0.37418   0.00000  Uiso   1.00
C681   C     0.24154   0.41385   0.62775   0.00000  Uiso   1.00
C682   C     0.26613   0.41671   0.38693   0.00000  Uiso   1.00
C683   C     0.24252   0.08377   0.61087   0.00000  Uiso   1.00
C684   C     0.37935   0.19664   0.42167   0.00000  Uiso   1.00
C685   C     0.31199   0.44237   0.50151   0.00000  Uiso   1.00
C686   C     0.12828   0.30653   0.57525   0.00000  Uiso   1.00
C687   C     0.11112   0.33686   0.41366   0.00000  Uiso   1.00
C688   C     0.37674   0.17062   0.58271   0.00000  Uiso   1.00
C689   C     0.08841   0.13530   0.58728   0.00000  Uiso   1.00
C690   C     0.41723   0.37223   0.41510   0.00000  Uiso   1.00
C691   C     0.37155   0.29807   0.56341   0.00000  Uiso   1.00
C692   C     0.12906   0.19045   0.43153   0.00000  Uiso   1.00
C693   C     0.12863   0.43610   0.42170   0.00000  Uiso   1.00
C694   C     0.37020   0.06763   0.57722   0.00000  Uiso   1.00
C695   C     0.34069   0.10783   0.41147   0.00000  Uiso   1.00
C696   C     0.18669   0.05566   0.49888   0.00000  Uiso   1.00
C697   C     0.13080   0.40962   0.58432   0.00000  Uiso   1.00
C698   C     0.34125   0.38854   0.58740   0.00000  Uiso   1.00
C699   C     0.13664   0.09044   0.41207   0.00000  Uiso   1.00
C700   C     0.12259   0.04500   0.56967   0.00000  Uiso   1.00
C701   C     0.38116   0.45846   0.43965   0.00000  Uiso   1.00
C702   C     0.18717   0.44305   0.50064   0.00000  Uiso   1.00
C703   C     0.31174   0.05868   0.49910   0.00000  Uiso   1.00
C704   C     0.00230   0.29079   0.35388   0.00000  Uiso   1.00
H705   H     0.03128   0.40177   0.36284   0.00000  Uiso   1.00
H706   H     0.15074   0.28839   0.63756   0.00000  Uiso   1.00
H707   H     0.10767   0.34400   0.34637   0.00000  Uiso   1.00
H708   H     0.33459   0.19212   0.62680   0.00000  Uiso   1.00
H709   H     0.08930   0.17938   0.63633   0.00000  Uiso   1.00
H710   H     0.44623   0.40407   0.36151   0.00000  Uiso   1.00
H711   H     0.37641   0.26594   0.62558   0.00000  Uiso   1.00
H712   H     0.17485   0.23552   0.41150   0.00000  Uiso   1.00
H713   H     0.09007   0.48252   0.38865   0.00000  Uiso   1.00
H714   H     0.37507   0.05307   0.64420   0.00000  Uiso   1.00
H715   H     0.31435   0.12765   0.35125   0.00000  Uiso   1.00
H716   H     0.45914   0.10223   0.63288   0.00000  Uiso   1.00
H717   H     0.08872   0.42089   0.63241   0.00000  Uiso   1.00
H718   H     0.34213   0.43211   0.63696   0.00000  Uiso   1.00
H719   H     0.12735   0.10228   0.34530   0.00000  Uiso   1.00
H720   H     0.13267   0.01805   0.63312   0.00000  Uiso   1.00
H721   H     0.40730   0.02186   0.43599   0.00000  Uiso   1.00
H722   H     0.04027   0.11087   0.40675   0.00000  Uiso   1.00
H723   H     0.00662   0.38637   0.56979   0.00000  Uiso   1.00
H724   H     0.20980   0.14891   0.36792   0.00000  Uiso   1.00
H725   H     0.21825   0.34951   0.63891   0.00000  Uiso   1.00
H726   H     0.30900   0.36586   0.39865   0.00000  Uiso   1.00
H727   H     0.27194   0.13389   0.57399   0.00000  Uiso   1.00
H728   H     0.36820   0.26233   0.39921   0.00000  Uiso   1.00
N729   N     0.00000   0.25000   0.61907   0.00000  Uiso   1.00
N730   N     0.00000   0.25000   0.38093   0.00000  Uiso   1.00
N731   N     0.25000  -0.00000   0.61907   0.00000  Uiso   1.00
N732   N     0.25000  -0.00000   0.38093   0.00000  Uiso   1.00
O733   O     0.04581   0.20419   0.53821   0.00000  Uiso   1.00
O734   O     0.20420   0.04581   0.46179   0.00000  Uiso   1.00
O735   O     0.20420   0.04581   0.53821   0.00000  Uiso   1.00
O736   O     0.29581   0.45419   0.46179   0.00000  Uiso   1.00
O737   O     0.20420   0.45419   0.46179   0.00000  Uiso   1.00
O738   O     0.29581   0.04581   0.53821   0.00000  Uiso   1.00
O739   O     0.29581   0.04581   0.46179   0.00000  Uiso   1.00
O740   O     0.20420   0.45419   0.53821   0.00000  Uiso   1.00
O741   O     0.00085   0.34279   0.41089   0.00000  Uiso   1.00
O742   O     0.02841   0.37259   0.34648   0.00000  Uiso   1.00
O743   O     0.00127   0.15625   0.58998   0.00000  Uiso   1.00
O744   O     0.45420   0.29581   0.46179   0.00000  Uiso   1.00
O745   O     0.46312   0.13098   0.64968   0.00000  Uiso   1.00
O746   O     0.47225   0.14685   0.40590   0.00000  Uiso   1.00
O747   O     0.04142   0.14153   0.38839   0.00000  Uiso   1.00
O748   O     0.45356   0.35101   0.61724   0.00000  Uiso   1.00
O749   O     0.01815   0.35690   0.58554   0.00000  Uiso   1.00
O750   O     0.25053   0.09301   0.41031   0.00000  Uiso   1.00
O751   O     0.21138   0.11981   0.35133   0.00000  Uiso   1.00
O752   O     0.25151   0.40603   0.59002   0.00000  Uiso   1.00
O753   O     0.22037   0.37949   0.65397   0.00000  Uiso   1.00
O754   O     0.24112   0.39799   0.41320   0.00000  Uiso   1.00
O755   O     0.45420   0.29581   0.53821   0.00000  Uiso   1.00
O756   O     0.30473   0.39555   0.37920   0.00000  Uiso   1.00
O757   O     0.20784   0.10077   0.60181   0.00000  Uiso   1.00
O758   O     0.27889   0.10639   0.59563   0.00000  Uiso   1.00
O759   O     0.39229   0.18687   0.38514   0.00000  Uiso   1.00
O760   O     0.36718   0.24174   0.42802   0.00000  Uiso   1.00
O761   O     0.12136   0.26632   0.56839   0.00000  Uiso   1.00
O762   O     0.14636   0.31676   0.61621   0.00000  Uiso   1.00
O763   O     0.11273   0.29506   0.41325   0.00000  Uiso   1.00
O764   O     0.11019   0.36346   0.37293   0.00000  Uiso   1.00
O765   O     0.40577   0.18835   0.60229   0.00000  Uiso   1.00
O766   O     0.04581   0.20419   0.46179   0.00000  Uiso   1.00
O767   O     0.33580   0.17437   0.59889   0.00000  Uiso   1.00
O768   O     0.06904   0.10625   0.61055   0.00000  Uiso   1.00
O769   O     0.09981   0.17687   0.60468   0.00000  Uiso   1.00
O770   O     0.40908   0.33835   0.39473   0.00000  Uiso   1.00
O771   O     0.44016   0.40871   0.39411   0.00000  Uiso   1.00
O772   O     0.35604   0.26435   0.54751   0.00000  Uiso   1.00
O773   O     0.38363   0.29630   0.60871   0.00000  Uiso   1.00
O774   O     0.10555   0.20340   0.40034   0.00000  Uiso   1.00
O775   O     0.16874   0.21092   0.43636   0.00000  Uiso   1.00
O776   O     0.15535   0.43995   0.39240   0.00000  Uiso   1.00
O777   O     0.45420   0.20419   0.46179   0.00000  Uiso   1.00
O778   O     0.09170   0.46246   0.41783   0.00000  Uiso   1.00
O779   O     0.37510   0.02720   0.57001   0.00000  Uiso   1.00
O780   O     0.37106   0.08036   0.62146   0.00000  Uiso   1.00
O781   O     0.35002   0.07015   0.39908   0.00000  Uiso   1.00
O782   O     0.31951   0.13969   0.38185   0.00000  Uiso   1.00
O783   O     0.15654   0.43478   0.60083   0.00000  Uiso   1.00
O784   O     0.09193   0.40219   0.60534   0.00000  Uiso   1.00
O785   O     0.32267   0.35886   0.61066   0.00000  Uiso   1.00
O786   O     0.35177   0.43035   0.60492   0.00000  Uiso   1.00
O787   O     0.14075   0.04922   0.40832   0.00000  Uiso   1.00
O788   O     0.04581   0.29581   0.53821   0.00000  Uiso   1.00
O789   O     0.12814   0.11935   0.37361   0.00000  Uiso   1.00
O790   O     0.10891   0.00863   0.55752   0.00000  Uiso   1.00
O791   O     0.13606   0.04808   0.61410   0.00000  Uiso   1.00
O792   O     0.36884   0.46220   0.40056   0.00000  Uiso   1.00
O793   O     0.40129   0.49521   0.45870   0.00000  Uiso   1.00
O794   O     0.04581   0.29581   0.46179   0.00000  Uiso   1.00
O795   O     0.45420   0.20419   0.53821   0.00000  Uiso   1.00
O796   O     0.29581   0.45419   0.53821   0.00000  Uiso   1.00
Zn797  Zn    0.00000   0.25000   0.55104   0.00000  Uiso   1.00
Zn798  Zn    0.00000   0.25000   0.44896   0.00000  Uiso   1.00
Zn799  Zn    0.25000  -0.00000   0.55104   0.00000  Uiso   1.00
Zn800  Zn    0.25000  -0.00000   0.44896   0.00000  Uiso   1.00
C801   C     0.56177   0.19128   0.50127   0.00000  Uiso   1.00
C802   C     0.99729   0.20918   0.64600   0.00000  Uiso   1.00
C803   C     0.99873   0.20942   0.36053   0.00000  Uiso   1.00
C804   C     0.99934   0.29049   0.63946   0.00000  Uiso   1.00
C805   C     0.74383   0.04050   0.35405   0.00000  Uiso   1.00
C806   C     0.75052   0.45927   0.64610   0.00000  Uiso   1.00
C807   C     0.75464   0.45987   0.36032   0.00000  Uiso   1.00
C808   C     0.74587   0.04035   0.63939   0.00000  Uiso   1.00
C809   C     0.87726   0.16110   0.46018   0.00000  Uiso   1.00
C810   C     0.62127   0.34361   0.53854   0.00000  Uiso   1.00
C811   C     0.61319   0.35857   0.45741   0.00000  Uiso   1.00
C812   C     0.93873   0.30897   0.49851   0.00000  Uiso   1.00
C813   C     0.88367   0.14586   0.54147   0.00000  Uiso   1.00
C814   C     0.60192   0.12561   0.54149   0.00000  Uiso   1.00
C815   C     0.89987   0.37608   0.46060   0.00000  Uiso   1.00
C816   C     0.87743   0.34076   0.53386   0.00000  Uiso   1.00
C817   C     0.61742   0.15095   0.46307   0.00000  Uiso   1.00
C818   C     0.63321   0.40094   0.46003   0.00000  Uiso   1.00
C819   C     0.86505   0.10296   0.53855   0.00000  Uiso   1.00
C820   C     0.85389   0.12065   0.45706   0.00000  Uiso   1.00
C821   C     0.63905   0.38705   0.54194   0.00000  Uiso   1.00
C822   C     0.85445   0.38010   0.54111   0.00000  Uiso   1.00
C823   C     0.93643   0.19492   0.50052   0.00000  Uiso   1.00
C824   C     0.63638   0.10880   0.45757   0.00000  Uiso   1.00
C825   C     0.62498   0.08541   0.53637   0.00000  Uiso   1.00
C826   C     0.87559   0.41465   0.46764   0.00000  Uiso   1.00
C827   C     0.60190   0.33378   0.49774   0.00000  Uiso   1.00
C828   C     0.89665   0.16964   0.50142   0.00000  Uiso   1.00
C829   C     0.90296   0.34046   0.49561   0.00000  Uiso   1.00
C830   C     0.59641   0.15771   0.50354   0.00000  Uiso   1.00
C831   C     0.84631   0.09227   0.49718   0.00000  Uiso   1.00
C832   C     0.65027   0.41270   0.50168   0.00000  Uiso   1.00
C833   C     0.64692   0.08108   0.49645   0.00000  Uiso   1.00
C834   C     0.56318   0.30616   0.49935   0.00000  Uiso   1.00
C835   C     0.84954   0.41385   0.50510   0.00000  Uiso   1.00
C836   C     0.51039   0.33617   0.37282   0.00000  Uiso   1.00
C837   C     0.98818   0.16430   0.62651   0.00000  Uiso   1.00
C838   C     0.50306   0.16516   0.38794   0.00000  Uiso   1.00
C839   C     0.98829   0.33370   0.61265   0.00000  Uiso   1.00
C840   C     0.73545   0.08520   0.37418   0.00000  Uiso   1.00
C841   C     0.74154   0.41385   0.62775   0.00000  Uiso   1.00
C842   C     0.76613   0.41671   0.38693   0.00000  Uiso   1.00
C843   C     0.74252   0.08377   0.61087   0.00000  Uiso   1.00
C844   C     0.87935   0.19664   0.42167   0.00000  Uiso   1.00
C845   C     0.81199   0.44237   0.50151   0.00000  Uiso   1.00
C846   C     0.62828   0.30653   0.57525   0.00000  Uiso   1.00
C847   C     0.61112   0.33686   0.41366   0.00000  Uiso   1.00
C848   C     0.87674   0.17062   0.58271   0.00000  Uiso   1.00
C849   C     0.58841   0.13530   0.58728   0.00000  Uiso   1.00
C850   C     0.91723   0.37223   0.41510   0.00000  Uiso   1.00
C851   C     0.87155   0.29807   0.56341   0.00000  Uiso   1.00
C852   C     0.62906   0.19045   0.43153   0.00000  Uiso   1.00
C853   C     0.62863   0.43610   0.42170   0.00000  Uiso   1.00
C854   C     0.87020   0.06763   0.57722   0.00000  Uiso   1.00
C855   C     0.84069   0.10783   0.41147   0.00000  Uiso   1.00
C856   C     0.68669   0.05566   0.49888   0.00000  Uiso   1.00
C857   C     0.63080   0.40962   0.58432   0.00000  Uiso   1.00
C858   C     0.84125   0.38854   0.58740   0.00000  Uiso   1.00
C859   C     0.63664   0.09044   0.41207   0.00000  Uiso   1.00
C860   C     0.62259   0.04500   0.56967   0.00000  Uiso   1.00
C861   C     0.88116   0.45846   0.43965   0.00000  Uiso   1.00
C862   C     0.68717   0.44305   0.50064   0.00000  Uiso   1.00
C863   C     0.81174   0.05868   0.49910   0.00000  Uiso   1.00
C864   C     0.50230   0.29079   0.35388   0.00000  Uiso   1.00
H865   H     0.53128   0.40177   0.36284   0.00000  Uiso   1.00
H866   H     0.65074   0.28839   0.63756   0.00000  Uiso   1.00
H867   H     0.60767   0.34400   0.34637   0.00000  Uiso   1.00
H868   H     0.83459   0.19212   0.62680   0.00000  Uiso   1.00
H869   H     0.58930   0.17938   0.63633   0.00000  Uiso   1.00
H870   H     0.94623   0.40407   0.36151   0.00000  Uiso   1.00
H871   H     0.87641   0.26594   0.62558   0.00000  Uiso   1.00
H872   H     0.67485   0.23552   0.41150   0.00000  Uiso   1.00
H873   H     0.59007   0.48252   0.38865   0.00000  Uiso   1.00
H874   H     0.87507   0.05307   0.64420   0.00000  Uiso   1.00
H875   H     0.81435   0.12765   0.35125   0.00000  Uiso   1.00
H876   H     0.95914   0.10223   0.63288   0.00000  Uiso   1.00
H877   H     0.58872   0.42089   0.63241   0.00000  Uiso   1.00
H878   H     0.84213   0.43211   0.63696   0.00000  Uiso   1.00
H879   H     0.62735   0.10228   0.34530   0.00000  Uiso   1.00
H880   H     0.63267   0.01805   0.63312   0.00000  Uiso   1.00
H881   H     0.90730   0.02186   0.43599   0.00000  Uiso   1.00
H882   H     0.54027   0.11087   0.40675   0.00000  Uiso   1.00
H883   H     0.50662   0.38637   0.56979   0.00000  Uiso   1.00
H884   H     0.70980   0.14891   0.36792   0.00000  Uiso   1.00
H885   H     0.71825   0.34951   0.63891   0.00000  Uiso   1.00
H886   H     0.80900   0.36586   0.39865   0.00000  Uiso   1.00
H887   H     0.77194   0.13389   0.57399   0.00000  Uiso   1.00
H888   H     0.86820   0.26233   0.39921   0.00000  Uiso   1.00
N889   N     0.50000   0.25000   0.61907   0.00000  Uiso   1.00
N890   N     0.50000   0.25000   0.38093   0.00000  Uiso   1.00
N891   N     0.75000  -0.00000   0.61907   0.00000  Uiso   1.00
N892   N     0.75000  -0.00000   0.38093   0.00000  Uiso   1.00
O893   O     0.54581   0.20419   0.53821   0.00000  Uiso   1.00
O894   O     0.70420   0.04581   0.46179   0.00000  Uiso   1.00
O895   O     0.70420   0.04581   0.53821   0.00000  Uiso   1.00
O896   O     0.79581   0.45419   0.46179   0.00000  Uiso   1.00
O897   O     0.70420   0.45419   0.46179   0.00000  Uiso   1.00
O898   O     0.79581   0.04581   0.53821   0.00000  Uiso   1.00
O899   O     0.79581   0.04581   0.46179   0.00000  Uiso   1.00
O900   O     0.70420   0.45419   0.53821   0.00000  Uiso   1.00
O901   O     0.50085   0.34279   0.41089   0.00000  Uiso   1.00
O902   O     0.52841   0.37259   0.34648   0.00000  Uiso   1.00
O903   O     0.50127   0.15625   0.58998   0.00000  Uiso   1.00
O904   O     0.95420   0.29581   0.46179   0.00000  Uiso   1.00
O905   O     0.96312   0.13098   0.64968   0.00000  Uiso   1.00
O906   O     0.97225   0.14685   0.40590   0.00000  Uiso   1.00
O907   O     0.54142   0.14153   0.38839   0.00000  Uiso   1.00
O908   O     0.95356   0.35101   0.61724   0.00000  Uiso   1.00
O909   O     0.51815   0.35690   0.58554   0.00000  Uiso   1.00
O910   O     0.75053   0.09301   0.41031   0.00000  Uiso   1.00
O911   O     0.71138   0.11981   0.35133   0.00000  Uiso   1.00
O912   O     0.75151   0.40603   0.59002   0.00000  Uiso   1.00
O913   O     0.72037   0.37949   0.65397   0.00000  Uiso   1.00
O914   O     0.74112   0.39799   0.41320   0.00000  Uiso   1.00
O915   O     0.95420   0.29581   0.53821   0.00000  Uiso   1.00
O916   O     0.80473   0.39555   0.37920   0.00000  Uiso   1.00
O917   O     0.70784   0.10077   0.60181   0.00000  Uiso   1.00
O918   O     0.77889   0.10639   0.59563   0.00000  Uiso   1.00
O919   O     0.89229   0.18687   0.38514   0.00000  Uiso   1.00
O920   O     0.86718   0.24174   0.42802   0.00000  Uiso   1.00
O921   O     0.62136   0.26632   0.56839   0.00000  Uiso   1.00
O922   O     0.64636   0.31676   0.61621   0.00000  Uiso   1.00
O923   O     0.61273   0.29506   0.41325   0.00000  Uiso   1.00
O924   O     0.61019   0.36346   0.37293   0.00000  Uiso   1.00
O925   O     0.90577   0.18835   0.60229   0.00000  Uiso   1.00
O926   O     0.54581   0.20419   0.46179   0.00000  Uiso   1.00
O927   O     0.83580   0.17437   0.59889   0.00000  Uiso   1.00
O928   O     0.56904   0.10625   0.61055   0.00000  Uiso   1.00
O929   O     0.59981   0.17687   0.60468   0.00000  Uiso   1.00
O930   O     0.90908   0.33835   0.39473   0.00000  Uiso   1.00
O931   O     0.94016   0.40871   0.39411   0.00000  Uiso   1.00
O932   O     0.85604   0.26435   0.54751   0.00000  Uiso   1.00
O933   O     0.88363   0.29630   0.60871   0.00000  Uiso   1.00
O934   O     0.60555   0.20340   0.40034   0.00000  Uiso   1.00
O935   O     0.66874   0.21092   0.43636   0.00000  Uiso   1.00
O936   O     0.65535   0.43995   0.39240   0.00000  Uiso   1.00
O937   O     0.95420   0.20419   0.46179   0.00000  Uiso   1.00
O938   O     0.59170   0.46246   0.41783   0.00000  Uiso   1.00
O939   O     0.87510   0.02720   0.57001   0.00000  Uiso   1.00
O940   O     0.87106   0.08036   0.62146   0.00000  Uiso   1.00
O941   O     0.85002   0.07015   0.39908   0.00000  Uiso   1.00
O942   O     0.81951   0.13969   0.38185   0.00000  Uiso   1.00
O943   O     0.65654   0.43478   0.60083   0.00000  Uiso   1.00
O944   O     0.59193   0.40219   0.60534   0.00000  Uiso   1.00
O945   O     0.82267   0.35886   0.61066   0.00000  Uiso   1.00
O946   O     0.85177   0.43035   0.60492   0.00000  Uiso   1.00
O947   O     0.64075   0.04922   0.40832   0.00000  Uiso   1.00
O948   O     0.54581   0.29581   0.53821   0.00000  Uiso   1.00
O949   O     0.62814   0.11935   0.37361   0.00000  Uiso   1.00
O950   O     0.60891   0.00863   0.55752   0.00000  Uiso   1.00
O951   O     0.63606   0.04808   0.61410   0.00000  Uiso   1.00
O952   O     0.86884   0.46220   0.40056   0.00000  Uiso   1.00
O953   O     0.90129   0.49521   0.45870   0.00000  Uiso   1.00
O954   O     0.54581   0.29581   0.46179   0.00000  Uiso   1.00
O955   O     0.95420   0.20419   0.53821   0.00000  Uiso   1.00
O956   O     0.79581   0.45419   0.53821   0.00000  Uiso   1.00
Zn957  Zn    0.50000   0.25000   0.55104   0.00000  Uiso   1.00
Zn958  Zn    0.50000   0.25000   0.44896   0.00000  Uiso   1.00
Zn959  Zn    0.75000  -0.00000   0.55104   0.00000  Uiso   1.00
Zn960  Zn    0.75000  -0.00000   0.44896   0.00000  Uiso   1.00
C961   C     0.06177   0.69128   0.50127   0.00000  Uiso   1.00
C962   C     0.49729   0.70918   0.64600   0.00000  Uiso   1.00
C963   C     0.49873   0.70942   0.36053   0.00000  Uiso   1.00
C964   C     0.49934   0.79049   0.63946   0.00000  Uiso   1.00
C965   C     0.24383   0.54050   0.35405   0.00000  Uiso   1.00
C966   C     0.25052   0.95927   0.64610   0.00000  Uiso   1.00
C967   C     0.25464   0.95987   0.36032   0.00000  Uiso   1.00
C968   C     0.24587   0.54035   0.63939   0.00000  Uiso   1.00
C969   C     0.37726   0.66110   0.46018   0.00000  Uiso   1.00
C970   C     0.12127   0.84361   0.53854   0.00000  Uiso   1.00
C971   C     0.11319   0.85857   0.45741   0.00000  Uiso   1.00
C972   C     0.43873   0.80897   0.49851   0.00000  Uiso   1.00
C973   C     0.38367   0.64586   0.54147   0.00000  Uiso   1.00
C974   C     0.10192   0.62561   0.54149   0.00000  Uiso   1.00
C975   C     0.39987   0.87608   0.46060   0.00000  Uiso   1.00
C976   C     0.37743   0.84076   0.53386   0.00000  Uiso   1.00
C977   C     0.11742   0.65095   0.46307   0.00000  Uiso   1.00
C978   C     0.13321   0.90094   0.46003   0.00000  Uiso   1.00
C979   C     0.36505   0.60296   0.53855   0.00000  Uiso   1.00
C980   C     0.35389   0.62065   0.45706   0.00000  Uiso   1.00
C981   C     0.13905   0.88705   0.54194   0.00000  Uiso   1.00
C982   C     0.35445   0.88010   0.54111   0.00000  Uiso   1.00
C983   C     0.43643   0.69492   0.50052   0.00000  Uiso   1.00
C984   C     0.13638   0.60880   0.45757   0.00000  Uiso   1.00
C985   C     0.12498   0.58541   0.53637   0.00000  Uiso   1.00
C986   C     0.37559   0.91465   0.46764   0.00000  Uiso   1.00
C987   C     0.10190   0.83378   0.49774   0.00000  Uiso   1.00
C988   C     0.39665   0.66964   0.50142   0.00000  Uiso   1.00
C989   C     0.40296   0.84046   0.49561   0.00000  Uiso   1.00
C990   C     0.09641   0.65771   0.50354   0.00000  Uiso   1.00
C991   C     0.34631   0.59227   0.49718   0.00000  Uiso   1.00
C992   C     0.15027   0.91270   0.50168   0.00000  Uiso   1.00
C993   C     0.14692   0.58108   0.49645   0.00000  Uiso   1.00
C994   C     0.06318   0.80616   0.49935   0.00000  Uiso   1.00
C995   C     0.34954   0.91385   0.50510   0.00000  Uiso   1.00
C996   C     0.01039   0.83617   0.37282   0.00000  Uiso   1.00
C997   C     0.48818   0.66430   0.62651   0.00000  Uiso   1.00
C998   C     0.00306   0.66516   0.38794   0.00000  Uiso   1.00
C999   C     0.48829   0.83370   0.61265   0.00000  Uiso   1.00
C1000  C     0.23545   0.58520   0.37418   0.00000  Uiso   1.00
C1001  C     0.24154   0.91385   0.62775   0.00000  Uiso   1.00
C1002  C     0.26613   0.91671   0.38693   0.00000  Uiso   1.00
C1003  C     0.24252   0.58377   0.61087   0.00000  Uiso   1.00
C1004  C     0.37935   0.69664   0.42167   0.00000  Uiso   1.00
C1005  C     0.31199   0.94237   0.50151   0.00000  Uiso   1.00
C1006  C     0.12828   0.80653   0.57525   0.00000  Uiso   1.00
C1007  C     0.11112   0.83686   0.41366   0.00000  Uiso   1.00
C1008  C     0.37674   0.67062   0.58271   0.00000  Uiso   1.00
C1009  C     0.08841   0.63530   0.58728   0.00000  Uiso   1.00
C1010  C     0.41723   0.87223   0.41510   0.00000  Uiso   1.00
C1011  C     0.37155   0.79807   0.56341   0.00000  Uiso   1.00
C1012  C     0.12906   0.69045   0.43153   0.00000  Uiso   1.00
C1013  C     0.12863   0.93610   0.42170   0.00000  Uiso   1.00
C1014  C     0.37020   0.56763   0.57722   0.00000  Uiso   1.00
C1015  C     0.34069   0.60783   0.41147   0.00000  Uiso   1.00
C1016  C     0.18669   0.55566   0.49888   0.00000  Uiso   1.00
C1017  C     0.13080   0.90962   0.58432   0.00000  Uiso   1.00
C1018  C     0.34125   0.88854   0.58740   0.00000  Uiso   1.00
C1019  C     0.13664   0.59044   0.41207   0.00000  Uiso   1.00
C1020  C     0.12259   0.54500   0.56967   0.00000  Uiso   1.00
C1021  C     0.38116   0.95846   0.43965   0.00000  Uiso   1.00
C1022  C     0.18717   0.94305   0.50064   0.00000  Uiso   1.00
C1023  C     0.31174   0.55868   0.49910   0.00000  Uiso   1.00
C1024  C     0.00230   0.79079   0.35388   0.00000  Uiso   1.00
H1025  H     0.03128   0.90177   0.36284   0.00000  Uiso   1.00
H1026  H     0.15074   0.78839   0.63756   0.00000  Uiso   1.00
H1027  H     0.10767   0.84400   0.34637   0.00000  Uiso   1.00
H1028  H     0.33459   0.69212   0.62680   0.00000  Uiso   1.00
H1029  H     0.08930   0.67938   0.63633   0.00000  Uiso   1.00
H1030  H     0.44623   0.90407   0.36151   0.00000  Uiso   1.00
H1031  H     0.37641   0.76594   0.62558   0.00000  Uiso   1.00
H1032  H     0.17485   0.73552   0.41150   0.00000  Uiso   1.00
H1033  H     0.09007   0.98252   0.38865   0.00000  Uiso   1.00
H1034  H     0.37507   0.55307   0.64420   0.00000  Uiso   1.00
H1035  H     0.31435   0.62765   0.35125   0.00000  Uiso   1.00
H1036  H     0.45914   0.60223   0.63288   0.00000  Uiso   1.00
H1037  H     0.08872   0.92089   0.63241   0.00000  Uiso   1.00
H1038  H     0.34213   0.93211   0.63696   0.00000  Uiso   1.00
H1039  H     0.12735   0.60228   0.34530   0.00000  Uiso   1.00
H1040  H     0.13267   0.51805   0.63312   0.00000  Uiso   1.00
H1041  H     0.40730   0.52186   0.43599   0.00000  Uiso   1.00
H1042  H     0.04027   0.61087   0.40675   0.00000  Uiso   1.00
H1043  H     0.00662   0.88637   0.56979   0.00000  Uiso   1.00
H1044  H     0.20980   0.64891   0.36792   0.00000  Uiso   1.00
H1045  H     0.21825   0.84951   0.63891   0.00000  Uiso   1.00
H1046  H     0.30900   0.86586   0.39865   0.00000  Uiso   1.00
H1047  H     0.27194   0.63389   0.57399   0.00000  Uiso   1.00
H1048  H     0.36820   0.76233   0.39921   0.00000  Uiso   1.00
N1049  N     0.00000   0.75000   0.61907   0.00000  Uiso   1.00
N1050  N     0.00000   0.75000   0.38093   0.00000  Uiso   1.00
N1051  N     0.25000   0.50000   0.61907   0.00000  Uiso   1.00
N1052  N     0.25000   0.50000   0.38093   0.00000  Uiso   1.00
O1053  O     0.04581   0.70419   0.53821   0.00000  Uiso   1.00
O1054  O     0.20420   0.54581   0.46179   0.00000  Uiso   1.00
O1055  O     0.20420   0.54581   0.53821   0.00000  Uiso   1.00
O1056  O     0.29581   0.95419   0.46179   0.00000  Uiso   1.00
O1057  O     0.20420   0.95419   0.46179   0.00000  Uiso   1.00
O1058  O     0.29581   0.54581   0.53821   0.00000  Uiso   1.00
O1059  O     0.29581   0.54581   0.46179   0.00000  Uiso   1.00
O1060  O     0.20420   0.95419   0.53821   0.00000  Uiso   1.00
O1061  O     0.00085   0.84279   0.41089   0.00000  Uiso   1.00
O1062  O     0.02841   0.87259   0.34648   0.00000  Uiso   1.00
O1063  O     0.00127   0.65625   0.58998   0.00000  Uiso   1.00
O1064  O     0.45420   0.79581   0.46179   0.00000  Uiso   1.00
O1065  O     0.46312   0.63098   0.64968   0.00000  Uiso   1.00
O1066  O     0.47225   0.64685   0.40590   0.00000  Uiso   1.00
O1067  O     0.04142   0.64153   0.38839   0.00000  Uiso   1.00
O1068  O     0.45356   0.85101   0.61724   0.00000  Uiso   1.00
O1069  O     0.01815   0.85690   0.58554   0.00000  Uiso   1.00
O1070  O     0.25053   0.59301   0.41031   0.00000  Uiso   1.00
O1071  O     0.21138   0.61981   0.35133   0.00000  Uiso   1.00
O1072  O     0.25151   0.90603   0.59002   0.00000  Uiso   1.00
O1073  O     0.22037   0.87949   0.65397   0.00000  Uiso   1.00
O1074  O     0.24112   0.89799   0.41320   0.00000  Uiso   1.00
O1075  O     0.45420   0.79581   0.53821   0.00000  Uiso   1.00
O1076  O     0.30473   0.89555   0.37920   0.00000  Uiso   1.00
O1077  O     0.20784   0.60077   0.60181   0.00000  Uiso   1.00
O1078  O     0.27889   0.60639   0.59563   0.00000  Uiso   1.00
O1079  O     0.39229   0.68687   0.38514   0.00000  Uiso   1.00
O1080  O     0.36718   0.74174   0.42802   0.00000  Uiso   1.00
O1081  O     0.12136   0.76632   0.56839   0.00000  Uiso   1.00
O1082  O     0.14636   0.81676   0.61621   0.00000  Uiso   1.00
O1083  O     0.11273   0.79506   0.41325   0.00000  Uiso   1.00
O1084  O     0.11019   0.86346   0.37293   0.00000  Uiso   1.00
O1085  O     0.40577   0.68835   0.60229   0.00000  Uiso   1.00
O1086  O     0.04581   0.70419   0.46179   0.00000  Uiso   1.00
O1087  O     0.33580   0.67437   0.59889   0.00000  Uiso   1.00
O1088  O     0.06904   0.60625   0.61055   0.00000  Uiso   1.00
O1089  O     0.09981   0.67687   0.60468   0.00000  Uiso   1.00
O1090  O     0.40908   0.83835   0.39473   0.00000  Uiso   1.00
O1091  O     0.44016   0.90871   0.39411   0.00000  Uiso   1.00
O1092  O     0.35604   0.76435   0.54751   0.00000  Uiso   1.00
O1093  O     0.38363   0.79630   0.60871   0.00000  Uiso   1.00
O1094  O     0.10555   0.70340   0.40034   0.00000  Uiso   1.00
O1095  O     0.16874   0.71092   0.43636   0.00000  Uiso   1.00
O1096  O     0.15535   0.93995   0.39240   0.00000  Uiso   1.00
O1097  O     0.45420   0.70419   0.46179   0.00000  Uiso   1.00
O1098  O     0.09170   0.96246   0.41783   0.00000  Uiso   1.00
O1099  O     0.37510   0.52720   0.57001   0.00000  Uiso   1.00
O1100  O     0.37106   0.58036   0.62146   0.00000  Uiso   1.00
O1101  O     0.35002   0.57015   0.39908   0.00000  Uiso   1.00
O1102  O     0.31951   0.63969   0.38185   0.00000  Uiso   1.00
O1103  O     0.15654   0.93478   0.60083   0.00000  Uiso   1.00
O1104  O     0.09193   0.90219   0.60534   0.00000  Uiso   1.00
O1105  O     0.32267   0.85886   0.61066   0.00000  Uiso   1.00
O1106  O     0.35177   0.93035   0.60492   0.00000  Uiso   1.00
O1107  O     0.14075   0.54922   0.40832   0.00000  Uiso   1.00
O1108  O     0.04581   0.79581   0.53821   0.00000  Uiso   1.00
O1109  O     0.12814   0.61935   0.37361   0.00000  Uiso   1.00
O1110  O     0.10891   0.50863   0.55752   0.00000  Uiso   1.00
O1111  O     0.13606   0.54808   0.61410   0.00000  Uiso   1.00
O1112  O     0.36884   0.96220   0.40056   0.00000  Uiso   1.00
O1113  O     0.40129   0.99521   0.45870   0.00000  Uiso   1.00
O1114  O     0.04581   0.79581   0.46179   0.00000  Uiso   1.00
O1115  O     0.45420   0.70419   0.53821   0.00000  Uiso   1.00
O1116  O     0.29581   0.95419   0.53821   0.00000  Uiso   1.00
Zn1117 Zn    0.00000   0.75000   0.55104   0.00000  Uiso   1.00
Zn1118 Zn    0.00000   0.75000   0.44896   0.00000  Uiso   1.00
Zn1119 Zn    0.25000   0.50000   0.55104   0.00000  Uiso   1.00
Zn1120 Zn    0.25000   0.50000   0.44896   0.00000  Uiso   1.00
C1121  C     0.56177   0.69128   0.50127   0.00000  Uiso   1.00
C1122  C     0.99729   0.70918   0.64600   0.00000  Uiso   1.00
C1123  C     0.99873   0.70942   0.36053   0.00000  Uiso   1.00
C1124  C     0.99934   0.79049   0.63946   0.00000  Uiso   1.00
C1125  C     0.74383   0.54050   0.35405   0.00000  Uiso   1.00
C1126  C     0.75052   0.95927   0.64610   0.00000  Uiso   1.00
C1127  C     0.75464   0.95987   0.36032   0.00000  Uiso   1.00
C1128  C     0.74587   0.54035   0.63939   0.00000  Uiso   1.00
C1129  C     0.87726   0.66110   0.46018   0.00000  Uiso   1.00
C1130  C     0.62127   0.84361   0.53854   0.00000  Uiso   1.00
C1131  C     0.61319   0.85857   0.45741   0.00000  Uiso   1.00
C1132  C     0.93873   0.80897   0.49851   0.00000  Uiso   1.00
C1133  C     0.88367   0.64586   0.54147   0.00000  Uiso   1.00
C1134  C     0.60192   0.62561   0.54149   0.00000  Uiso   1.00
C1135  C     0.89987   0.87608   0.46060   0.00000  Uiso   1.00
C1136  C     0.87743   0.84076   0.53386   0.00000  Uiso   1.00
C1137  C     0.61742   0.65095   0.46307   0.00000  Uiso   1.00
C1138  C     0.63321   0.90094   0.46003   0.00000  Uiso   1.00
C1139  C     0.86505   0.60296   0.53855   0.00000  Uiso   1.00
C1140  C     0.85389   0.62065   0.45706   0.00000  Uiso   1.00
C1141  C     0.63905   0.88705   0.54194   0.00000  Uiso   1.00
C1142  C     0.85445   0.88010   0.54111   0.00000  Uiso   1.00
C1143  C     0.93643   0.69492   0.50052   0.00000  Uiso   1.00
C1144  C     0.63638   0.60880   0.45757   0.00000  Uiso   1.00
C1145  C     0.62498   0.58541   0.53637   0.00000  Uiso   1.00
C1146  C     0.87559   0.91465   0.46764   0.00000  Uiso   1.00
C1147  C     0.60190   0.83378   0.49774   0.00000  Uiso   1.00
C1148  C     0.89665   0.66964   0.50142   0.00000  Uiso   1.00
C1149  C     0.90296   0.84046   0.49561   0.00000  Uiso   1.00
C1150  C     0.59641   0.65771   0.50354   0.00000  Uiso   1.00
C1151  C     0.84631   0.59227   0.49718   0.00000  Uiso   1.00
C1152  C     0.65027   0.91270   0.50168   0.00000  Uiso   1.00
C1153  C     0.64692   0.58108   0.49645   0.00000  Uiso   1.00
C1154  C     0.56318   0.80616   0.49935   0.00000  Uiso   1.00
C1155  C     0.84954   0.91385   0.50510   0.00000  Uiso   1.00
C1156  C     0.51039   0.83617   0.37282   0.00000  Uiso   1.00
C1157  C     0.98818   0.66430   0.62651   0.00000  Uiso   1.00
C1158  C     0.50306   0.66516   0.38794   0.00000  Uiso   1.00
C1159  C     0.98829   0.83370   0.61265   0.00000  Uiso   1.00
C1160  C     0.73545   0.58520   0.37418   0.00000  Uiso   1.00
C1161  C     0.74154   0.91385   0.62775   0.00000  Uiso   1.00
C1162  C     0.76613   0.91671   0.38693   0.00000  Uiso   1.00
C1163  C     0.74252   0.58377   0.61087   0.00000  Uiso   1.00
C1164  C     0.87935   0.69664   0.42167   0.00000  Uiso   1.00
C1165  C     0.81199   0.94237   0.50151   0.00000  Uiso   1.00
C1166  C     0.62828   0.80653   0.57525   0.00000  Uiso   1.00
C1167  C     0.61112   0.83686   0.41366   0.00000  Uiso   1.00
C1168  C     0.87674   0.67062   0.58271   0.00000  Uiso   1.00
C1169  C     0.58841   0.63530   0.58728   0.00000  Uiso   1.00
C1170  C     0.91723   0.87223   0.41510   0.00000  Uiso   1.00
C1171  C     0.87155   0.79807   0.56341   0.00000  Uiso   1.00
C1172  C     0.62906   0.69045   0.43153   0.00000  Uiso   1.00
C1173  C     0.62863   0.93610   0.42170   0.00000  Uiso   1.00
C1174  C     0.87020   0.56763   0.57722   0.00000  Uiso   1.00
C1175  C     0.84069   0.60783   0.41147   0.00000  Uiso   1.00
C1176  C     0.68669   0.55566   0.49888   0.00000  Uiso   1.00
C1177  C     0.63080   0.90962   0.58432   0.00000  Uiso   1.00
C1178  C     0.84125   0.88854   0.58740   0.00000  Uiso   1.00
C1179  C     0.63664   0.59044   0.41207   0.00000  Uiso   1.00
C1180  C     0.62259   0.54500   0.56967   0.00000  Uiso   1.00
C1181  C     0.88116   0.95846   0.43965   0.00000  Uiso   1.00
C1182  C     0.68717   0.94305   0.50064   0.00000  Uiso   1.00
C1183  C     0.81174   0.55868   0.49910   0.00000  Uiso   1.00
C1184  C     0.50230   0.79079   0.35388   0.00000  Uiso   1.00
H1185  H     0.53128   0.90177   0.36284   0.00000  Uiso   1.00
H1186  H     0.65074   0.78839   0.63756   0.00000  Uiso   1.00
H1187  H     0.60767   0.84400   0.34637   0.00000  Uiso   1.00
H1188  H     0.83459   0.69212   0.62680   0.00000  Uiso   1.00
H1189  H     0.58930   0.67938   0.63633   0.00000  Uiso   1.00
H1190  H     0.94623   0.90407   0.36151   0.00000  Uiso   1.00
H1191  H     0.87641   0.76594   0.62558   0.00000  Uiso   1.00
H1192  H     0.67485   0.73552   0.41150   0.00000  Uiso   1.00
H1193  H     0.59007   0.98252   0.38865   0.00000  Uiso   1.00
H1194  H     0.87507   0.55307   0.64420   0.00000  Uiso   1.00
H1195  H     0.81435   0.62765   0.35125   0.00000  Uiso   1.00
H1196  H     0.95914   0.60223   0.63288   0.00000  Uiso   1.00
H1197  H     0.58872   0.92089   0.63241   0.00000  Uiso   1.00
H1198  H     0.84213   0.93211   0.63696   0.00000  Uiso   1.00
H1199  H     0.62735   0.60228   0.34530   0.00000  Uiso   1.00
H1200  H     0.63267   0.51805   0.63312   0.00000  Uiso   1.00
H1201  H     0.90730   0.52186   0.43599   0.00000  Uiso   1.00
H1202  H     0.54027   0.61087   0.40675   0.00000  Uiso   1.00
H1203  H     0.50662   0.88637   0.56979   0.00000  Uiso   1.00
H1204  H     0.70980   0.64891   0.36792   0.00000  Uiso   1.00
H1205  H     0.71825   0.84951   0.63891   0.00000  Uiso   1.00
H1206  H     0.80900   0.86586   0.39865   0.00000  Uiso   1.00
H1207  H     0.77194   0.63389   0.57399   0.00000  Uiso   1.00
H1208  H     0.86820   0.76233   0.39921   0.00000  Uiso   1.00
N1209  N     0.50000   0.75000   0.61907   0.00000  Uiso   1.00
N1210  N     0.50000   0.75000   0.38093   0.00000  Uiso   1.00
N1211  N     0.75000   0.50000   0.61907   0.00000  Uiso   1.00
N1212  N     0.75000   0.50000   0.38093   0.00000  Uiso   1.00
O1213  O     0.54581   0.70419   0.53821   0.00000  Uiso   1.00
O1214  O     0.70420   0.54581   0.46179   0.00000  Uiso   1.00
O1215  O     0.70420   0.54581   0.53821   0.00000  Uiso   1.00
O1216  O     0.79581   0.95419   0.46179   0.00000  Uiso   1.00
O1217  O     0.70420   0.95419   0.46179   0.00000  Uiso   1.00
O1218  O     0.79581   0.54581   0.53821   0.00000  Uiso   1.00
O1219  O     0.79581   0.54581   0.46179   0.00000  Uiso   1.00
O1220  O     0.70420   0.95419   0.53821   0.00000  Uiso   1.00
O1221  O     0.50085   0.84279   0.41089   0.00000  Uiso   1.00
O1222  O     0.52841   0.87259   0.34648   0.00000  Uiso   1.00
O1223  O     0.50127   0.65625   0.58998   0.00000  Uiso   1.00
O1224  O     0.95420   0.79581   0.46179   0.00000  Uiso   1.00
O1225  O     0.96312   0.63098   0.64968   0.00000  Uiso   1.00
O1226  O     0.97225   0.64685   0.40590   0.00000  Uiso   1.00
O1227  O     0.54142   0.64153   0.38839   0.00000  Uiso   1.00
O1228  O     0.95356   0.85101   0.61724   0.00000  Uiso   1.00
O1229  O     0.51815   0.85690   0.58554   0.00000  Uiso   1.00
O1230  O     0.75053   0.59301   0.41031   0.00000  Uiso   1.00
O1231  O     0.71138   0.61981   0.35133   0.00000  Uiso   1.00
O1232  O     0.75151   0.90603   0.59002   0.00000  Uiso   1.00
O1233  O     0.72037   0.87949   0.65397   0.00000  Uiso   1.00
O1234  O     0.74112   0.89799   0.41320   0.00000  Uiso   1.00
O1235  O     0.95420   0.79581   0.53821   0.00000  Uiso   1.00
O1236  O     0.80473   0.89555   0.37920   0.00000  Uiso   1.00
O1237  O     0.70784   0.60077   0.60181   0.00000  Uiso   1.00
O1238  O     0.77889   0.60639   0.59563   0.00000  Uiso   1.00
O1239  O     0.89229   0.68687   0.38514   0.00000  Uiso   1.00
O1240  O     0.86718   0.74174   0.42802   0.00000  Uiso   1.00
O1241  O     0.62136   0.76632   0.56839   0.00000  Uiso   1.00
O1242  O     0.64636   0.81676   0.61621   0.00000  Uiso   1.00
O1243  O     0.61273   0.79506   0.41325   0.00000  Uiso   1.00
O1244  O     0.61019   0.86346   0.37293   0.00000  Uiso   1.00
O1245  O     0.90577   0.68835   0.60229   0.00000  Uiso   1.00
O1246  O     0.54581   0.70419   0.46179   0.00000  Uiso   1.00
O1247  O     0.83580   0.67437   0.59889   0.00000  Uiso   1.00
O1248  O     0.56904   0.60625   0.61055   0.00000  Uiso   1.00
O1249  O     0.59981   0.67687   0.60468   0.00000  Uiso   1.00
O1250  O     0.90908   0.83835   0.39473   0.00000  Uiso   1.00
O1251  O     0.94016   0.90871   0.39411   0.00000  Uiso   1.00
O1252  O     0.85604   0.76435   0.54751   0.00000  Uiso   1.00
O1253  O     0.88363   0.79630   0.60871   0.00000  Uiso   1.00
O1254  O     0.60555   0.70340   0.40034   0.00000  Uiso   1.00
O1255  O     0.66874   0.71092   0.43636   0.00000  Uiso   1.00
O1256  O     0.65535   0.93995   0.39240   0.00000  Uiso   1.00
O1257  O     0.95420   0.70419   0.46179   0.00000  Uiso   1.00
O1258  O     0.59170   0.96246   0.41783   0.00000  Uiso   1.00
O1259  O     0.87510   0.52720   0.57001   0.00000  Uiso   1.00
O1260  O     0.87106   0.58036   0.62146   0.00000  Uiso   1.00
O1261  O     0.85002   0.57015   0.39908   0.00000  Uiso   1.00
O1262  O     0.81951   0.63969   0.38185   0.00000  Uiso   1.00
O1263  O     0.65654   0.93478   0.60083   0.00000  Uiso   1.00
O1264  O     0.59193   0.90219   0.60534   0.00000  Uiso   1.00
O1265  O     0.82267   0.85886   0.61066   0.00000  Uiso   1.00
O1266  O     0.85177   0.93035   0.60492   0.00000  Uiso   1.00
O1267  O     0.64075   0.54922   0.40832   0.00000  Uiso   1.00
O1268  O     0.54581   0.79581   0.53821   0.00000  Uiso   1.00
O1269  O     0.62814   0.61935   0.37361   0.00000  Uiso   1.00
O1270  O     0.60891   0.50863   0.55752   0.00000  Uiso   1.00
O1271  O     0.63606   0.54808   0.61410   0.00000  Uiso   1.00
O1272  O     0.86884   0.96220   0.40056   0.00000  Uiso   1.00
O1273  O     0.90129   0.99521   0.45870   0.00000  Uiso   1.00
O1274  O     0.54581   0.79581   0.46179   0.00000  Uiso   1.00
O1275  O     0.95420   0.70419   0.53821   0.00000  Uiso   1.00
O1276  O     0.79581   0.95419   0.53821   0.00000  Uiso   1.00
Zn1277 Zn    0.50000   0.75000   0.55104   0.00000  Uiso   1.00
Zn1278 Zn    0.50000   0.75000   0.44896   0.00000  Uiso   1.00
Zn1279 Zn    0.75000   0.50000   0.55104   0.00000  Uiso   1.00
Zn1280 Zn    0.75000   0.50000   0.44896   0.00000  Uiso   1.00
C1281  C     0.06177   0.19128   0.83460   0.00000  Uiso   1.00
C1282  C     0.49729   0.20918   0.97933   0.00000  Uiso   1.00
C1283  C     0.49873   0.20942   0.69386   0.00000  Uiso   1.00
C1284  C     0.49934   0.29049   0.97279   0.00000  Uiso   1.00
C1285  C     0.24383   0.04050   0.68738   0.00000  Uiso   1.00
C1286  C     0.25052   0.45927   0.97943   0.00000  Uiso   1.00
C1287  C     0.25464   0.45987   0.69366   0.00000  Uiso   1.00
C1288  C     0.24587   0.04035   0.97273   0.00000  Uiso   1.00
C1289  C     0.37726   0.16110   0.79351   0.00000  Uiso   1.00
C1290  C     0.12127   0.34361   0.87187   0.00000  Uiso   1.00
C1291  C     0.11319   0.35857   0.79074   0.00000  Uiso   1.00
C1292  C     0.43873   0.30897   0.83184   0.00000  Uiso   1.00
C1293  C     0.38367   0.14586   0.87481   0.00000  Uiso   1.00
C1294  C     0.10192   0.12561   0.87482   0.00000  Uiso   1.00
C1295  C     0.39987   0.37608   0.79393   0.00000  Uiso   1.00
C1296  C     0.37743   0.34076   0.86719   0.00000  Uiso   1.00
C1297  C     0.11742   0.15095   0.79641   0.00000  Uiso   1.00
C1298  C     0.13321   0.40094   0.79336   0.00000  Uiso   1.00
C1299  C     0.36505   0.10296   0.87188   0.00000  Uiso   1.00
C1300  C     0.35389   0.12065   0.79039   0.00000  Uiso   1.00
C1301  C     0.13905   0.38705   0.87527   0.00000  Uiso   1.00
C1302  C     0.35445   0.38010   0.87444   0.00000  Uiso   1.00
C1303  C     0.43643   0.19492   0.83385   0.00000  Uiso   1.00
C1304  C     0.13638   0.10880   0.79091   0.00000  Uiso   1.00
C1305  C     0.12498   0.08541   0.86970   0.00000  Uiso   1.00
C1306  C     0.37559   0.41465   0.80097   0.00000  Uiso   1.00
C1307  C     0.10190   0.33378   0.83108   0.00000  Uiso   1.00
C1308  C     0.39665   0.16964   0.83476   0.00000  Uiso   1.00
C1309  C     0.40296   0.34046   0.82894   0.00000  Uiso   1.00
C1310  C     0.09641   0.15771   0.83687   0.00000  Uiso   1.00
C1311  C     0.34631   0.09227   0.83051   0.00000  Uiso   1.00
C1312  C     0.15027   0.41270   0.83501   0.00000  Uiso   1.00
C1313  C     0.14692   0.08108   0.82978   0.00000  Uiso   1.00
C1314  C     0.06318   0.30616   0.83269   0.00000  Uiso   1.00
C1315  C     0.34954   0.41385   0.83844   0.00000  Uiso   1.00
C1316  C     0.01039   0.33617   0.70615   0.00000  Uiso   1.00
C1317  C     0.48818   0.16430   0.95984   0.00000  Uiso   1.00
C1318  C     0.00306   0.16516   0.72127   0.00000  Uiso   1.00
C1319  C     0.48829   0.33370   0.94599   0.00000  Uiso   1.00
C1320  C     0.23545   0.08520   0.70751   0.00000  Uiso   1.00
C1321  C     0.24154   0.41385   0.96109   0.00000  Uiso   1.00
C1322  C     0.26613   0.41671   0.72026   0.00000  Uiso   1.00
C1323  C     0.24252   0.08377   0.94420   0.00000  Uiso   1.00
C1324  C     0.37935   0.19664   0.75500   0.00000  Uiso   1.00
C1325  C     0.31199   0.44237   0.83484   0.00000  Uiso   1.00
C1326  C     0.12828   0.30653   0.90858   0.00000  Uiso   1.00
C1327  C     0.11112   0.33686   0.74699   0.00000  Uiso   1.00
C1328  C     0.37674   0.17062   0.91604   0.00000  Uiso   1.00
C1329  C     0.08841   0.13530   0.92061   0.00000  Uiso   1.00
C1330  C     0.41723   0.37223   0.74843   0.00000  Uiso   1.00
C1331  C     0.37155   0.29807   0.89675   0.00000  Uiso   1.00
C1332  C     0.12906   0.19045   0.76486   0.00000  Uiso   1.00
C1333  C     0.12863   0.43610   0.75503   0.00000  Uiso   1.00
C1334  C     0.37020   0.06763   0.91055   0.00000  Uiso   1.00
C1335  C     0.34069   0.10783   0.74481   0.00000  Uiso   1.00
C1336  C     0.18669   0.05566   0.83221   0.00000  Uiso   1.00
C1337  C     0.13080   0.40962   0.91766   0.00000  Uiso   1.00
C1338  C     0.34125   0.38854   0.92073   0.00000  Uiso   1.00
C1339  C     0.13664   0.09044   0.74540   0.00000  Uiso   1.00
C1340  C     0.12259   0.04500   0.90301   0.00000  Uiso   1.00
C1341  C     0.38116   0.45846   0.77298   0.00000  Uiso   1.00
C1342  C     0.18717   0.44305   0.83397   0.00000  Uiso   1.00
C1343  C     0.31174   0.05868   0.83243   0.00000  Uiso   1.00
C1344  C     0.00230   0.29079   0.68722   0.00000  Uiso   1.00
H1345  H     0.03128   0.40177   0.69617   0.00000  Uiso   1.00
H1346  H     0.15074   0.28839   0.97089   0.00000  Uiso   1.00
H1347  H     0.10767   0.34400   0.67971   0.00000  Uiso   1.00
H1348  H     0.33459   0.19212   0.96014   0.00000  Uiso   1.00
H1349  H     0.08930   0.17938   0.96967   0.00000  Uiso   1.00
H1350  H     0.44623   0.40407   0.69485   0.00000  Uiso   1.00
H1351  H     0.37641   0.26594   0.95892   0.00000  Uiso   1.00
H1352  H     0.17485   0.23552   0.74483   0.00000  Uiso   1.00
H1353  H     0.09007   0.48252   0.72198   0.00000  Uiso   1.00
H1354  H     0.37507   0.05307   0.97753   0.00000  Uiso   1.00
H1355  H     0.31435   0.12765   0.68458   0.00000  Uiso   1.00
H1356  H     0.45914   0.10223   0.96621   0.00000  Uiso   1.00
H1357  H     0.08872   0.42089   0.96574   0.00000  Uiso   1.00
H1358  H     0.34213   0.43211   0.97030   0.00000  Uiso   1.00
H1359  H     0.12735   0.10228   0.67864   0.00000  Uiso   1.00
H1360  H     0.13267   0.01805   0.96645   0.00000  Uiso   1.00
H1361  H     0.40730   0.02186   0.76932   0.00000  Uiso   1.00
H1362  H     0.04027   0.11087   0.74008   0.00000  Uiso   1.00
H1363  H     0.00662   0.38637   0.90313   0.00000  Uiso   1.00
H1364  H     0.20980   0.14891   0.70126   0.00000  Uiso   1.00
H1365  H     0.21825   0.34951   0.97224   0.00000  Uiso   1.00
H1366  H     0.30900   0.36586   0.73198   0.00000  Uiso   1.00
H1367  H     0.27194   0.13389   0.90733   0.00000  Uiso   1.00
H1368  H     0.36820   0.26233   0.73255   0.00000  Uiso   1.00
N1369  N     0.00000   0.25000   0.95240   0.00000  Uiso   1.00
N1370  N     0.00000   0.25000   0.71427   0.00000  Uiso   1.00
N1371  N     0.25000  -0.00000   0.95240   0.00000  Uiso   1.00
N1372  N     0.25000  -0.00000   0.71427   0.00000  Uiso   1.00
O1373  O     0.04581   0.20419   0.87154   0.00000  Uiso   1.00
O1374  O     0.20420   0.04581   0.79513   0.00000  Uiso   1.00
O1375  O     0.20420   0.04581   0.87154   0.00000  Uiso   1.00
O1376  O     0.29581   0.45419   0.79513   0.00000  Uiso   1.00
O1377  O     0.20420   0.45419   0.79513   0.00000  Uiso   1.00
O1378  O     0.29581   0.04581   0.87154   0.00000  Uiso   1.00
O1379  O     0.29581   0.04581   0.79513   0.00000  Uiso   1.00
O1380  O     0.20420   0.45419   0.87154   0.00000  Uiso   1.00
O1381  O     0.00085   0.34279   0.74422   0.00000  Uiso   1.00
O1382  O     0.02841   0.37259   0.67981   0.00000  Uiso   1.00
O1383  O     0.00127   0.15625   0.92332   0.00000  Uiso   1.00
O1384  O     0.45420   0.29581   0.79513   0.00000  Uiso   1.00
O1385  O     0.46312   0.13098   0.98301   0.00000  Uiso   1.00
O1386  O     0.47225   0.14685   0.73923   0.00000  Uiso   1.00
O1387  O     0.04142   0.14153   0.72172   0.00000  Uiso   1.00
O1388  O     0.45356   0.35101   0.95058   0.00000  Uiso   1.00
O1389  O     0.01815   0.35690   0.91887   0.00000  Uiso   1.00
O1390  O     0.25053   0.09301   0.74365   0.00000  Uiso   1.00
O1391  O     0.21138   0.11981   0.68466   0.00000  Uiso   1.00
O1392  O     0.25151   0.40603   0.92336   0.00000  Uiso   1.00
O1393  O     0.22037   0.37949   0.98730   0.00000  Uiso   1.00
O1394  O     0.24112   0.39799   0.74653   0.00000  Uiso   1.00
O1395  O     0.45420   0.29581   0.87154   0.00000  Uiso   1.00
O1396  O     0.30473   0.39555   0.71253   0.00000  Uiso   1.00
O1397  O     0.20784   0.10077   0.93514   0.00000  Uiso   1.00
O1398  O     0.27889   0.10639   0.92896   0.00000  Uiso   1.00
O1399  O     0.39229   0.18687   0.71848   0.00000  Uiso   1.00
O1400  O     0.36718   0.24174   0.76136   0.00000  Uiso   1.00
O1401  O     0.12136   0.26632   0.90172   0.00000  Uiso   1.00
O1402  O     0.14636   0.31676   0.94955   0.00000  Uiso   1.00
O1403  O     0.11273   0.29506   0.74659   0.00000  Uiso   1.00
O1404  O     0.11019   0.36346   0.70626   0.00000  Uiso   1.00
O1405  O     0.40577   0.18835   0.93562   0.00000  Uiso   1.00
O1406  O     0.04581   0.20419   0.79513   0.00000  Uiso   1.00
O1407  O     0.33580   0.17437   0.93222   0.00000  Uiso   1.00
O1408  O     0.06904   0.10625   0.94388   0.00000  Uiso   1.00
O1409  O     0.09981   0.17687   0.93802   0.00000  Uiso   1.00
O1410  O     0.40908   0.33835   0.72807   0.00000  Uiso   1.00
O1411  O     0.44016   0.40871   0.72744   0.00000  Uiso   1.00
O1412  O     0.35604   0.26435   0.88085   0.00000  Uiso   1.00
O1413  O     0.38363   0.29630   0.94204   0.00000  Uiso   1.00
O1414  O     0.10555   0.20340   0.73368   0.00000  Uiso   1.00
O1415  O     0.16874   0.21092   0.76969   0.00000  Uiso   1.00
O1416  O     0.15535   0.43995   0.72573   0.00000  Uiso   1.00
O1417  O     0.45420   0.20419   0.79513   0.00000  Uiso   1.00
O1418  O     0.09170   0.46246   0.75116   0.00000  Uiso   1.00
O1419  O     0.37510   0.02720   0.90334   0.00000  Uiso   1.00
O1420  O     0.37106   0.08036   0.95480   0.00000  Uiso   1.00
O1421  O     0.35002   0.07015   0.73242   0.00000  Uiso   1.00
O1422  O     0.31951   0.13969   0.71518   0.00000  Uiso   1.00
O1423  O     0.15654   0.43478   0.93416   0.00000  Uiso   1.00
O1424  O     0.09193   0.40219   0.93867   0.00000  Uiso   1.00
O1425  O     0.32267   0.35886   0.94400   0.00000  Uiso   1.00
O1426  O     0.35177   0.43035   0.93825   0.00000  Uiso   1.00
O1427  O     0.14075   0.04922   0.74165   0.00000  Uiso   1.00
O1428  O     0.04581   0.29581   0.87154   0.00000  Uiso   1.00
O1429  O     0.12814   0.11935   0.70695   0.00000  Uiso   1.00
O1430  O     0.10891   0.00863   0.89086   0.00000  Uiso   1.00
O1431  O     0.13606   0.04808   0.94744   0.00000  Uiso   1.00
O1432  O     0.36884   0.46220   0.73389   0.00000  Uiso   1.00
O1433  O     0.40129   0.49521   0.79204   0.00000  Uiso   1.00
O1434  O     0.04581   0.29581   0.79513   0.00000  Uiso   1.00
O1435  O     0.45420   0.20419   0.87154   0.00000  Uiso   1.00
O1436  O     0.29581   0.45419   0.87154   0.00000  Uiso   1.00
Zn1437 Zn    0.00000   0.25000   0.88437   0.00000  Uiso   1.00
Zn1438 Zn    0.00000   0.25000   0.78229   0.00000  Uiso   1.00
Zn1439 Zn    0.25000  -0.00000   0.88437   0.00000  Uiso   1.00
Zn1440 Zn    0.25000  -0.00000   0.78229   0.00000  Uiso   1.00
C1441  C     0.56177   0.19128   0.83460   0.00000  Uiso   1.00
C1442  C     0.99729   0.20918   0.97933   0.00000  Uiso   1.00
C1443  C     0.99873   0.20942   0.69386   0.00000  Uiso   1.00
C1444  C     0.99934   0.29049   0.97279   0.00000  Uiso   1.00
C1445  C     0.74383   0.04050   0.68738   0.00000  Uiso   1.00
C1446  C     0.75052   0.45927   0.97943   0.00000  Uiso   1.00
C1447  C     0.75464   0.45987   0.69366   0.00000  Uiso   1.00
C1448  C     0.74587   0.04035   0.97273   0.00000  Uiso   1.00
C1449  C     0.87726   0.16110   0.79351   0.00000  Uiso   1.00
C1450  C     0.62127   0.34361   0.87187   0.00000  Uiso   1.00
C1451  C     0.61319   0.35857   0.79074   0.00000  Uiso   1.00
C1452  C     0.93873   0.30897   0.83184   0.00000  Uiso   1.00
C1453  C     0.88367   0.14586   0.87481   0.00000  Uiso   1.00
C1454  C     0.60192   0.12561   0.87482   0.00000  Uiso   1.00
C1455  C     0.89987   0.37608   0.79393   0.00000  Uiso   1.00
C1456  C     0.87743   0.34076   0.86719   0.00000  Uiso   1.00
C1457  C     0.61742   0.15095   0.79641   0.00000  Uiso   1.00
C1458  C     0.63321   0.40094   0.79336   0.00000  Uiso   1.00
C1459  C     0.86505   0.10296   0.87188   0.00000  Uiso   1.00
C1460  C     0.85389   0.12065   0.79039   0.00000  Uiso   1.00
C1461  C     0.63905   0.38705   0.87527   0.00000  Uiso   1.00
C1462  C     0.85445   0.38010   0.87444   0.00000  Uiso   1.00
C1463  C     0.93643   0.19492   0.83385   0.00000  Uiso   1.00
C1464  C     0.63638   0.10880   0.79091   0.00000  Uiso   1.00
C1465  C     0.62498   0.08541   0.86970   0.00000  Uiso   1.00
C1466  C     0.87559   0.41465   0.80097   0.00000  Uiso   1.00
C1467  C     0.60190   0.33378   0.83108   0.00000  Uiso   1.00
C1468  C     0.89665   0.16964   0.83476   0.00000  Uiso   1.00
C1469  C     0.90296   0.34046   0.82894   0.00000  Uiso   1.00
C1470  C     0.59641   0.15771   0.83687   0.00000  Uiso   1.00
C1471  C     0.84631   0.09227   0.83051   0.00000  Uiso   1.00
C1472  C     0.65027   0.41270   0.83501   0.00000  Uiso   1.00
C1473  C     0.64692   0.08108   0.82978   0.00000  Uiso   1.00
C1474  C     0.56318   0.30616   0.83269   0.00000  Uiso   1.00
C1475  C     0.84954   0.41385   0.83844   0.00000  Uiso   1.00
C1476  C     0.51039   0.33617   0.70615   0.00000  Uiso   1.00
C1477  C     0.98818   0.16430   0.95984   0.00000  Uiso   1.00
C1478  C     0.50306   0.16516   0.72127   0.00000  Uiso   1.00
C1479  C     0.98829   0.33370   0.94599   0.00000  Uiso   1.00
C1480  C     0.73545   0.08520   0.70751   0.00000  Uiso   1.00
C1481  C     0.74154   0.41385   0.96109   0.00000  Uiso   1.00
C1482  C     0.76613   0.41671   0.72026   0.00000  Uiso   1.00
C1483  C     0.74252   0.08377   0.94420   0.00000  Uiso   1.00
C1484  C     0.87935   0.19664   0.75500   0.00000  Uiso   1.00
C1485  C     0.81199   0.44237   0.83484   0.00000  Uiso   1.00
C1486  C     0.62828   0.30653   0.90858   0.00000  Uiso   1.00
C1487  C     0.61112   0.33686   0.74699   0.00000  Uiso   1.00
C1488  C     0.87674   0.17062   0.91604   0.00000  Uiso   1.00
C1489  C     0.58841   0.13530   0.92061   0.00000  Uiso   1.00
C1490  C     0.91723   0.37223   0.74843   0.00000  Uiso   1.00
C1491  C     0.87155   0.29807   0.89675   0.00000  Uiso   1.00
C1492  C     0.62906   0.19045   0.76486   0.00000  Uiso   1.00
C1493  C     0.62863   0.43610   0.75503   0.00000  Uiso   1.00
C1494  C     0.87020   0.06763   0.91055   0.00000  Uiso   1.00
C1495  C     0.84069   0.10783   0.74481   0.00000  Uiso   1.00
C1496  C     0.68669   0.05566   0.83221   0.00000  Uiso   1.00
C1497  C     0.63080   0.40962   0.91766   0.00000  Uiso   1.00
C1498  C     0.84125   0.38854   0.92073   0.00000  Uiso   1.00
C1499  C     0.63664   0.09044   0.74540   0.00000  Uiso   1.00
C1500  C     0.62259   0.04500   0.90301   0.00000  Uiso   1.00
C1501  C     0.88116   0.45846   0.77298   0.00000  Uiso   1.00
C1502  C     0.68717   0.44305   0.83397   0.00000  Uiso   1.00
C1503  C     0.81174   0.05868   0.83243   0.00000  Uiso   1.00
C1504  C     0.50230   0.29079   0.68722   0.00000  Uiso   1.00
H1505  H     0.53128   0.40177   0.69617   0.00000  Uiso   1.00
H1506  H     0.65074   0.28839   0.97089   0.00000  Uiso   1.00
H1507  H     0.60767   0.34400   0.67971   0.00000  Uiso   1.00
H1508  H     0.83459   0.19212   0.96014   0.00000  Uiso   1.00
H1509  H     0.58930   0.17938   0.96967   0.00000  Uiso   1.00
H1510  H     0.94623   0.40407   0.69485   0.00000  Uiso   1.00
H1511  H     0.87641   0.26594   0.95892   0.00000  Uiso   1.00
H1512  H     0.67485   0.23552   0.74483   0.00000  Uiso   1.00
H1513  H     0.59007   0.48252   0.72198   0.00000  Uiso   1.00
H1514  H     0.87507   0.05307   0.97753   0.00000  Uiso   1.00
H1515  H     0.81435   0.12765   0.68458   0.00000  Uiso   1.00
H1516  H     0.95914   0.10223   0.96621   0.00000  Uiso   1.00
H1517  H     0.58872   0.42089   0.96574   0.00000  Uiso   1.00
H1518  H     0.84213   0.43211   0.97030   0.00000  Uiso   1.00
H1519  H     0.62735   0.10228   0.67864   0.00000  Uiso   1.00
H1520  H     0.63267   0.01805   0.96645   0.00000  Uiso   1.00
H1521  H     0.90730   0.02186   0.76932   0.00000  Uiso   1.00
H1522  H     0.54027   0.11087   0.74008   0.00000  Uiso   1.00
H1523  H     0.50662   0.38637   0.90313   0.00000  Uiso   1.00
H1524  H     0.70980   0.14891   0.70126   0.00000  Uiso   1.00
H1525  H     0.71825   0.34951   0.97224   0.00000  Uiso   1.00
H1526  H     0.80900   0.36586   0.73198   0.00000  Uiso   1.00
H1527  H     0.77194   0.13389   0.90733   0.00000  Uiso   1.00
H1528  H     0.86820   0.26233   0.73255   0.00000  Uiso   1.00
N1529  N     0.50000   0.25000   0.95240   0.00000  Uiso   1.00
N1530  N     0.50000   0.25000   0.71427   0.00000  Uiso   1.00
N1531  N     0.75000  -0.00000   0.95240   0.00000  Uiso   1.00
N1532  N     0.75000  -0.00000   0.71427   0.00000  Uiso   1.00
O1533  O     0.54581   0.20419   0.87154   0.00000  Uiso   1.00
O1534  O     0.70420   0.04581   0.79513   0.00000  Uiso   1.00
O1535  O     0.70420   0.04581   0.87154   0.00000  Uiso   1.00
O1536  O     0.79581   0.45419   0.79513   0.00000  Uiso   1.00
O1537  O     0.70420   0.45419   0.79513   0.00000  Uiso   1.00
O1538  O     0.79581   0.04581   0.87154   0.00000  Uiso   1.00
O1539  O     0.79581   0.04581   0.79513   0.00000  Uiso   1.00
O1540  O     0.70420   0.45419   0.87154   0.00000  Uiso   1.00
O1541  O     0.50085   0.34279   0.74422   0.00000  Uiso   1.00
O1542  O     0.52841   0.37259   0.67981   0.00000  Uiso   1.00
O1543  O     0.50127   0.15625   0.92332   0.00000  Uiso   1.00
O1544  O     0.95420   0.29581   0.79513   0.00000  Uiso   1.00
O1545  O     0.96312   0.13098   0.98301   0.00000  Uiso   1.00
O1546  O     0.97225   0.14685   0.73923   0.00000  Uiso   1.00
O1547  O     0.54142   0.14153   0.72172   0.00000  Uiso   1.00
O1548  O     0.95356   0.35101   0.95058   0.00000  Uiso   1.00
O1549  O     0.51815   0.35690   0.91887   0.00000  Uiso   1.00
O1550  O     0.75053   0.09301   0.74365   0.00000  Uiso   1.00
O1551  O     0.71138   0.11981   0.68466   0.00000  Uiso   1.00
O1552  O     0.75151   0.40603   0.92336   0.00000  Uiso   1.00
O1553  O     0.72037   0.37949   0.98730   0.00000  Uiso   1.00
O1554  O     0.74112   0.39799   0.74653   0.00000  Uiso   1.00
O1555  O     0.95420   0.29581   0.87154   0.00000  Uiso   1.00
O1556  O     0.80473   0.39555   0.71253   0.00000  Uiso   1.00
O1557  O     0.70784   0.10077   0.93514   0.00000  Uiso   1.00
O1558  O     0.77889   0.10639   0.92896   0.00000  Uiso   1.00
O1559  O     0.89229   0.18687   0.71848   0.00000  Uiso   1.00
O1560  O     0.86718   0.24174   0.76136   0.00000  Uiso   1.00
O1561  O     0.62136   0.26632   0.90172   0.00000  Uiso   1.00
O1562  O     0.64636   0.31676   0.94955   0.00000  Uiso   1.00
O1563  O     0.61273   0.29506   0.74659   0.00000  Uiso   1.00
O1564  O     0.61019   0.36346   0.70626   0.00000  Uiso   1.00
O1565  O     0.90577   0.18835   0.93562   0.00000  Uiso   1.00
O1566  O     0.54581   0.20419   0.79513   0.00000  Uiso   1.00
O1567  O     0.83580   0.17437   0.93222   0.00000  Uiso   1.00
O1568  O     0.56904   0.10625   0.94388   0.00000  Uiso   1.00
O1569  O     0.59981   0.17687   0.93802   0.00000  Uiso   1.00
O1570  O     0.90908   0.33835   0.72807   0.00000  Uiso   1.00
O1571  O     0.94016   0.40871   0.72744   0.00000  Uiso   1.00
O1572  O     0.85604   0.26435   0.88085   0.00000  Uiso   1.00
O1573  O     0.88363   0.29630   0.94204   0.00000  Uiso   1.00
O1574  O     0.60555   0.20340   0.73368   0.00000  Uiso   1.00
O1575  O     0.66874   0.21092   0.76969   0.00000  Uiso   1.00
O1576  O     0.65535   0.43995   0.72573   0.00000  Uiso   1.00
O1577  O     0.95420   0.20419   0.79513   0.00000  Uiso   1.00
O1578  O     0.59170   0.46246   0.75116   0.00000  Uiso   1.00
O1579  O     0.87510   0.02720   0.90334   0.00000  Uiso   1.00
O1580  O     0.87106   0.08036   0.95480   0.00000  Uiso   1.00
O1581  O     0.85002   0.07015   0.73242   0.00000  Uiso   1.00
O1582  O     0.81951   0.13969   0.71518   0.00000  Uiso   1.00
O1583  O     0.65654   0.43478   0.93416   0.00000  Uiso   1.00
O1584  O     0.59193   0.40219   0.93867   0.00000  Uiso   1.00
O1585  O     0.82267   0.35886   0.94400   0.00000  Uiso   1.00
O1586  O     0.85177   0.43035   0.93825   0.00000  Uiso   1.00
O1587  O     0.64075   0.04922   0.74165   0.00000  Uiso   1.00
O1588  O     0.54581   0.29581   0.87154   0.00000  Uiso   1.00
O1589  O     0.62814   0.11935   0.70695   0.00000  Uiso   1.00
O1590  O     0.60891   0.00863   0.89086   0.00000  Uiso   1.00
O1591  O     0.63606   0.04808   0.94744   0.00000  Uiso   1.00
O1592  O     0.86884   0.46220   0.73389   0.00000  Uiso   1.00
O1593  O     0.90129   0.49521   0.79204   0.00000  Uiso   1.00
O1594  O     0.54581   0.29581   0.79513   0.00000  Uiso   1.00
O1595  O     0.95420   0.20419   0.87154   0.00000  Uiso   1.00
O1596  O     0.79581   0.45419   0.87154   0.00000  Uiso   1.00
Zn1597 Zn    0.50000   0.25000   0.88437   0.00000  Uiso   1.00
Zn1598 Zn    0.50000   0.25000   0.78229   0.00000  Uiso   1.00
Zn1599 Zn    0.75000  -0.00000   0.88437   0.00000  Uiso   1.00
Zn1600 Zn    0.75000  -0.00000   0.78229   0.00000  Uiso   1.00
C1601  C     0.06177   0.69128   0.83460   0.00000  Uiso   1.00
C1602  C     0.49729   0.70918   0.97933   0.00000  Uiso   1.00
C1603  C     0.49873   0.70942   0.69386   0.00000  Uiso   1.00
C1604  C     0.49934   0.79049   0.97279   0.00000  Uiso   1.00
C1605  C     0.24383   0.54050   0.68738   0.00000  Uiso   1.00
C1606  C     0.25052   0.95927   0.97943   0.00000  Uiso   1.00
C1607  C     0.25464   0.95987   0.69366   0.00000  Uiso   1.00
C1608  C     0.24587   0.54035   0.97273   0.00000  Uiso   1.00
C1609  C     0.37726   0.66110   0.79351   0.00000  Uiso   1.00
C1610  C     0.12127   0.84361   0.87187   0.00000  Uiso   1.00
C1611  C     0.11319   0.85857   0.79074   0.00000  Uiso   1.00
C1612  C     0.43873   0.80897   0.83184   0.00000  Uiso   1.00
C1613  C     0.38367   0.64586   0.87481   0.00000  Uiso   1.00
C1614  C     0.10192   0.62561   0.87482   0.00000  Uiso   1.00
C1615  C     0.39987   0.87608   0.79393   0.00000  Uiso   1.00
C1616  C     0.37743   0.84076   0.86719   0.00000  Uiso   1.00
C1617  C     0.11742   0.65095   0.79641   0.00000  Uiso   1.00
C1618  C     0.13321   0.90094   0.79336   0.00000  Uiso   1.00
C1619  C     0.36505   0.60296   0.87188   0.00000  Uiso   1.00
C1620  C     0.35389   0.62065   0.79039   0.00000  Uiso   1.00
C1621  C     0.13905   0.88705   0.87527   0.00000  Uiso   1.00
C1622  C     0.35445   0.88010   0.87444   0.00000  Uiso   1.00
C1623  C     0.43643   0.69492   0.83385   0.00000  Uiso   1.00
C1624  C     0.13638   0.60880   0.79091   0.00000  Uiso   1.00
C1625  C     0.12498   0.58541   0.86970   0.00000  Uiso   1.00
C1626  C     0.37559   0.91465   0.80097   0.00000  Uiso   1.00
C1627  C     0.10190   0.83378   0.83108   0.00000  Uiso   1.00
C1628  C     0.39665   0.66964   0.83476   0.00000  Uiso   1.00
C1629  C     0.40296   0.84046   0.82894   0.00000  Uiso   1.00
C1630  C     0.09641   0.65771   0.83687   0.00000  Uiso   1.00
C1631  C     0.34631   0.59227   0.83051   0.00000  Uiso   1.00
C1632  C     0.15027   0.91270   0.83501   0.00000  Uiso   1.00
C1633  C     0.14692   0.58108   0.82978   0.00000  Uiso   1.00
C1634  C     0.06318   0.80616   0.83269   0.00000  Uiso   1.00
C1635  C     0.34954   0.91385   0.83844   0.00000  Uiso   1.00
C1636  C     0.01039   0.83617   0.70615   0.00000  Uiso   1.00
C1637  C     0.48818   0.66430   0.95984   0.00000  Uiso   1.00
C1638  C     0.00306   0.66516   0.72127   0.00000  Uiso   1.00
C1639  C     0.48829   0.83370   0.94599   0.00000  Uiso   1.00
C1640  C     0.23545   0.58520   0.70751   0.00000  Uiso   1.00
C1641  C     0.24154   0.91385   0.96109   0.00000  Uiso   1.00
C1642  C     0.26613   0.91671   0.72026   0.00000  Uiso   1.00
C1643  C     0.24252   0.58377   0.94420   0.00000  Uiso   1.00
C1644  C     0.37935   0.69664   0.75500   0.00000  Uiso   1.00
C1645  C     0.31199   0.94237   0.83484   0.00000  Uiso   1.00
C1646  C     0.12828   0.80653   0.90858   0.00000  Uiso   1.00
C1647  C     0.11112   0.83686   0.74699   0.00000  Uiso   1.00
C1648  C     0.37674   0.67062   0.91604   0.00000  Uiso   1.00
C1649  C     0.08841   0.63530   0.92061   0.00000  Uiso   1.00
C1650  C     0.41723   0.87223   0.74843   0.00000  Uiso   1.00
C1651  C     0.37155   0.79807   0.89675   0.00000  Uiso   1.00
C1652  C     0.12906   0.69045   0.76486   0.00000  Uiso   1.00
C1653  C     0.12863   0.93610   0.75503   0.00000  Uiso   1.00
C1654  C     0.37020   0.56763   0.91055   0.00000  Uiso   1.00
C1655  C     0.34069   0.60783   0.74481   0.00000  Uiso   1.00
C1656  C     0.18669   0.55566   0.83221   0.00000  Uiso   1.00
C1657  C     0.13080   0.90962   0.91766   0.00000  Uiso   1.00
C1658  C     0.34125   0.88854   0.92073   0.00000  Uiso   1.00
C1659  C     0.13664   0.59044   0.74540   0.00000  Uiso   1.00
C1660  C     0.12259   0.54500   0.90301   0.00000  Uiso   1.00
C1661  C     0.38116   0.95846   0.77298   0.00000  Uiso   1.00
C1662  C     0.18717   0.94305   0.83397   0.00000  Uiso   1.00
C1663  C     0.31174   0.55868   0.83243   0.00000  Uiso   1.00
C1664  C     0.00230   0.79079   0.68722   0.00000  Uiso   1.00
H1665  H     0.03128   0.90177   0.69617   0.00000  Uiso   1.00
H1666  H     0.15074   0.78839   0.97089   0.00000  Uiso   1.00
H1667  H     0.10767   0.84400   0.67971   0.00000  Uiso   1.00
H1668  H     0.33459   0.69212   0.96014   0.00000  Uiso   1.00
H1669  H     0.08930   0.67938   0.96967   0.00000  Uiso   1.00
H1670  H     0.44623   0.90407   0.69485   0.00000  Uiso   1.00
H1671  H     0.37641   0.76594   0.95892   0.00000  Uiso   1.00
H1672  H     0.17485   0.73552   0.74483   0.00000  Uiso   1.00
H1673  H     0.09007   0.98252   0.72198   0.00000  Uiso   1.00
H1674  H     0.37507   0.55307   0.97753   0.00000  Uiso   1.00
H1675  H     0.31435   0.62765   0.68458   0.00000  Uiso   1.00
H1676  H     0.45914   0.60223   0.96621   0.00000  Uiso   1.00
H1677  H     0.08872   0.92089   0.96574   0.00000  Uiso   1.00
H1678  H     0.34213   0.93211   0.97030   0.00000  Uiso   1.00
H1679  H     0.12735   0.60228   0.67864   0.00000  Uiso   1.00
H1680  H     0.13267   0.51805   0.96645   0.00000  Uiso   1.00
H1681  H     0.40730   0.52186   0.76932   0.00000  Uiso   1.00
H1682  H     0.04027   0.61087   0.74008   0.00000  Uiso   1.00
H1683  H     0.00662   0.88637   0.90313   0.00000  Uiso   1.00
H1684  H     0.20980   0.64891   0.70126   0.00000  Uiso   1.00
H1685  H     0.21825   0.84951   0.97224   0.00000  Uiso   1.00
H1686  H     0.30900   0.86586   0.73198   0.00000  Uiso   1.00
H1687  H     0.27194   0.63389   0.90733   0.00000  Uiso   1.00
H1688  H     0.36820   0.76233   0.73255   0.00000  Uiso   1.00
N1689  N     0.00000   0.75000   0.95240   0.00000  Uiso   1.00
N1690  N     0.00000   0.75000   0.71427   0.00000  Uiso   1.00
N1691  N     0.25000   0.50000   0.95240   0.00000  Uiso   1.00
N1692  N     0.25000   0.50000   0.71427   0.00000  Uiso   1.00
O1693  O     0.04581   0.70419   0.87154   0.00000  Uiso   1.00
O1694  O     0.20420   0.54581   0.79513   0.00000  Uiso   1.00
O1695  O     0.20420   0.54581   0.87154   0.00000  Uiso   1.00
O1696  O     0.29581   0.95419   0.79513   0.00000  Uiso   1.00
O1697  O     0.20420   0.95419   0.79513   0.00000  Uiso   1.00
O1698  O     0.29581   0.54581   0.87154   0.00000  Uiso   1.00
O1699  O     0.29581   0.54581   0.79513   0.00000  Uiso   1.00
O1700  O     0.20420   0.95419   0.87154   0.00000  Uiso   1.00
O1701  O     0.00085   0.84279   0.74422   0.00000  Uiso   1.00
O1702  O     0.02841   0.87259   0.67981   0.00000  Uiso   1.00
O1703  O     0.00127   0.65625   0.92332   0.00000  Uiso   1.00
O1704  O     0.45420   0.79581   0.79513   0.00000  Uiso   1.00
O1705  O     0.46312   0.63098   0.98301   0.00000  Uiso   1.00
O1706  O     0.47225   0.64685   0.73923   0.00000  Uiso   1.00
O1707  O     0.04142   0.64153   0.72172   0.00000  Uiso   1.00
O1708  O     0.45356   0.85101   0.95058   0.00000  Uiso   1.00
O1709  O     0.01815   0.85690   0.91887   0.00000  Uiso   1.00
O1710  O     0.25053   0.59301   0.74365   0.00000  Uiso   1.00
O1711  O     0.21138   0.61981   0.68466   0.00000  Uiso   1.00
O1712  O     0.25151   0.90603   0.92336   0.00000  Uiso   1.00
O1713  O     0.22037   0.87949   0.98730   0.00000  Uiso   1.00
O1714  O     0.24112   0.89799   0.74653   0.00000  Uiso   1.00
O1715  O     0.45420   0.79581   0.87154   0.00000  Uiso   1.00
O1716  O     0.30473   0.89555   0.71253   0.00000  Uiso   1.00
O1717  O     0.20784   0.60077   0.93514   0.00000  Uiso   1.00
O1718  O     0.27889   0.60639   0.92896   0.00000  Uiso   1.00
O1719  O     0.39229   0.68687   0.71848   0.00000  Uiso   1.00
O1720  O     0.36718   0.74174   0.76136   0.00000  Uiso   1.00
O1721  O     0.12136   0.76632   0.90172   0.00000  Uiso   1.00
O1722  O     0.14636   0.81676   0.94955   0.00000  Uiso   1.00
O1723  O     0.11273   0.79506   0.74659   0.00000  Uiso   1.00
O1724  O     0.11019   0.86346   0.70626   0.00000  Uiso   1.00
O1725  O     0.40577   0.68835   0.93562   0.00000  Uiso   1.00
O1726  O     0.04581   0.70419   0.79513   0.00000  Uiso   1.00
O1727  O     0.33580   0.67437   0.93222   0.00000  Uiso   1.00
O1728  O     0.06904   0.60625   0.94388   0.00000  Uiso   1.00
O1729  O     0.09981   0.67687   0.93802   0.00000  Uiso   1.00
O1730  O     0.40908   0.83835   0.72807   0.00000  Uiso   1.00
O1731  O     0.44016   0.90871   0.72744   0.00000  Uiso   1.00
O1732  O     0.35604   0.76435   0.88085   0.00000  Uiso   1.00
O1733  O     0.38363   0.79630   0.94204   0.00000  Uiso   1.00
O1734  O     0.10555   0.70340   0.73368   0.00000  Uiso   1.00
O1735  O     0.16874   0.71092   0.76969   0.00000  Uiso   1.00
O1736  O     0.15535   0.93995   0.72573   0.00000  Uiso   1.00
O1737  O     0.45420   0.70419   0.79513   0.00000  Uiso   1.00
O1738  O     0.09170   0.96246   0.75116   0.00000  Uiso   1.00
O1739  O     0.37510   0.52720   0.90334   0.00000  Uiso   1.00
O1740  O     0.37106   0.58036   0.95480   0.00000  Uiso   1.00
O1741  O     0.35002   0.57015   0.73242   0.00000  Uiso   1.00
O1742  O     0.31951   0.63969   0.71518   0.00000  Uiso   1.00
O1743  O     0.15654   0.93478   0.93416   0.00000  Uiso   1.00
O1744  O     0.09193   0.90219   0.93867   0.00000  Uiso   1.00
O1745  O     0.32267   0.85886   0.94400   0.00000  Uiso   1.00
O1746  O     0.35177   0.93035   0.93825   0.00000  Uiso   1.00
O1747  O     0.14075   0.54922   0.74165   0.00000  Uiso   1.00
O1748  O     0.04581   0.79581   0.87154   0.00000  Uiso   1.00
O1749  O     0.12814   0.61935   0.70695   0.00000  Uiso   1.00
O1750  O     0.10891   0.50863   0.89086   0.00000  Uiso   1.00
O1751  O     0.13606   0.54808   0.94744   0.00000  Uiso   1.00
O1752  O     0.36884   0.96220   0.73389   0.00000  Uiso   1.00
O1753  O     0.40129   0.99521   0.79204   0.00000  Uiso   1.00
O1754  O     0.04581   0.79581   0.79513   0.00000  Uiso   1.00
O1755  O     0.45420   0.70419   0.87154   0.00000  Uiso   1.00
O1756  O     0.29581   0.95419   0.87154   0.00000  Uiso   1.00
Zn1757 Zn    0.00000   0.75000   0.88437   0.00000  Uiso   1.00
Zn1758 Zn    0.00000   0.75000   0.78229   0.00000  Uiso   1.00
Zn1759 Zn    0.25000   0.50000   0.88437   0.00000  Uiso   1.00
Zn1760 Zn    0.25000   0.50000   0.78229   0.00000  Uiso   1.00
C1761  C     0.56177   0.69128   0.83460   0.00000  Uiso   1.00
C1762  C     0.99729   0.70918   0.97933   0.00000  Uiso   1.00
C1763  C     0.99873   0.70942   0.69386   0.00000  Uiso   1.00
C1764  C     0.99934   0.79049   0.97279   0.00000  Uiso   1.00
C1765  C     0.74383   0.54050   0.68738   0.00000  Uiso   1.00
C1766  C     0.75052   0.95927   0.97943   0.00000  Uiso   1.00
C1767  C     0.75464   0.95987   0.69366   0.00000  Uiso   1.00
C1768  C     0.74587   0.54035   0.97273   0.00000  Uiso   1.00
C1769  C     0.87726   0.66110   0.79351   0.00000  Uiso   1.00
C1770  C     0.62127   0.84361   0.87187   0.00000  Uiso   1.00
C1771  C     0.61319   0.85857   0.79074   0.00000  Uiso   1.00
C1772  C     0.93873   0.80897   0.83184   0.00000  Uiso   1.00
C1773  C     0.88367   0.64586   0.87481   0.00000  Uiso   1.00
C1774  C     0.60192   0.62561   0.87482   0.00000  Uiso   1.00
C1775  C     0.89987   0.87608   0.79393   0.00000  Uiso   1.00
C1776  C     0.87743   0.84076   0.86719   0.00000  Uiso   1.00
C1777  C     0.61742   0.65095   0.79641   0.00000  Uiso   1.00
C1778  C     0.63321   0.90094   0.79336   0.00000  Uiso   1.00
C1779  C     0.86505   0.60296   0.87188   0.00000  Uiso   1.00
C1780  C     0.85389   0.62065   0.79039   0.00000  Uiso   1.00
C1781  C     0.63905   0.88705   0.87527   0.00000  Uiso   1.00
C1782  C     0.85445   0.88010   0.87444   0.00000  Uiso   1.00
C1783  C     0.93643   0.69492   0.83385   0.00000  Uiso   1.00
C1784  C     0.63638   0.60880   0.79091   0.00000  Uiso   1.00
C1785  C     0.62498   0.58541   0.86970   0.00000  Uiso   1.00
C1786  C     0.87559   0.91465   0.80097   0.00000  Uiso   1.00
C1787  C     0.60190   0.83378   0.83108   0.00000  Uiso   1.00
C1788  C     0.89665   0.66964   0.83476   0.00000  Uiso   1.00
C1789  C     0.90296   0.84046   0.82894   0.00000  Uiso   1.00
C1790  C     0.59641   0.65771   0.83687   0.00000  Uiso   1.00
C1791  C     0.84631   0.59227   0.83051   0.00000  Uiso   1.00
C1792  C     0.65027   0.91270   0.83501   0.00000  Uiso   1.00
C1793  C     0.64692   0.58108   0.82978   0.00000  Uiso   1.00
C1794  C     0.56318   0.80616   0.83269   0.00000  Uiso   1.00
C1795  C     0.84954   0.91385   0.83844   0.00000  Uiso   1.00
C1796  C     0.51039   0.83617   0.70615   0.00000  Uiso   1.00
C1797  C     0.98818   0.66430   0.95984   0.00000  Uiso   1.00
C1798  C     0.50306   0.66516   0.72127   0.00000  Uiso   1.00
C1799  C     0.98829   0.83370   0.94599   0.00000  Uiso   1.00
C1800  C     0.73545   0.58520   0.70751   0.00000  Uiso   1.00
C1801  C     0.74154   0.91385   0.96109   0.00000  Uiso   1.00
C1802  C     0.76613   0.91671   0.72026   0.00000  Uiso   1.00
C1803  C     0.74252   0.58377   0.94420   0.00000  Uiso   1.00
C1804  C     0.87935   0.69664   0.75500   0.00000  Uiso   1.00
C1805  C     0.81199   0.94237   0.83484   0.00000  Uiso   1.00
C1806  C     0.62828   0.80653   0.90858   0.00000  Uiso   1.00
C1807  C     0.61112   0.83686   0.74699   0.00000  Uiso   1.00
C1808  C     0.87674   0.67062   0.91604   0.00000  Uiso   1.00
C1809  C     0.58841   0.63530   0.92061   0.00000  Uiso   1.00
C1810  C     0.91723   0.87223   0.74843   0.00000  Uiso   1.00
C1811  C     0.87155   0.79807   0.89675   0.00000  Uiso   1.00
C1812  C     0.62906   0.69045   0.76486   0.00000  Uiso   1.00
C1813  C     0.62863   0.93610   0.75503   0.00000  Uiso   1.00
C1814  C     0.87020   0.56763   0.91055   0.00000  Uiso   1.00
C1815  C     0.84069   0.60783   0.74481   0.00000  Uiso   1.00
C1816  C     0.68669   0.55566   0.83221   0.00000  Uiso   1.00
C1817  C     0.63080   0.90962   0.91766   0.00000  Uiso   1.00
C1818  C     0.84125   0.88854   0.92073   0.00000  Uiso   1.00
C1819  C     0.63664   0.59044   0.74540   0.00000  Uiso   1.00
C1820  C     0.62259   0.54500   0.90301   0.00000  Uiso   1.00
C1821  C     0.88116   0.95846   0.77298   0.00000  Uiso   1.00
C1822  C     0.68717   0.94305   0.83397   0.00000  Uiso   1.00
C1823  C     0.81174   0.55868   0.83243   0.00000  Uiso   1.00
C1824  C     0.50230   0.79079   0.68722   0.00000  Uiso   1.00
H1825  H     0.53128   0.90177   0.69617   0.00000  Uiso   1.00
H1826  H     0.65074   0.78839   0.97089   0.00000  Uiso   1.00
H1827  H     0.60767   0.84400   0.67971   0.00000  Uiso   1.00
H1828  H     0.83459   0.69212   0.96014   0.00000  Uiso   1.00
H1829  H     0.58930   0.67938   0.96967   0.00000  Uiso   1.00
H1830  H     0.94623   0.90407   0.69485   0.00000  Uiso   1.00
H1831  H     0.87641   0.76594   0.95892   0.00000  Uiso   1.00
H1832  H     0.67485   0.73552   0.74483   0.00000  Uiso   1.00
H1833  H     0.59007   0.98252   0.72198   0.00000  Uiso   1.00
H1834  H     0.87507   0.55307   0.97753   0.00000  Uiso   1.00
H1835  H     0.81435   0.62765   0.68458   0.00000  Uiso   1.00
H1836  H     0.95914   0.60223   0.96621   0.00000  Uiso   1.00
H1837  H     0.58872   0.92089   0.96574   0.00000  Uiso   1.00
H1838  H     0.84213   0.93211   0.97030   0.00000  Uiso   1.00
H1839  H     0.62735   0.60228   0.67864   0.00000  Uiso   1.00
H1840  H     0.63267   0.51805   0.96645   0.00000  Uiso   1.00
H1841  H     0.90730   0.52186   0.76932   0.00000  Uiso   1.00
H1842  H     0.54027   0.61087   0.74008   0.00000  Uiso   1.00
H1843  H     0.50662   0.88637   0.90313   0.00000  Uiso   1.00
H1844  H     0.70980   0.64891   0.70126   0.00000  Uiso   1.00
H1845  H     0.71825   0.84951   0.97224   0.00000  Uiso   1.00
H1846  H     0.80900   0.86586   0.73198   0.00000  Uiso   1.00
H1847  H     0.77194   0.63389   0.90733   0.00000  Uiso   1.00
H1848  H     0.86820   0.76233   0.73255   0.00000  Uiso   1.00
N1849  N     0.50000   0.75000   0.95240   0.00000  Uiso   1.00
N1850  N     0.50000   0.75000   0.71427   0.00000  Uiso   1.00
N1851  N     0.75000   0.50000   0.95240   0.00000  Uiso   1.00
N1852  N     0.75000   0.50000   0.71427   0.00000  Uiso   1.00
O1853  O     0.54581   0.70419   0.87154   0.00000  Uiso   1.00
O1854  O     0.70420   0.54581   0.79513   0.00000  Uiso   1.00
O1855  O     0.70420   0.54581   0.87154   0.00000  Uiso   1.00
O1856  O     0.79581   0.95419   0.79513   0.00000  Uiso   1.00
O1857  O     0.70420   0.95419   0.79513   0.00000  Uiso   1.00
O1858  O     0.79581   0.54581   0.87154   0.00000  Uiso   1.00
O1859  O     0.79581   0.54581   0.79513   0.00000  Uiso   1.00
O1860  O     0.70420   0.95419   0.87154   0.00000  Uiso   1.00
O1861  O     0.50085   0.84279   0.74422   0.00000  Uiso   1.00
O1862  O     0.52841   0.87259   0.67981   0.00000  Uiso   1.00
O1863  O     0.50127   0.65625   0.92332   0.00000  Uiso   1.00
O1864  O     0.95420   0.79581   0.79513   0.00000  Uiso   1.00
O1865  O     0.96312   0.63098   0.98301   0.00000  Uiso   1.00
O1866  O     0.97225   0.64685   0.73923   0.00000  Uiso   1.00
O1867  O     0.54142   0.64153   0.72172   0.00000  Uiso   1.00
O1868  O     0.95356   0.85101   0.95058   0.00000  Uiso   1.00
O1869  O     0.51815   0.85690   0.91887   0.00000  Uiso   1.00
O1870  O     0.75053   0.59301   0.74365   0.00000  Uiso   1.00
O1871  O     0.71138   0.61981   0.68466   0.00000  Uiso   1.00
O1872  O     0.75151   0.90603   0.92336   0.00000  Uiso   1.00
O1873  O     0.72037   0.87949   0.98730   0.00000  Uiso   1.00
O1874  O     0.74112   0.89799   0.74653   0.00000  Uiso   1.00
O1875  O     0.95420   0.79581   0.87154   0.00000  Uiso   1.00
O1876  O     0.80473   0.89555   0.71253   0.00000  Uiso   1.00
O1877  O     0.70784   0.60077   0.93514   0.00000  Uiso   1.00
O1878  O     0.77889   0.60639   0.92896   0.00000  Uiso   1.00
O1879  O     0.89229   0.68687   0.71848   0.00000  Uiso   1.00
O1880  O     0.86718   0.74174   0.76136   0.00000  Uiso   1.00
O1881  O     0.62136   0.76632   0.90172   0.00000  Uiso   1.00
O1882  O     0.64636   0.81676   0.94955   0.00000  Uiso   1.00
O1883  O     0.61273   0.79506   0.74659   0.00000  Uiso   1.00
O1884  O     0.61019   0.86346   0.70626   0.00000  Uiso   1.00
O1885  O     0.90577   0.68835   0.93562   0.00000  Uiso   1.00
O1886  O     0.54581   0.70419   0.79513   0.00000  Uiso   1.00
O1887  O     0.83580   0.67437   0.93222   0.00000  Uiso   1.00
O1888  O     0.56904   0.60625   0.94388   0.00000  Uiso   1.00
O1889  O     0.59981   0.67687   0.93802   0.00000  Uiso   1.00
O1890  O     0.90908   0.83835   0.72807   0.00000  Uiso   1.00
O1891  O     0.94016   0.90871   0.72744   0.00000  Uiso   1.00
O1892  O     0.85604   0.76435   0.88085   0.00000  Uiso   1.00
O1893  O     0.88363   0.79630   0.94204   0.00000  Uiso   1.00
O1894  O     0.60555   0.70340   0.73368   0.00000  Uiso   1.00
O1895  O     0.66874   0.71092   0.76969   0.00000  Uiso   1.00
O1896  O     0.65535   0.93995   0.72573   0.00000  Uiso   1.00
O1897  O     0.95420   0.70419   0.79513   0.00000  Uiso   1.00
O1898  O     0.59170   0.96246   0.75116   0.00000  Uiso   1.00
O1899  O     0.87510   0.52720   0.90334   0.00000  Uiso   1.00
O1900  O     0.87106   0.58036   0.95480   0.00000  Uiso   1.00
O1901  O     0.85002   0.57015   0.73242   0.00000  Uiso   1.00
O1902  O     0.81951   0.63969   0.71518   0.00000  Uiso   1.00
O1903  O     0.65654   0.93478   0.93416   0.00000  Uiso   1.00
O1904  O     0.59193   0.90219   0.93867   0.00000  Uiso   1.00
O1905  O     0.82267   0.85886   0.94400   0.00000  Uiso   1.00
O1906  O     0.85177   0.93035   0.93825   0.00000  Uiso   1.00
O1907  O     0.64075   0.54922   0.74165   0.00000  Uiso   1.00
O1908  O     0.54581   0.79581   0.87154   0.00000  Uiso   1.00
O1909  O     0.62814   0.61935   0.70695   0.00000  Uiso   1.00
O1910  O     0.60891   0.50863   0.89086   0.00000  Uiso   1.00
O1911  O     0.63606   0.54808   0.94744   0.00000  Uiso   1.00
O1912  O     0.86884   0.96220   0.73389   0.00000  Uiso   1.00
O1913  O     0.90129   0.99521   0.79204   0.00000  Uiso   1.00
O1914  O     0.54581   0.79581   0.79513   0.00000  Uiso   1.00
O1915  O     0.95420   0.70419   0.87154   0.00000  Uiso   1.00
O1916  O     0.79581   0.95419   0.87154   0.00000  Uiso   1.00
Zn1917 Zn    0.50000   0.75000   0.88437   0.00000  Uiso   1.00
Zn1918 Zn    0.50000   0.75000   0.78229   0.00000  Uiso   1.00
Zn1919 Zn    0.75000   0.50000   0.88437   0.00000  Uiso   1.00
Zn1920 Zn    0.75000   0.50000   0.78229   0.00000  Uiso   1.00
loop_
_geom_bond_atom_site_label_1
_geom_bond_atom_site_label_2
_geom_bond_distance
_geom_bond_site_symmetry_2
_ccdc_geom_bond_type
C1     O126    1.306   .     A
C1     O93     1.300   .     A
C1     C30     1.467   .     S
C2     C37     1.496   .     S
C2     N249    1.389   .     A
C2     C643    1.430   .     S
C3     N250    1.369   .     A
C3     C1282   1.430   1_554 S
C3     C198    1.481   .     S
C4     C39     1.481   .     S
C4     N249    1.367   .     A
C4     C864    1.429   .     S
C5     C40     1.499   .     S
C5     C1288   1.436   1_554 S
C5     N92     1.390   .     S
C6     C41     1.494   .     S
C6     C647    1.426   .     S
C6     N411    1.385   .     S
C7     C42     1.480   .     S
C7     N412    1.370   .     A
C7     C1286   1.426   1_554 S
C8     C43     1.475   .     S
C8     N91     1.369   .     A
C8     C645    1.436   .     S
C9     C44     1.492   .     S
C9     C20     1.398   .     A
C9     C28     1.407   .     A
C10    C27     1.404   .     A
C10    C46     1.496   .     S
C10    C21     1.394   .     A
C11    C18     1.393   .     A
C11    C47     1.494   .     S
C11    C27     1.408   .     A
C12    C29     1.455   .     S
C12    O104    1.290   .     A
C12    O115    1.308   .     A
C13    C19     1.388   .     A
C13    C48     1.491   .     S
C13    C28     1.403   .     A
C14    C49     1.485   .     S
C14    C30     1.424   .     A
C14    C25     1.399   .     A
C15    C50     1.484   .     S
C15    C29     1.420   .     A
C15    C26     1.392   .     A
C16    C29     1.408   .     A
C16    C51     1.484   .     S
C16    C22     1.390   .     A
C17    C30     1.413   .     A
C17    C52     1.481   .     S
C17    C24     1.389   .     A
C18    C53     1.485   .     S
C18    C32     1.414   .     A
C19    C31     1.418   .     A
C19    C54     1.497   .     S
C20    C55     1.492   .     S
C20    C31     1.427   .     A
C21    C32     1.417   .     A
C21    C57     1.495   .     S
C22    C35     1.410   .     A
C22    C58     1.487   .     S
C23    O155    1.297   .     A
C23    C28     1.455   .     S
C23    O137    1.302   .     A
C24    C33     1.401   .     A
C24    C59     1.497   .     S
C25    C60     1.486   .     S
C25    C33     1.401   .     A
C26    C61     1.485   .     S
C26    C35     1.397   .     A
C27    C34     1.462   .     S
C31    C63     1.464   .     S
C32    C62     1.461   .     S
C33    C56     1.458   .     S
C34    O148    1.305   .     A
C34    O154    1.297   .     A
C35    C45     1.448   .     S
C36    O102    1.398   .     S
C36    O101    1.209   .     D
C36    C64     1.496   .     S
C37    O105    1.400   .     S
C37    O263    1.211   .     S
C38    O107    1.394   .     S
C38    C163    1.481   1_455 S
C38    O266    1.220   1_455 S
C39    O108    1.222   .     D
C39    O269    1.393   .     S
C40    O111    1.396   .     S
C40    O110    1.211   .     D
C41    O112    1.212   .     D
C41    O113    1.400   .     S
C42    O114    1.220   .     D
C42    O116    1.397   .     S
C43    O117    1.222   .     D
C43    O118    1.389   .     S
C44    O120    1.397   .     S
C44    O119    1.223   .     D
C45    O156    1.285   .     A
C45    O96     1.308   .     A
C46    O121    1.223   .     D
C46    O122    1.395   .     S
C47    O123    1.220   .     D
C47    O124    1.393   .     S
C48    O125    1.216   .     D
C48    O127    1.394   .     S
C49    O128    1.223   .     D
C49    O129    1.397   .     S
C50    O130    1.222   .     D
C50    O131    1.400   .     S
C51    O132    1.221   .     D
C51    O133    1.398   .     S
C52    O134    1.222   .     D
C52    O135    1.397   .     S
C53    O136    1.223   .     D
C53    O138    1.397   .     S
C54    O140    1.398   .     S
C54    O139    1.223   .     D
C55    O141    1.222   .     D
C55    O142    1.399   .     S
C56    O95     1.304   .     A
C56    O94     1.296   .     A
C57    O143    1.217   .     D
C57    O144    1.396   .     S
C58    O145    1.223   .     D
C58    O146    1.398   .     S
C59    O149    1.397   .     S
C59    O147    1.222   .     D
C60    O151    1.397   .     S
C60    O150    1.221   .     D
C61    O153    1.397   .     S
C61    O152    1.223   .     D
C62    O97     1.304   .     A
C62    O100    1.300   .     A
C63    O98     1.307   .     A
C63    O99     1.296   .     A
C64    C1444   1.429   1_454 S
C64    N90     1.389   .     S
H65    O102    1.014   .     S
H66    O122    1.014   .     S
H67    O124    1.010   .     S
H68    O127    1.014   .     S
H69    O129    1.014   .     S
H70    O131    1.013   .     S
H71    O133    1.012   .     S
H72    O135    1.013   .     S
H73    O138    1.014   .     S
H74    O140    1.014   .     S
H75    O142    1.014   .     S
H76    O105    1.014   .     S
H77    O144    1.014   .     S
H78    O146    1.013   .     S
H79    O149    1.012   .     S
H80    O151    1.014   .     S
H81    O473    1.012   1_545 S
H82    O107    1.014   .     S
H83    O109    1.014   .     S
H84    O111    1.015   .     S
H85    O113    1.013   .     S
H86    O116    1.014   .     S
H87    O118    1.014   .     S
H88    O120    1.013   .     S
N89    C162    1.389   1_455 A
N89    Zn157   2.032   .     S
N89    C164    1.367   1_455 A
N90    C163    1.369   1_455 A
N90    Zn158   2.032   .     S
N91    Zn159   2.032   .     S
N91    C326    1.385   1_545 S
N92    C327    1.370   1_545 A
N92    Zn160   2.032   .     S
O93    Zn157   2.030   .     S
O94    Zn160   2.030   .     S
O95    Zn159   1.985   .     S
O96    Zn480   1.985   .     S
O97    Zn480   1.988   .     S
O98    Zn159   1.988   .     S
O99    Zn160   2.019   .     S
O100   Zn479   2.019   .     S
O103   C197    1.211   1_455 S
O104   Zn318   2.030   .     S
O106   C198    1.220   .     S
O109   C199    1.393   1_455 S
O115   Zn317   1.985   .     S
O126   Zn158   1.985   .     S
O137   Zn318   1.988   .     S
O148   Zn157   1.988   .     S
O153   H401    1.012   .     S
O154   Zn158   2.019   .     S
O155   Zn317   2.019   .     S
O156   Zn479   2.030   .     S
Zn157  O315    2.019   1_455 S
Zn157  O275    1.985   1_455 S
Zn158  O297    1.988   1_455 S
Zn158  O264    2.030   1_455 S
Zn159  O420    2.019   1_545 S
Zn159  O476    2.030   1_545 S
Zn160  O417    1.988   1_545 S
Zn160  O416    1.985   1_545 S
C161   O286    1.306   .     A
C161   O253    1.300   .     A
C161   C190    1.467   .     S
C162   C197    1.496   .     S
C162   N89     1.389   1_655 A
C162   C803    1.430   .     S
C163   N90     1.369   1_655 A
C163   C1442   1.430   1_554 S
C163   C38     1.481   1_655 S
C164   C199    1.481   .     S
C164   N89     1.367   1_655 A
C164   C704    1.429   1_655 S
C165   C200    1.499   .     S
C165   C1448   1.436   1_554 S
C165   N252    1.390   .     S
C166   C201    1.494   .     S
C166   C807    1.426   .     S
C166   N571    1.385   .     S
C167   C202    1.480   .     S
C167   N572    1.370   .     A
C167   C1446   1.426   1_554 S
C168   C203    1.475   .     S
C168   N251    1.369   .     A
C168   C805    1.436   .     S
C169   C204    1.492   .     S
C169   C180    1.398   .     A
C169   C188    1.407   .     A
C170   C187    1.404   .     A
C170   C206    1.496   .     S
C170   C181    1.394   .     A
C171   C178    1.393   .     A
C171   C207    1.494   .     S
C171   C187    1.408   .     A
C172   C189    1.455   .     S
C172   O264    1.290   .     A
C172   O275    1.308   .     A
C173   C179    1.388   .     A
C173   C208    1.491   .     S
C173   C188    1.403   .     A
C174   C209    1.485   .     S
C174   C190    1.424   .     A
C174   C185    1.399   .     A
C175   C210    1.484   .     S
C175   C189    1.420   .     A
C175   C186    1.392   .     A
C176   C189    1.408   .     A
C176   C211    1.484   .     S
C176   C182    1.390   .     A
C177   C190    1.413   .     A
C177   C212    1.481   .     S
C177   C184    1.389   .     A
C178   C213    1.485   .     S
C178   C192    1.414   .     A
C179   C191    1.418   .     A
C179   C214    1.497   .     S
C180   C215    1.492   .     S
C180   C191    1.427   .     A
C181   C192    1.417   .     A
C181   C217    1.495   .     S
C182   C195    1.410   .     A
C182   C218    1.487   .     S
C183   O315    1.297   .     A
C183   C188    1.455   .     S
C183   O297    1.302   .     A
C184   C193    1.401   .     A
C184   C219    1.497   .     S
C185   C220    1.486   .     S
C185   C193    1.401   .     A
C186   C221    1.485   .     S
C186   C195    1.397   .     A
C187   C194    1.462   .     S
C191   C223    1.464   .     S
C192   C222    1.461   .     S
C193   C216    1.458   .     S
C194   O308    1.305   .     A
C194   O314    1.297   .     A
C195   C205    1.448   .     S
C196   O262    1.398   .     S
C196   O261    1.209   .     D
C196   C224    1.496   .     S
C197   O265    1.400   .     S
C197   O103    1.211   1_655 S
C198   O267    1.394   .     S
C199   O268    1.222   .     D
C199   O109    1.393   1_655 S
C200   O271    1.396   .     S
C200   O270    1.211   .     D
C201   O272    1.212   .     D
C201   O273    1.400   .     S
C202   O274    1.220   .     D
C202   O276    1.397   .     S
C203   O277    1.222   .     D
C203   O278    1.389   .     S
C204   O280    1.397   .     S
C204   O279    1.223   .     D
C205   O316    1.285   .     A
C205   O256    1.308   .     A
C206   O281    1.223   .     D
C206   O282    1.395   .     S
C207   O283    1.220   .     D
C207   O284    1.393   .     S
C208   O285    1.216   .     D
C208   O287    1.394   .     S
C209   O288    1.223   .     D
C209   O289    1.397   .     S
C210   O290    1.222   .     D
C210   O291    1.400   .     S
C211   O292    1.221   .     D
C211   O293    1.398   .     S
C212   O294    1.222   .     D
C212   O295    1.397   .     S
C213   O296    1.223   .     D
C213   O298    1.397   .     S
C214   O300    1.398   .     S
C214   O299    1.223   .     D
C215   O301    1.222   .     D
C215   O302    1.399   .     S
C216   O255    1.304   .     A
C216   O254    1.296   .     A
C217   O303    1.217   .     D
C217   O304    1.396   .     S
C218   O305    1.223   .     D
C218   O306    1.398   .     S
C219   O309    1.397   .     S
C219   O307    1.222   .     D
C220   O311    1.397   .     S
C220   O310    1.221   .     D
C221   O313    1.397   .     S
C221   O312    1.223   .     D
C222   O257    1.304   .     A
C222   O260    1.300   .     A
C223   O258    1.307   .     A
C223   O259    1.296   .     A
C224   C1284   1.429   1_554 S
C224   N250    1.389   .     S
H225   O262    1.014   .     S
H226   O282    1.014   .     S
H227   O284    1.010   .     S
H228   O287    1.014   .     S
H229   O289    1.014   .     S
H230   O291    1.013   .     S
H231   O293    1.012   .     S
H232   O295    1.013   .     S
H233   O298    1.014   .     S
H234   O300    1.014   .     S
H235   O302    1.014   .     S
H236   O265    1.014   .     S
H237   O304    1.014   .     S
H238   O306    1.013   .     S
H239   O309    1.012   .     S
H240   O311    1.014   .     S
H241   O633    1.012   1_545 S
H242   O267    1.014   .     S
H243   O269    1.014   .     S
H244   O271    1.015   .     S
H245   O273    1.013   .     S
H246   O276    1.014   .     S
H247   O278    1.014   .     S
H248   O280    1.013   .     S
N249   Zn317   2.032   .     S
N250   Zn318   2.032   .     S
N251   Zn319   2.032   .     S
N251   C486    1.385   1_545 S
N252   C487    1.370   1_545 A
N252   Zn320   2.032   .     S
O253   Zn317   2.030   .     S
O254   Zn320   2.030   .     S
O255   Zn319   1.985   .     S
O256   Zn640   1.985   .     S
O257   Zn640   1.988   .     S
O258   Zn319   1.988   .     S
O259   Zn320   2.019   .     S
O260   Zn639   2.019   .     S
O264   Zn158   2.030   1_655 S
O266   C38     1.220   1_655 S
O275   Zn157   1.985   1_655 S
O286   Zn318   1.985   .     S
O297   Zn158   1.988   1_655 S
O308   Zn317   1.988   .     S
O313   H561    1.012   .     S
O314   Zn318   2.019   .     S
O315   Zn157   2.019   1_655 S
O316   Zn639   2.030   .     S
Zn319  O580    2.019   1_545 S
Zn319  O636    2.030   1_545 S
Zn320  O577    1.988   1_545 S
Zn320  O576    1.985   1_545 S
C321   O446    1.306   .     A
C321   O413    1.300   .     A
C321   C350    1.467   .     S
C322   C357    1.496   .     S
C322   N569    1.389   .     A
C322   C963    1.430   .     S
C323   N570    1.369   .     A
C323   C1602   1.430   1_554 S
C323   C518    1.481   .     S
C324   C359    1.481   .     S
C324   N569    1.367   .     A
C324   C1184   1.429   .     S
C325   C360    1.499   .     S
C325   C1608   1.436   1_554 S
C325   N412    1.390   .     S
C326   C361    1.494   .     S
C326   C967    1.426   .     S
C326   N91     1.385   1_565 S
C327   C362    1.480   .     S
C327   N92     1.370   1_565 A
C327   C1606   1.426   1_554 S
C328   C363    1.475   .     S
C328   N411    1.369   .     A
C328   C965    1.436   .     S
C329   C364    1.492   .     S
C329   C340    1.398   .     A
C329   C348    1.407   .     A
C330   C347    1.404   .     A
C330   C366    1.496   .     S
C330   C341    1.394   .     A
C331   C338    1.393   .     A
C331   C367    1.494   .     S
C331   C347    1.408   .     A
C332   C349    1.455   .     S
C332   O424    1.290   .     A
C332   O435    1.308   .     A
C333   C339    1.388   .     A
C333   C368    1.491   .     S
C333   C348    1.403   .     A
C334   C369    1.485   .     S
C334   C350    1.424   .     A
C334   C345    1.399   .     A
C335   C370    1.484   .     S
C335   C349    1.420   .     A
C335   C346    1.392   .     A
C336   C349    1.408   .     A
C336   C371    1.484   .     S
C336   C342    1.390   .     A
C337   C350    1.413   .     A
C337   C372    1.481   .     S
C337   C344    1.389   .     A
C338   C373    1.485   .     S
C338   C352    1.414   .     A
C339   C351    1.418   .     A
C339   C374    1.497   .     S
C340   C375    1.492   .     S
C340   C351    1.427   .     A
C341   C352    1.417   .     A
C341   C377    1.495   .     S
C342   C355    1.410   .     A
C342   C378    1.487   .     S
C343   O475    1.297   .     A
C343   C348    1.455   .     S
C343   O457    1.302   .     A
C344   C353    1.401   .     A
C344   C379    1.497   .     S
C345   C380    1.486   .     S
C345   C353    1.401   .     A
C346   C381    1.485   .     S
C346   C355    1.397   .     A
C347   C354    1.462   .     S
C351   C383    1.464   .     S
C352   C382    1.461   .     S
C353   C376    1.458   .     S
C354   O468    1.305   .     A
C354   O474    1.297   .     A
C355   C365    1.448   .     S
C356   O422    1.398   .     S
C356   O421    1.209   .     D
C356   C384    1.496   .     S
C357   O425    1.400   .     S
C357   O583    1.211   .     S
C358   O427    1.394   .     S
C358   C483    1.481   1_455 S
C358   O586    1.220   1_455 S
C359   O428    1.222   .     D
C359   O589    1.393   .     S
C360   O431    1.396   .     S
C360   O430    1.211   .     D
C361   O432    1.212   .     D
C361   O433    1.400   .     S
C362   O434    1.220   .     D
C362   O436    1.397   .     S
C363   O437    1.222   .     D
C363   O438    1.389   .     S
C364   O440    1.397   .     S
C364   O439    1.223   .     D
C365   O476    1.285   .     A
C365   O416    1.308   .     A
C366   O441    1.223   .     D
C366   O442    1.395   .     S
C367   O443    1.220   .     D
C367   O444    1.393   .     S
C368   O445    1.216   .     D
C368   O447    1.394   .     S
C369   O448    1.223   .     D
C369   O449    1.397   .     S
C370   O450    1.222   .     D
C370   O451    1.400   .     S
C371   O452    1.221   .     D
C371   O453    1.398   .     S
C372   O454    1.222   .     D
C372   O455    1.397   .     S
C373   O456    1.223   .     D
C373   O458    1.397   .     S
C374   O460    1.398   .     S
C374   O459    1.223   .     D
C375   O461    1.222   .     D
C375   O462    1.399   .     S
C376   O415    1.304   .     A
C376   O414    1.296   .     A
C377   O463    1.217   .     D
C377   O464    1.396   .     S
C378   O465    1.223   .     D
C378   O466    1.398   .     S
C379   O469    1.397   .     S
C379   O467    1.222   .     D
C380   O471    1.397   .     S
C380   O470    1.221   .     D
C381   O473    1.397   .     S
C381   O472    1.223   .     D
C382   O417    1.304   .     A
C382   O420    1.300   .     A
C383   O418    1.307   .     A
C383   O419    1.296   .     A
C384   C1764   1.429   1_454 S
C384   N410    1.389   .     S
H385   O422    1.014   .     S
H386   O442    1.014   .     S
H387   O444    1.010   .     S
H388   O447    1.014   .     S
H389   O449    1.014   .     S
H390   O451    1.013   .     S
H391   O453    1.012   .     S
H392   O455    1.013   .     S
H393   O458    1.014   .     S
H394   O460    1.014   .     S
H395   O462    1.014   .     S
H396   O425    1.014   .     S
H397   O464    1.014   .     S
H398   O466    1.013   .     S
H399   O469    1.012   .     S
H400   O471    1.014   .     S
H402   O427    1.014   .     S
H403   O429    1.014   .     S
H404   O431    1.015   .     S
H405   O433    1.013   .     S
H406   O436    1.014   .     S
H407   O438    1.014   .     S
H408   O440    1.013   .     S
N409   C482    1.389   1_455 A
N409   Zn477   2.032   .     S
N409   C484    1.367   1_455 A
N410   C483    1.369   1_455 A
N410   Zn478   2.032   .     S
N411   Zn479   2.032   .     S
N412   Zn480   2.032   .     S
O413   Zn477   2.030   .     S
O414   Zn480   2.030   .     S
O415   Zn479   1.985   .     S
O416   Zn160   1.985   1_565 S
O417   Zn160   1.988   1_565 S
O418   Zn479   1.988   .     S
O419   Zn480   2.019   .     S
O420   Zn159   2.019   1_565 S
O423   C517    1.211   1_455 S
O424   Zn638   2.030   .     S
O426   C518    1.220   .     S
O429   C519    1.393   1_455 S
O435   Zn637   1.985   .     S
O446   Zn478   1.985   .     S
O457   Zn638   1.988   .     S
O468   Zn477   1.988   .     S
O473   H81     1.012   1_565 S
O474   Zn478   2.019   .     S
O475   Zn637   2.019   .     S
O476   Zn159   2.030   1_565 S
Zn477  O635    2.019   1_455 S
Zn477  O595    1.985   1_455 S
Zn478  O617    1.988   1_455 S
Zn478  O584    2.030   1_455 S
C481   O606    1.306   .     A
C481   O573    1.300   .     A
C481   C510    1.467   .     S
C482   C517    1.496   .     S
C482   N409    1.389   1_655 A
C482   C1123   1.430   .     S
C483   N410    1.369   1_655 A
C483   C1762   1.430   1_554 S
C483   C358    1.481   1_655 S
C484   C519    1.481   .     S
C484   N409    1.367   1_655 A
C484   C1024   1.429   1_655 S
C485   C520    1.499   .     S
C485   C1768   1.436   1_554 S
C485   N572    1.390   .     S
C486   C521    1.494   .     S
C486   C1127   1.426   .     S
C486   N251    1.385   1_565 S
C487   C522    1.480   .     S
C487   N252    1.370   1_565 A
C487   C1766   1.426   1_554 S
C488   C523    1.475   .     S
C488   N571    1.369   .     A
C488   C1125   1.436   .     S
C489   C524    1.492   .     S
C489   C500    1.398   .     A
C489   C508    1.407   .     A
C490   C507    1.404   .     A
C490   C526    1.496   .     S
C490   C501    1.394   .     A
C491   C498    1.393   .     A
C491   C527    1.494   .     S
C491   C507    1.408   .     A
C492   C509    1.455   .     S
C492   O584    1.290   .     A
C492   O595    1.308   .     A
C493   C499    1.388   .     A
C493   C528    1.491   .     S
C493   C508    1.403   .     A
C494   C529    1.485   .     S
C494   C510    1.424   .     A
C494   C505    1.399   .     A
C495   C530    1.484   .     S
C495   C509    1.420   .     A
C495   C506    1.392   .     A
C496   C509    1.408   .     A
C496   C531    1.484   .     S
C496   C502    1.390   .     A
C497   C510    1.413   .     A
C497   C532    1.481   .     S
C497   C504    1.389   .     A
C498   C533    1.485   .     S
C498   C512    1.414   .     A
C499   C511    1.418   .     A
C499   C534    1.497   .     S
C500   C535    1.492   .     S
C500   C511    1.427   .     A
C501   C512    1.417   .     A
C501   C537    1.495   .     S
C502   C515    1.410   .     A
C502   C538    1.487   .     S
C503   O635    1.297   .     A
C503   C508    1.455   .     S
C503   O617    1.302   .     A
C504   C513    1.401   .     A
C504   C539    1.497   .     S
C505   C540    1.486   .     S
C505   C513    1.401   .     A
C506   C541    1.485   .     S
C506   C515    1.397   .     A
C507   C514    1.462   .     S
C511   C543    1.464   .     S
C512   C542    1.461   .     S
C513   C536    1.458   .     S
C514   O628    1.305   .     A
C514   O634    1.297   .     A
C515   C525    1.448   .     S
C516   O582    1.398   .     S
C516   O581    1.209   .     D
C516   C544    1.496   .     S
C517   O585    1.400   .     S
C517   O423    1.211   1_655 S
C518   O587    1.394   .     S
C519   O588    1.222   .     D
C519   O429    1.393   1_655 S
C520   O591    1.396   .     S
C520   O590    1.211   .     D
C521   O592    1.212   .     D
C521   O593    1.400   .     S
C522   O594    1.220   .     D
C522   O596    1.397   .     S
C523   O597    1.222   .     D
C523   O598    1.389   .     S
C524   O600    1.397   .     S
C524   O599    1.223   .     D
C525   O636    1.285   .     A
C525   O576    1.308   .     A
C526   O601    1.223   .     D
C526   O602    1.395   .     S
C527   O603    1.220   .     D
C527   O604    1.393   .     S
C528   O605    1.216   .     D
C528   O607    1.394   .     S
C529   O608    1.223   .     D
C529   O609    1.397   .     S
C530   O610    1.222   .     D
C530   O611    1.400   .     S
C531   O612    1.221   .     D
C531   O613    1.398   .     S
C532   O614    1.222   .     D
C532   O615    1.397   .     S
C533   O616    1.223   .     D
C533   O618    1.397   .     S
C534   O620    1.398   .     S
C534   O619    1.223   .     D
C535   O621    1.222   .     D
C535   O622    1.399   .     S
C536   O575    1.304   .     A
C536   O574    1.296   .     A
C537   O623    1.217   .     D
C537   O624    1.396   .     S
C538   O625    1.223   .     D
C538   O626    1.398   .     S
C539   O629    1.397   .     S
C539   O627    1.222   .     D
C540   O631    1.397   .     S
C540   O630    1.221   .     D
C541   O633    1.397   .     S
C541   O632    1.223   .     D
C542   O577    1.304   .     A
C542   O580    1.300   .     A
C543   O578    1.307   .     A
C543   O579    1.296   .     A
C544   C1604   1.429   1_554 S
C544   N570    1.389   .     S
H545   O582    1.014   .     S
H546   O602    1.014   .     S
H547   O604    1.010   .     S
H548   O607    1.014   .     S
H549   O609    1.014   .     S
H550   O611    1.013   .     S
H551   O613    1.012   .     S
H552   O615    1.013   .     S
H553   O618    1.014   .     S
H554   O620    1.014   .     S
H555   O622    1.014   .     S
H556   O585    1.014   .     S
H557   O624    1.014   .     S
H558   O626    1.013   .     S
H559   O629    1.012   .     S
H560   O631    1.014   .     S
H562   O587    1.014   .     S
H563   O589    1.014   .     S
H564   O591    1.015   .     S
H565   O593    1.013   .     S
H566   O596    1.014   .     S
H567   O598    1.014   .     S
H568   O600    1.013   .     S
N569   Zn637   2.032   .     S
N570   Zn638   2.032   .     S
N571   Zn639   2.032   .     S
N572   Zn640   2.032   .     S
O573   Zn637   2.030   .     S
O574   Zn640   2.030   .     S
O575   Zn639   1.985   .     S
O576   Zn320   1.985   1_565 S
O577   Zn320   1.988   1_565 S
O578   Zn639   1.988   .     S
O579   Zn640   2.019   .     S
O580   Zn319   2.019   1_565 S
O584   Zn478   2.030   1_655 S
O586   C358    1.220   1_655 S
O595   Zn477   1.985   1_655 S
O606   Zn638   1.985   .     S
O617   Zn478   1.988   1_655 S
O628   Zn637   1.988   .     S
O633   H241    1.012   1_565 S
O634   Zn638   2.019   .     S
O635   Zn477   2.019   1_655 S
O636   Zn319   2.030   1_565 S
C641   O766    1.306   .     A
C641   O733    1.300   .     A
C641   C670    1.467   .     S
C642   C677    1.496   .     S
C642   N889    1.389   .     A
C642   C1283   1.430   .     S
C643   N890    1.369   .     A
C643   C838    1.481   .     S
C644   C679    1.481   .     S
C644   N889    1.367   .     A
C644   C1504   1.429   .     S
C645   C680    1.499   .     S
C645   N732    1.390   .     S
C646   C681    1.494   .     S
C646   C1287   1.426   .     S
C646   N1051   1.385   .     S
C647   C682    1.480   .     S
C647   N1052   1.370   .     A
C648   C683    1.475   .     S
C648   N731    1.369   .     A
C648   C1285   1.436   .     S
C649   C684    1.492   .     S
C649   C660    1.398   .     A
C649   C668    1.407   .     A
C650   C667    1.404   .     A
C650   C686    1.496   .     S
C650   C661    1.394   .     A
C651   C658    1.393   .     A
C651   C687    1.494   .     S
C651   C667    1.408   .     A
C652   C669    1.455   .     S
C652   O744    1.290   .     A
C652   O755    1.308   .     A
C653   C659    1.388   .     A
C653   C688    1.491   .     S
C653   C668    1.403   .     A
C654   C689    1.485   .     S
C654   C670    1.424   .     A
C654   C665    1.399   .     A
C655   C690    1.484   .     S
C655   C669    1.420   .     A
C655   C666    1.392   .     A
C656   C669    1.408   .     A
C656   C691    1.484   .     S
C656   C662    1.390   .     A
C657   C670    1.413   .     A
C657   C692    1.481   .     S
C657   C664    1.389   .     A
C658   C693    1.485   .     S
C658   C672    1.414   .     A
C659   C671    1.418   .     A
C659   C694    1.497   .     S
C660   C695    1.492   .     S
C660   C671    1.427   .     A
C661   C672    1.417   .     A
C661   C697    1.495   .     S
C662   C675    1.410   .     A
C662   C698    1.487   .     S
C663   O795    1.297   .     A
C663   C668    1.455   .     S
C663   O777    1.302   .     A
C664   C673    1.401   .     A
C664   C699    1.497   .     S
C665   C700    1.486   .     S
C665   C673    1.401   .     A
C666   C701    1.485   .     S
C666   C675    1.397   .     A
C667   C674    1.462   .     S
C671   C703    1.464   .     S
C672   C702    1.461   .     S
C673   C696    1.458   .     S
C674   O788    1.305   .     A
C674   O794    1.297   .     A
C675   C685    1.448   .     S
C676   O742    1.398   .     S
C676   O741    1.209   .     D
C676   C704    1.496   .     S
C677   O745    1.400   .     S
C677   O903    1.211   .     S
C678   O747    1.394   .     S
C678   C803    1.481   1_455 S
C678   O906    1.220   1_455 S
C679   O748    1.222   .     D
C679   O909    1.393   .     S
C680   O751    1.396   .     S
C680   O750    1.211   .     D
C681   O752    1.212   .     D
C681   O753    1.400   .     S
C682   O754    1.220   .     D
C682   O756    1.397   .     S
C683   O757    1.222   .     D
C683   O758    1.389   .     S
C684   O760    1.397   .     S
C684   O759    1.223   .     D
C685   O796    1.285   .     A
C685   O736    1.308   .     A
C686   O761    1.223   .     D
C686   O762    1.395   .     S
C687   O763    1.220   .     D
C687   O764    1.393   .     S
C688   O765    1.216   .     D
C688   O767    1.394   .     S
C689   O768    1.223   .     D
C689   O769    1.397   .     S
C690   O770    1.222   .     D
C690   O771    1.400   .     S
C691   O772    1.221   .     D
C691   O773    1.398   .     S
C692   O774    1.222   .     D
C692   O775    1.397   .     S
C693   O776    1.223   .     D
C693   O778    1.397   .     S
C694   O780    1.398   .     S
C694   O779    1.223   .     D
C695   O781    1.222   .     D
C695   O782    1.399   .     S
C696   O735    1.304   .     A
C696   O734    1.296   .     A
C697   O783    1.217   .     D
C697   O784    1.396   .     S
C698   O785    1.223   .     D
C698   O786    1.398   .     S
C699   O789    1.397   .     S
C699   O787    1.222   .     D
C700   O791    1.397   .     S
C700   O790    1.221   .     D
C701   O793    1.397   .     S
C701   O792    1.223   .     D
C702   O737    1.304   .     A
C702   O740    1.300   .     A
C703   O738    1.307   .     A
C703   O739    1.296   .     A
C704   C164    1.429   1_455 S
C704   N730    1.389   .     S
H705   O742    1.014   .     S
H706   O762    1.014   .     S
H707   O764    1.010   .     S
H708   O767    1.014   .     S
H709   O769    1.014   .     S
H710   O771    1.013   .     S
H711   O773    1.012   .     S
H712   O775    1.013   .     S
H713   O778    1.014   .     S
H714   O780    1.014   .     S
H715   O782    1.014   .     S
H716   O745    1.014   .     S
H717   O784    1.014   .     S
H718   O786    1.013   .     S
H719   O789    1.012   .     S
H720   O791    1.014   .     S
H721   O1113   1.012   1_545 S
H722   O747    1.014   .     S
H723   O749    1.014   .     S
H724   O751    1.015   .     S
H725   O753    1.013   .     S
H726   O756    1.014   .     S
H727   O758    1.014   .     S
H728   O760    1.013   .     S
N729   C802    1.389   1_455 A
N729   Zn797   2.032   .     S
N729   C804    1.367   1_455 A
N730   C803    1.369   1_455 A
N730   Zn798   2.032   .     S
N731   Zn799   2.032   .     S
N731   C966    1.385   1_545 S
N732   C967    1.370   1_545 A
N732   Zn800   2.032   .     S
O733   Zn797   2.030   .     S
O734   Zn800   2.030   .     S
O735   Zn799   1.985   .     S
O736   Zn1120  1.985   .     S
O737   Zn1120  1.988   .     S
O738   Zn799   1.988   .     S
O739   Zn800   2.019   .     S
O740   Zn1119  2.019   .     S
O743   C837    1.211   1_455 S
O744   Zn958   2.030   .     S
O746   C838    1.220   .     S
O749   C839    1.393   1_455 S
O755   Zn957   1.985   .     S
O766   Zn798   1.985   .     S
O777   Zn958   1.988   .     S
O788   Zn797   1.988   .     S
O793   H1041   1.012   .     S
O794   Zn798   2.019   .     S
O795   Zn957   2.019   .     S
O796   Zn1119  2.030   .     S
Zn797  O955    2.019   1_455 S
Zn797  O915    1.985   1_455 S
Zn798  O937    1.988   1_455 S
Zn798  O904    2.030   1_455 S
Zn799  O1060   2.019   1_545 S
Zn799  O1116   2.030   1_545 S
Zn800  O1057   1.988   1_545 S
Zn800  O1056   1.985   1_545 S
C801   O926    1.306   .     A
C801   O893    1.300   .     A
C801   C830    1.467   .     S
C802   C837    1.496   .     S
C802   N729    1.389   1_655 A
C802   C1443   1.430   .     S
C803   N730    1.369   1_655 A
C803   C678    1.481   1_655 S
C804   C839    1.481   .     S
C804   N729    1.367   1_655 A
C804   C1344   1.429   1_655 S
C805   C840    1.499   .     S
C805   N892    1.390   .     S
C806   C841    1.494   .     S
C806   C1447   1.426   .     S
C806   N1211   1.385   .     S
C807   C842    1.480   .     S
C807   N1212   1.370   .     A
C808   C843    1.475   .     S
C808   N891    1.369   .     A
C808   C1445   1.436   .     S
C809   C844    1.492   .     S
C809   C820    1.398   .     A
C809   C828    1.407   .     A
C810   C827    1.404   .     A
C810   C846    1.496   .     S
C810   C821    1.394   .     A
C811   C818    1.393   .     A
C811   C847    1.494   .     S
C811   C827    1.408   .     A
C812   C829    1.455   .     S
C812   O904    1.290   .     A
C812   O915    1.308   .     A
C813   C819    1.388   .     A
C813   C848    1.491   .     S
C813   C828    1.403   .     A
C814   C849    1.485   .     S
C814   C830    1.424   .     A
C814   C825    1.399   .     A
C815   C850    1.484   .     S
C815   C829    1.420   .     A
C815   C826    1.392   .     A
C816   C829    1.408   .     A
C816   C851    1.484   .     S
C816   C822    1.390   .     A
C817   C830    1.413   .     A
C817   C852    1.481   .     S
C817   C824    1.389   .     A
C818   C853    1.485   .     S
C818   C832    1.414   .     A
C819   C831    1.418   .     A
C819   C854    1.497   .     S
C820   C855    1.492   .     S
C820   C831    1.427   .     A
C821   C832    1.417   .     A
C821   C857    1.495   .     S
C822   C835    1.410   .     A
C822   C858    1.487   .     S
C823   O955    1.297   .     A
C823   C828    1.455   .     S
C823   O937    1.302   .     A
C824   C833    1.401   .     A
C824   C859    1.497   .     S
C825   C860    1.486   .     S
C825   C833    1.401   .     A
C826   C861    1.485   .     S
C826   C835    1.397   .     A
C827   C834    1.462   .     S
C831   C863    1.464   .     S
C832   C862    1.461   .     S
C833   C856    1.458   .     S
C834   O948    1.305   .     A
C834   O954    1.297   .     A
C835   C845    1.448   .     S
C836   O902    1.398   .     S
C836   O901    1.209   .     D
C836   C864    1.496   .     S
C837   O905    1.400   .     S
C837   O743    1.211   1_655 S
C838   O907    1.394   .     S
C839   O908    1.222   .     D
C839   O749    1.393   1_655 S
C840   O911    1.396   .     S
C840   O910    1.211   .     D
C841   O912    1.212   .     D
C841   O913    1.400   .     S
C842   O914    1.220   .     D
C842   O916    1.397   .     S
C843   O917    1.222   .     D
C843   O918    1.389   .     S
C844   O920    1.397   .     S
C844   O919    1.223   .     D
C845   O956    1.285   .     A
C845   O896    1.308   .     A
C846   O921    1.223   .     D
C846   O922    1.395   .     S
C847   O923    1.220   .     D
C847   O924    1.393   .     S
C848   O925    1.216   .     D
C848   O927    1.394   .     S
C849   O928    1.223   .     D
C849   O929    1.397   .     S
C850   O930    1.222   .     D
C850   O931    1.400   .     S
C851   O932    1.221   .     D
C851   O933    1.398   .     S
C852   O934    1.222   .     D
C852   O935    1.397   .     S
C853   O936    1.223   .     D
C853   O938    1.397   .     S
C854   O940    1.398   .     S
C854   O939    1.223   .     D
C855   O941    1.222   .     D
C855   O942    1.399   .     S
C856   O895    1.304   .     A
C856   O894    1.296   .     A
C857   O943    1.217   .     D
C857   O944    1.396   .     S
C858   O945    1.223   .     D
C858   O946    1.398   .     S
C859   O949    1.397   .     S
C859   O947    1.222   .     D
C860   O951    1.397   .     S
C860   O950    1.221   .     D
C861   O953    1.397   .     S
C861   O952    1.223   .     D
C862   O897    1.304   .     A
C862   O900    1.300   .     A
C863   O898    1.307   .     A
C863   O899    1.296   .     A
C864   N890    1.389   .     S
H865   O902    1.014   .     S
H866   O922    1.014   .     S
H867   O924    1.010   .     S
H868   O927    1.014   .     S
H869   O929    1.014   .     S
H870   O931    1.013   .     S
H871   O933    1.012   .     S
H872   O935    1.013   .     S
H873   O938    1.014   .     S
H874   O940    1.014   .     S
H875   O942    1.014   .     S
H876   O905    1.014   .     S
H877   O944    1.014   .     S
H878   O946    1.013   .     S
H879   O949    1.012   .     S
H880   O951    1.014   .     S
H881   O1273   1.012   1_545 S
H882   O907    1.014   .     S
H883   O909    1.014   .     S
H884   O911    1.015   .     S
H885   O913    1.013   .     S
H886   O916    1.014   .     S
H887   O918    1.014   .     S
H888   O920    1.013   .     S
N889   Zn957   2.032   .     S
N890   Zn958   2.032   .     S
N891   Zn959   2.032   .     S
N891   C1126   1.385   1_545 S
N892   C1127   1.370   1_545 A
N892   Zn960   2.032   .     S
O893   Zn957   2.030   .     S
O894   Zn960   2.030   .     S
O895   Zn959   1.985   .     S
O896   Zn1280  1.985   .     S
O897   Zn1280  1.988   .     S
O898   Zn959   1.988   .     S
O899   Zn960   2.019   .     S
O900   Zn1279  2.019   .     S
O904   Zn798   2.030   1_655 S
O906   C678    1.220   1_655 S
O915   Zn797   1.985   1_655 S
O926   Zn958   1.985   .     S
O937   Zn798   1.988   1_655 S
O948   Zn957   1.988   .     S
O953   H1201   1.012   .     S
O954   Zn958   2.019   .     S
O955   Zn797   2.019   1_655 S
O956   Zn1279  2.030   .     S
Zn959  O1220   2.019   1_545 S
Zn959  O1276   2.030   1_545 S
Zn960  O1217   1.988   1_545 S
Zn960  O1216   1.985   1_545 S
C961   O1086   1.306   .     A
C961   O1053   1.300   .     A
C961   C990    1.467   .     S
C962   C997    1.496   .     S
C962   N1209   1.389   .     A
C962   C1603   1.430   .     S
C963   N1210   1.369   .     A
C963   C1158   1.481   .     S
C964   C999    1.481   .     S
C964   N1209   1.367   .     A
C964   C1824   1.429   .     S
C965   C1000   1.499   .     S
C965   N1052   1.390   .     S
C966   C1001   1.494   .     S
C966   C1607   1.426   .     S
C966   N731    1.385   1_565 S
C967   C1002   1.480   .     S
C967   N732    1.370   1_565 A
C968   C1003   1.475   .     S
C968   N1051   1.369   .     A
C968   C1605   1.436   .     S
C969   C1004   1.492   .     S
C969   C980    1.398   .     A
C969   C988    1.407   .     A
C970   C987    1.404   .     A
C970   C1006   1.496   .     S
C970   C981    1.394   .     A
C971   C978    1.393   .     A
C971   C1007   1.494   .     S
C971   C987    1.408   .     A
C972   C989    1.455   .     S
C972   O1064   1.290   .     A
C972   O1075   1.308   .     A
C973   C979    1.388   .     A
C973   C1008   1.491   .     S
C973   C988    1.403   .     A
C974   C1009   1.485   .     S
C974   C990    1.424   .     A
C974   C985    1.399   .     A
C975   C1010   1.484   .     S
C975   C989    1.420   .     A
C975   C986    1.392   .     A
C976   C989    1.408   .     A
C976   C1011   1.484   .     S
C976   C982    1.390   .     A
C977   C990    1.413   .     A
C977   C1012   1.481   .     S
C977   C984    1.389   .     A
C978   C1013   1.485   .     S
C978   C992    1.414   .     A
C979   C991    1.418   .     A
C979   C1014   1.497   .     S
C980   C1015   1.492   .     S
C980   C991    1.427   .     A
C981   C992    1.417   .     A
C981   C1017   1.495   .     S
C982   C995    1.410   .     A
C982   C1018   1.487   .     S
C983   O1115   1.297   .     A
C983   C988    1.455   .     S
C983   O1097   1.302   .     A
C984   C993    1.401   .     A
C984   C1019   1.497   .     S
C985   C1020   1.486   .     S
C985   C993    1.401   .     A
C986   C1021   1.485   .     S
C986   C995    1.397   .     A
C987   C994    1.462   .     S
C991   C1023   1.464   .     S
C992   C1022   1.461   .     S
C993   C1016   1.458   .     S
C994   O1108   1.305   .     A
C994   O1114   1.297   .     A
C995   C1005   1.448   .     S
C996   O1062   1.398   .     S
C996   O1061   1.209   .     D
C996   C1024   1.496   .     S
C997   O1065   1.400   .     S
C997   O1223   1.211   .     S
C998   O1067   1.394   .     S
C998   C1123   1.481   1_455 S
C998   O1226   1.220   1_455 S
C999   O1068   1.222   .     D
C999   O1229   1.393   .     S
C1000  O1071   1.396   .     S
C1000  O1070   1.211   .     D
C1001  O1072   1.212   .     D
C1001  O1073   1.400   .     S
C1002  O1074   1.220   .     D
C1002  O1076   1.397   .     S
C1003  O1077   1.222   .     D
C1003  O1078   1.389   .     S
C1004  O1080   1.397   .     S
C1004  O1079   1.223   .     D
C1005  O1116   1.285   .     A
C1005  O1056   1.308   .     A
C1006  O1081   1.223   .     D
C1006  O1082   1.395   .     S
C1007  O1083   1.220   .     D
C1007  O1084   1.393   .     S
C1008  O1085   1.216   .     D
C1008  O1087   1.394   .     S
C1009  O1088   1.223   .     D
C1009  O1089   1.397   .     S
C1010  O1090   1.222   .     D
C1010  O1091   1.400   .     S
C1011  O1092   1.221   .     D
C1011  O1093   1.398   .     S
C1012  O1094   1.222   .     D
C1012  O1095   1.397   .     S
C1013  O1096   1.223   .     D
C1013  O1098   1.397   .     S
C1014  O1100   1.398   .     S
C1014  O1099   1.223   .     D
C1015  O1101   1.222   .     D
C1015  O1102   1.399   .     S
C1016  O1055   1.304   .     A
C1016  O1054   1.296   .     A
C1017  O1103   1.217   .     D
C1017  O1104   1.396   .     S
C1018  O1105   1.223   .     D
C1018  O1106   1.398   .     S
C1019  O1109   1.397   .     S
C1019  O1107   1.222   .     D
C1020  O1111   1.397   .     S
C1020  O1110   1.221   .     D
C1021  O1113   1.397   .     S
C1021  O1112   1.223   .     D
C1022  O1057   1.304   .     A
C1022  O1060   1.300   .     A
C1023  O1058   1.307   .     A
C1023  O1059   1.296   .     A
C1024  C484    1.429   1_455 S
C1024  N1050   1.389   .     S
H1025  O1062   1.014   .     S
H1026  O1082   1.014   .     S
H1027  O1084   1.010   .     S
H1028  O1087   1.014   .     S
H1029  O1089   1.014   .     S
H1030  O1091   1.013   .     S
H1031  O1093   1.012   .     S
H1032  O1095   1.013   .     S
H1033  O1098   1.014   .     S
H1034  O1100   1.014   .     S
H1035  O1102   1.014   .     S
H1036  O1065   1.014   .     S
H1037  O1104   1.014   .     S
H1038  O1106   1.013   .     S
H1039  O1109   1.012   .     S
H1040  O1111   1.014   .     S
H1042  O1067   1.014   .     S
H1043  O1069   1.014   .     S
H1044  O1071   1.015   .     S
H1045  O1073   1.013   .     S
H1046  O1076   1.014   .     S
H1047  O1078   1.014   .     S
H1048  O1080   1.013   .     S
N1049  C1122   1.389   1_455 A
N1049  Zn1117  2.032   .     S
N1049  C1124   1.367   1_455 A
N1050  C1123   1.369   1_455 A
N1050  Zn1118  2.032   .     S
N1051  Zn1119  2.032   .     S
N1052  Zn1120  2.032   .     S
O1053  Zn1117  2.030   .     S
O1054  Zn1120  2.030   .     S
O1055  Zn1119  1.985   .     S
O1056  Zn800   1.985   1_565 S
O1057  Zn800   1.988   1_565 S
O1058  Zn1119  1.988   .     S
O1059  Zn1120  2.019   .     S
O1060  Zn799   2.019   1_565 S
O1063  C1157   1.211   1_455 S
O1064  Zn1278  2.030   .     S
O1066  C1158   1.220   .     S
O1069  C1159   1.393   1_455 S
O1075  Zn1277  1.985   .     S
O1086  Zn1118  1.985   .     S
O1097  Zn1278  1.988   .     S
O1108  Zn1117  1.988   .     S
O1113  H721    1.012   1_565 S
O1114  Zn1118  2.019   .     S
O1115  Zn1277  2.019   .     S
O1116  Zn799   2.030   1_565 S
Zn1117 O1275   2.019   1_455 S
Zn1117 O1235   1.985   1_455 S
Zn1118 O1257   1.988   1_455 S
Zn1118 O1224   2.030   1_455 S
C1121  O1246   1.306   .     A
C1121  O1213   1.300   .     A
C1121  C1150   1.467   .     S
C1122  C1157   1.496   .     S
C1122  N1049   1.389   1_655 A
C1122  C1763   1.430   .     S
C1123  N1050   1.369   1_655 A
C1123  C998    1.481   1_655 S
C1124  C1159   1.481   .     S
C1124  N1049   1.367   1_655 A
C1124  C1664   1.429   1_655 S
C1125  C1160   1.499   .     S
C1125  N1212   1.390   .     S
C1126  C1161   1.494   .     S
C1126  C1767   1.426   .     S
C1126  N891    1.385   1_565 S
C1127  C1162   1.480   .     S
C1127  N892    1.370   1_565 A
C1128  C1163   1.475   .     S
C1128  N1211   1.369   .     A
C1128  C1765   1.436   .     S
C1129  C1164   1.492   .     S
C1129  C1140   1.398   .     A
C1129  C1148   1.407   .     A
C1130  C1147   1.404   .     A
C1130  C1166   1.496   .     S
C1130  C1141   1.394   .     A
C1131  C1138   1.393   .     A
C1131  C1167   1.494   .     S
C1131  C1147   1.408   .     A
C1132  C1149   1.455   .     S
C1132  O1224   1.290   .     A
C1132  O1235   1.308   .     A
C1133  C1139   1.388   .     A
C1133  C1168   1.491   .     S
C1133  C1148   1.403   .     A
C1134  C1169   1.485   .     S
C1134  C1150   1.424   .     A
C1134  C1145   1.399   .     A
C1135  C1170   1.484   .     S
C1135  C1149   1.420   .     A
C1135  C1146   1.392   .     A
C1136  C1149   1.408   .     A
C1136  C1171   1.484   .     S
C1136  C1142   1.390   .     A
C1137  C1150   1.413   .     A
C1137  C1172   1.481   .     S
C1137  C1144   1.389   .     A
C1138  C1173   1.485   .     S
C1138  C1152   1.414   .     A
C1139  C1151   1.418   .     A
C1139  C1174   1.497   .     S
C1140  C1175   1.492   .     S
C1140  C1151   1.427   .     A
C1141  C1152   1.417   .     A
C1141  C1177   1.495   .     S
C1142  C1155   1.410   .     A
C1142  C1178   1.487   .     S
C1143  O1275   1.297   .     A
C1143  C1148   1.455   .     S
C1143  O1257   1.302   .     A
C1144  C1153   1.401   .     A
C1144  C1179   1.497   .     S
C1145  C1180   1.486   .     S
C1145  C1153   1.401   .     A
C1146  C1181   1.485   .     S
C1146  C1155   1.397   .     A
C1147  C1154   1.462   .     S
C1151  C1183   1.464   .     S
C1152  C1182   1.461   .     S
C1153  C1176   1.458   .     S
C1154  O1268   1.305   .     A
C1154  O1274   1.297   .     A
C1155  C1165   1.448   .     S
C1156  O1222   1.398   .     S
C1156  O1221   1.209   .     D
C1156  C1184   1.496   .     S
C1157  O1225   1.400   .     S
C1157  O1063   1.211   1_655 S
C1158  O1227   1.394   .     S
C1159  O1228   1.222   .     D
C1159  O1069   1.393   1_655 S
C1160  O1231   1.396   .     S
C1160  O1230   1.211   .     D
C1161  O1232   1.212   .     D
C1161  O1233   1.400   .     S
C1162  O1234   1.220   .     D
C1162  O1236   1.397   .     S
C1163  O1237   1.222   .     D
C1163  O1238   1.389   .     S
C1164  O1240   1.397   .     S
C1164  O1239   1.223   .     D
C1165  O1276   1.285   .     A
C1165  O1216   1.308   .     A
C1166  O1241   1.223   .     D
C1166  O1242   1.395   .     S
C1167  O1243   1.220   .     D
C1167  O1244   1.393   .     S
C1168  O1245   1.216   .     D
C1168  O1247   1.394   .     S
C1169  O1248   1.223   .     D
C1169  O1249   1.397   .     S
C1170  O1250   1.222   .     D
C1170  O1251   1.400   .     S
C1171  O1252   1.221   .     D
C1171  O1253   1.398   .     S
C1172  O1254   1.222   .     D
C1172  O1255   1.397   .     S
C1173  O1256   1.223   .     D
C1173  O1258   1.397   .     S
C1174  O1260   1.398   .     S
C1174  O1259   1.223   .     D
C1175  O1261   1.222   .     D
C1175  O1262   1.399   .     S
C1176  O1215   1.304   .     A
C1176  O1214   1.296   .     A
C1177  O1263   1.217   .     D
C1177  O1264   1.396   .     S
C1178  O1265   1.223   .     D
C1178  O1266   1.398   .     S
C1179  O1269   1.397   .     S
C1179  O1267   1.222   .     D
C1180  O1271   1.397   .     S
C1180  O1270   1.221   .     D
C1181  O1273   1.397   .     S
C1181  O1272   1.223   .     D
C1182  O1217   1.304   .     A
C1182  O1220   1.300   .     A
C1183  O1218   1.307   .     A
C1183  O1219   1.296   .     A
C1184  N1210   1.389   .     S
H1185  O1222   1.014   .     S
H1186  O1242   1.014   .     S
H1187  O1244   1.010   .     S
H1188  O1247   1.014   .     S
H1189  O1249   1.014   .     S
H1190  O1251   1.013   .     S
H1191  O1253   1.012   .     S
H1192  O1255   1.013   .     S
H1193  O1258   1.014   .     S
H1194  O1260   1.014   .     S
H1195  O1262   1.014   .     S
H1196  O1225   1.014   .     S
H1197  O1264   1.014   .     S
H1198  O1266   1.013   .     S
H1199  O1269   1.012   .     S
H1200  O1271   1.014   .     S
H1202  O1227   1.014   .     S
H1203  O1229   1.014   .     S
H1204  O1231   1.015   .     S
H1205  O1233   1.013   .     S
H1206  O1236   1.014   .     S
H1207  O1238   1.014   .     S
H1208  O1240   1.013   .     S
N1209  Zn1277  2.032   .     S
N1210  Zn1278  2.032   .     S
N1211  Zn1279  2.032   .     S
N1212  Zn1280  2.032   .     S
O1213  Zn1277  2.030   .     S
O1214  Zn1280  2.030   .     S
O1215  Zn1279  1.985   .     S
O1216  Zn960   1.985   1_565 S
O1217  Zn960   1.988   1_565 S
O1218  Zn1279  1.988   .     S
O1219  Zn1280  2.019   .     S
O1220  Zn959   2.019   1_565 S
O1224  Zn1118  2.030   1_655 S
O1226  C998    1.220   1_655 S
O1235  Zn1117  1.985   1_655 S
O1246  Zn1278  1.985   .     S
O1257  Zn1118  1.988   1_655 S
O1268  Zn1277  1.988   .     S
O1273  H881    1.012   1_565 S
O1274  Zn1278  2.019   .     S
O1275  Zn1117  2.019   1_655 S
O1276  Zn959   2.030   1_565 S
C1281  O1406   1.306   .     A
C1281  O1373   1.300   .     A
C1281  C1310   1.467   .     S
C1282  C1317   1.496   .     S
C1282  N1529   1.389   .     A
C1282  C3      1.430   1_556 S
C1283  N1530   1.369   .     A
C1283  C1478   1.481   .     S
C1284  C1319   1.481   .     S
C1284  N1529   1.367   .     A
C1284  C224    1.429   1_556 S
C1285  C1320   1.499   .     S
C1285  N1372   1.390   .     S
C1286  C1321   1.494   .     S
C1286  C7      1.426   1_556 S
C1286  N1691   1.385   .     S
C1287  C1322   1.480   .     S
C1287  N1692   1.370   .     A
C1288  C1323   1.475   .     S
C1288  N1371   1.369   .     A
C1288  C5      1.436   1_556 S
C1289  C1324   1.492   .     S
C1289  C1300   1.398   .     A
C1289  C1308   1.407   .     A
C1290  C1307   1.404   .     A
C1290  C1326   1.496   .     S
C1290  C1301   1.394   .     A
C1291  C1298   1.393   .     A
C1291  C1327   1.494   .     S
C1291  C1307   1.408   .     A
C1292  C1309   1.455   .     S
C1292  O1384   1.290   .     A
C1292  O1395   1.308   .     A
C1293  C1299   1.388   .     A
C1293  C1328   1.491   .     S
C1293  C1308   1.403   .     A
C1294  C1329   1.485   .     S
C1294  C1310   1.424   .     A
C1294  C1305   1.399   .     A
C1295  C1330   1.484   .     S
C1295  C1309   1.420   .     A
C1295  C1306   1.392   .     A
C1296  C1309   1.408   .     A
C1296  C1331   1.484   .     S
C1296  C1302   1.390   .     A
C1297  C1310   1.413   .     A
C1297  C1332   1.481   .     S
C1297  C1304   1.389   .     A
C1298  C1333   1.485   .     S
C1298  C1312   1.414   .     A
C1299  C1311   1.418   .     A
C1299  C1334   1.497   .     S
C1300  C1335   1.492   .     S
C1300  C1311   1.427   .     A
C1301  C1312   1.417   .     A
C1301  C1337   1.495   .     S
C1302  C1315   1.410   .     A
C1302  C1338   1.487   .     S
C1303  O1435   1.297   .     A
C1303  C1308   1.455   .     S
C1303  O1417   1.302   .     A
C1304  C1313   1.401   .     A
C1304  C1339   1.497   .     S
C1305  C1340   1.486   .     S
C1305  C1313   1.401   .     A
C1306  C1341   1.485   .     S
C1306  C1315   1.397   .     A
C1307  C1314   1.462   .     S
C1311  C1343   1.464   .     S
C1312  C1342   1.461   .     S
C1313  C1336   1.458   .     S
C1314  O1428   1.305   .     A
C1314  O1434   1.297   .     A
C1315  C1325   1.448   .     S
C1316  O1382   1.398   .     S
C1316  O1381   1.209   .     D
C1316  C1344   1.496   .     S
C1317  O1385   1.400   .     S
C1317  O1543   1.211   .     S
C1318  O1387   1.394   .     S
C1318  C1443   1.481   1_455 S
C1318  O1546   1.220   1_455 S
C1319  O1388   1.222   .     D
C1319  O1549   1.393   .     S
C1320  O1391   1.396   .     S
C1320  O1390   1.211   .     D
C1321  O1392   1.212   .     D
C1321  O1393   1.400   .     S
C1322  O1394   1.220   .     D
C1322  O1396   1.397   .     S
C1323  O1397   1.222   .     D
C1323  O1398   1.389   .     S
C1324  O1400   1.397   .     S
C1324  O1399   1.223   .     D
C1325  O1436   1.285   .     A
C1325  O1376   1.308   .     A
C1326  O1401   1.223   .     D
C1326  O1402   1.395   .     S
C1327  O1403   1.220   .     D
C1327  O1404   1.393   .     S
C1328  O1405   1.216   .     D
C1328  O1407   1.394   .     S
C1329  O1408   1.223   .     D
C1329  O1409   1.397   .     S
C1330  O1410   1.222   .     D
C1330  O1411   1.400   .     S
C1331  O1412   1.221   .     D
C1331  O1413   1.398   .     S
C1332  O1414   1.222   .     D
C1332  O1415   1.397   .     S
C1333  O1416   1.223   .     D
C1333  O1418   1.397   .     S
C1334  O1420   1.398   .     S
C1334  O1419   1.223   .     D
C1335  O1421   1.222   .     D
C1335  O1422   1.399   .     S
C1336  O1375   1.304   .     A
C1336  O1374   1.296   .     A
C1337  O1423   1.217   .     D
C1337  O1424   1.396   .     S
C1338  O1425   1.223   .     D
C1338  O1426   1.398   .     S
C1339  O1429   1.397   .     S
C1339  O1427   1.222   .     D
C1340  O1431   1.397   .     S
C1340  O1430   1.221   .     D
C1341  O1433   1.397   .     S
C1341  O1432   1.223   .     D
C1342  O1377   1.304   .     A
C1342  O1380   1.300   .     A
C1343  O1378   1.307   .     A
C1343  O1379   1.296   .     A
C1344  C804    1.429   1_455 S
C1344  N1370   1.389   .     S
H1345  O1382   1.014   .     S
H1346  O1402   1.014   .     S
H1347  O1404   1.010   .     S
H1348  O1407   1.014   .     S
H1349  O1409   1.014   .     S
H1350  O1411   1.013   .     S
H1351  O1413   1.012   .     S
H1352  O1415   1.013   .     S
H1353  O1418   1.014   .     S
H1354  O1420   1.014   .     S
H1355  O1422   1.014   .     S
H1356  O1385   1.014   .     S
H1357  O1424   1.014   .     S
H1358  O1426   1.013   .     S
H1359  O1429   1.012   .     S
H1360  O1431   1.014   .     S
H1361  O1753   1.012   1_545 S
H1362  O1387   1.014   .     S
H1363  O1389   1.014   .     S
H1364  O1391   1.015   .     S
H1365  O1393   1.013   .     S
H1366  O1396   1.014   .     S
H1367  O1398   1.014   .     S
H1368  O1400   1.013   .     S
N1369  C1442   1.389   1_455 A
N1369  Zn1437  2.032   .     S
N1369  C1444   1.367   1_455 A
N1370  C1443   1.369   1_455 A
N1370  Zn1438  2.032   .     S
N1371  Zn1439  2.032   .     S
N1371  C1606   1.385   1_545 S
N1372  C1607   1.370   1_545 A
N1372  Zn1440  2.032   .     S
O1373  Zn1437  2.030   .     S
O1374  Zn1440  2.030   .     S
O1375  Zn1439  1.985   .     S
O1376  Zn1760  1.985   .     S
O1377  Zn1760  1.988   .     S
O1378  Zn1439  1.988   .     S
O1379  Zn1440  2.019   .     S
O1380  Zn1759  2.019   .     S
O1383  C1477   1.211   1_455 S
O1384  Zn1598  2.030   .     S
O1386  C1478   1.220   .     S
O1389  C1479   1.393   1_455 S
O1395  Zn1597  1.985   .     S
O1406  Zn1438  1.985   .     S
O1417  Zn1598  1.988   .     S
O1428  Zn1437  1.988   .     S
O1433  H1681   1.012   .     S
O1434  Zn1438  2.019   .     S
O1435  Zn1597  2.019   .     S
O1436  Zn1759  2.030   .     S
Zn1437 O1595   2.019   1_455 S
Zn1437 O1555   1.985   1_455 S
Zn1438 O1577   1.988   1_455 S
Zn1438 O1544   2.030   1_455 S
Zn1439 O1700   2.019   1_545 S
Zn1439 O1756   2.030   1_545 S
Zn1440 O1697   1.988   1_545 S
Zn1440 O1696   1.985   1_545 S
C1441  O1566   1.306   .     A
C1441  O1533   1.300   .     A
C1441  C1470   1.467   .     S
C1442  C1477   1.496   .     S
C1442  N1369   1.389   1_655 A
C1442  C163    1.430   1_556 S
C1443  N1370   1.369   1_655 A
C1443  C1318   1.481   1_655 S
C1444  C1479   1.481   .     S
C1444  N1369   1.367   1_655 A
C1444  C64     1.429   1_656 S
C1445  C1480   1.499   .     S
C1445  N1532   1.390   .     S
C1446  C1481   1.494   .     S
C1446  C167    1.426   1_556 S
C1446  N1851   1.385   .     S
C1447  C1482   1.480   .     S
C1447  N1852   1.370   .     A
C1448  C1483   1.475   .     S
C1448  N1531   1.369   .     A
C1448  C165    1.436   1_556 S
C1449  C1484   1.492   .     S
C1449  C1460   1.398   .     A
C1449  C1468   1.407   .     A
C1450  C1467   1.404   .     A
C1450  C1486   1.496   .     S
C1450  C1461   1.394   .     A
C1451  C1458   1.393   .     A
C1451  C1487   1.494   .     S
C1451  C1467   1.408   .     A
C1452  C1469   1.455   .     S
C1452  O1544   1.290   .     A
C1452  O1555   1.308   .     A
C1453  C1459   1.388   .     A
C1453  C1488   1.491   .     S
C1453  C1468   1.403   .     A
C1454  C1489   1.485   .     S
C1454  C1470   1.424   .     A
C1454  C1465   1.399   .     A
C1455  C1490   1.484   .     S
C1455  C1469   1.420   .     A
C1455  C1466   1.392   .     A
C1456  C1469   1.408   .     A
C1456  C1491   1.484   .     S
C1456  C1462   1.390   .     A
C1457  C1470   1.413   .     A
C1457  C1492   1.481   .     S
C1457  C1464   1.389   .     A
C1458  C1493   1.485   .     S
C1458  C1472   1.414   .     A
C1459  C1471   1.418   .     A
C1459  C1494   1.497   .     S
C1460  C1495   1.492   .     S
C1460  C1471   1.427   .     A
C1461  C1472   1.417   .     A
C1461  C1497   1.495   .     S
C1462  C1475   1.410   .     A
C1462  C1498   1.487   .     S
C1463  O1595   1.297   .     A
C1463  C1468   1.455   .     S
C1463  O1577   1.302   .     A
C1464  C1473   1.401   .     A
C1464  C1499   1.497   .     S
C1465  C1500   1.486   .     S
C1465  C1473   1.401   .     A
C1466  C1501   1.485   .     S
C1466  C1475   1.397   .     A
C1467  C1474   1.462   .     S
C1471  C1503   1.464   .     S
C1472  C1502   1.461   .     S
C1473  C1496   1.458   .     S
C1474  O1588   1.305   .     A
C1474  O1594   1.297   .     A
C1475  C1485   1.448   .     S
C1476  O1542   1.398   .     S
C1476  O1541   1.209   .     D
C1476  C1504   1.496   .     S
C1477  O1545   1.400   .     S
C1477  O1383   1.211   1_655 S
C1478  O1547   1.394   .     S
C1479  O1548   1.222   .     D
C1479  O1389   1.393   1_655 S
C1480  O1551   1.396   .     S
C1480  O1550   1.211   .     D
C1481  O1552   1.212   .     D
C1481  O1553   1.400   .     S
C1482  O1554   1.220   .     D
C1482  O1556   1.397   .     S
C1483  O1557   1.222   .     D
C1483  O1558   1.389   .     S
C1484  O1560   1.397   .     S
C1484  O1559   1.223   .     D
C1485  O1596   1.285   .     A
C1485  O1536   1.308   .     A
C1486  O1561   1.223   .     D
C1486  O1562   1.395   .     S
C1487  O1563   1.220   .     D
C1487  O1564   1.393   .     S
C1488  O1565   1.216   .     D
C1488  O1567   1.394   .     S
C1489  O1568   1.223   .     D
C1489  O1569   1.397   .     S
C1490  O1570   1.222   .     D
C1490  O1571   1.400   .     S
C1491  O1572   1.221   .     D
C1491  O1573   1.398   .     S
C1492  O1574   1.222   .     D
C1492  O1575   1.397   .     S
C1493  O1576   1.223   .     D
C1493  O1578   1.397   .     S
C1494  O1580   1.398   .     S
C1494  O1579   1.223   .     D
C1495  O1581   1.222   .     D
C1495  O1582   1.399   .     S
C1496  O1535   1.304   .     A
C1496  O1534   1.296   .     A
C1497  O1583   1.217   .     D
C1497  O1584   1.396   .     S
C1498  O1585   1.223   .     D
C1498  O1586   1.398   .     S
C1499  O1589   1.397   .     S
C1499  O1587   1.222   .     D
C1500  O1591   1.397   .     S
C1500  O1590   1.221   .     D
C1501  O1593   1.397   .     S
C1501  O1592   1.223   .     D
C1502  O1537   1.304   .     A
C1502  O1540   1.300   .     A
C1503  O1538   1.307   .     A
C1503  O1539   1.296   .     A
C1504  N1530   1.389   .     S
H1505  O1542   1.014   .     S
H1506  O1562   1.014   .     S
H1507  O1564   1.010   .     S
H1508  O1567   1.014   .     S
H1509  O1569   1.014   .     S
H1510  O1571   1.013   .     S
H1511  O1573   1.012   .     S
H1512  O1575   1.013   .     S
H1513  O1578   1.014   .     S
H1514  O1580   1.014   .     S
H1515  O1582   1.014   .     S
H1516  O1545   1.014   .     S
H1517  O1584   1.014   .     S
H1518  O1586   1.013   .     S
H1519  O1589   1.012   .     S
H1520  O1591   1.014   .     S
H1521  O1913   1.012   1_545 S
H1522  O1547   1.014   .     S
H1523  O1549   1.014   .     S
H1524  O1551   1.015   .     S
H1525  O1553   1.013   .     S
H1526  O1556   1.014   .     S
H1527  O1558   1.014   .     S
H1528  O1560   1.013   .     S
N1529  Zn1597  2.032   .     S
N1530  Zn1598  2.032   .     S
N1531  Zn1599  2.032   .     S
N1531  C1766   1.385   1_545 S
N1532  C1767   1.370   1_545 A
N1532  Zn1600  2.032   .     S
O1533  Zn1597  2.030   .     S
O1534  Zn1600  2.030   .     S
O1535  Zn1599  1.985   .     S
O1536  Zn1920  1.985   .     S
O1537  Zn1920  1.988   .     S
O1538  Zn1599  1.988   .     S
O1539  Zn1600  2.019   .     S
O1540  Zn1919  2.019   .     S
O1544  Zn1438  2.030   1_655 S
O1546  C1318   1.220   1_655 S
O1555  Zn1437  1.985   1_655 S
O1566  Zn1598  1.985   .     S
O1577  Zn1438  1.988   1_655 S
O1588  Zn1597  1.988   .     S
O1593  H1841   1.012   .     S
O1594  Zn1598  2.019   .     S
O1595  Zn1437  2.019   1_655 S
O1596  Zn1919  2.030   .     S
Zn1599 O1860   2.019   1_545 S
Zn1599 O1916   2.030   1_545 S
Zn1600 O1857   1.988   1_545 S
Zn1600 O1856   1.985   1_545 S
C1601  O1726   1.306   .     A
C1601  O1693   1.300   .     A
C1601  C1630   1.467   .     S
C1602  C1637   1.496   .     S
C1602  N1849   1.389   .     A
C1602  C323    1.430   1_556 S
C1603  N1850   1.369   .     A
C1603  C1798   1.481   .     S
C1604  C1639   1.481   .     S
C1604  N1849   1.367   .     A
C1604  C544    1.429   1_556 S
C1605  C1640   1.499   .     S
C1605  N1692   1.390   .     S
C1606  C1641   1.494   .     S
C1606  C327    1.426   1_556 S
C1606  N1371   1.385   1_565 S
C1607  C1642   1.480   .     S
C1607  N1372   1.370   1_565 A
C1608  C1643   1.475   .     S
C1608  N1691   1.369   .     A
C1608  C325    1.436   1_556 S
C1609  C1644   1.492   .     S
C1609  C1620   1.398   .     A
C1609  C1628   1.407   .     A
C1610  C1627   1.404   .     A
C1610  C1646   1.496   .     S
C1610  C1621   1.394   .     A
C1611  C1618   1.393   .     A
C1611  C1647   1.494   .     S
C1611  C1627   1.408   .     A
C1612  C1629   1.455   .     S
C1612  O1704   1.290   .     A
C1612  O1715   1.308   .     A
C1613  C1619   1.388   .     A
C1613  C1648   1.491   .     S
C1613  C1628   1.403   .     A
C1614  C1649   1.485   .     S
C1614  C1630   1.424   .     A
C1614  C1625   1.399   .     A
C1615  C1650   1.484   .     S
C1615  C1629   1.420   .     A
C1615  C1626   1.392   .     A
C1616  C1629   1.408   .     A
C1616  C1651   1.484   .     S
C1616  C1622   1.390   .     A
C1617  C1630   1.413   .     A
C1617  C1652   1.481   .     S
C1617  C1624   1.389   .     A
C1618  C1653   1.485   .     S
C1618  C1632   1.414   .     A
C1619  C1631   1.418   .     A
C1619  C1654   1.497   .     S
C1620  C1655   1.492   .     S
C1620  C1631   1.427   .     A
C1621  C1632   1.417   .     A
C1621  C1657   1.495   .     S
C1622  C1635   1.410   .     A
C1622  C1658   1.487   .     S
C1623  O1755   1.297   .     A
C1623  C1628   1.455   .     S
C1623  O1737   1.302   .     A
C1624  C1633   1.401   .     A
C1624  C1659   1.497   .     S
C1625  C1660   1.486   .     S
C1625  C1633   1.401   .     A
C1626  C1661   1.485   .     S
C1626  C1635   1.397   .     A
C1627  C1634   1.462   .     S
C1631  C1663   1.464   .     S
C1632  C1662   1.461   .     S
C1633  C1656   1.458   .     S
C1634  O1748   1.305   .     A
C1634  O1754   1.297   .     A
C1635  C1645   1.448   .     S
C1636  O1702   1.398   .     S
C1636  O1701   1.209   .     D
C1636  C1664   1.496   .     S
C1637  O1705   1.400   .     S
C1637  O1863   1.211   .     S
C1638  O1707   1.394   .     S
C1638  C1763   1.481   1_455 S
C1638  O1866   1.220   1_455 S
C1639  O1708   1.222   .     D
C1639  O1869   1.393   .     S
C1640  O1711   1.396   .     S
C1640  O1710   1.211   .     D
C1641  O1712   1.212   .     D
C1641  O1713   1.400   .     S
C1642  O1714   1.220   .     D
C1642  O1716   1.397   .     S
C1643  O1717   1.222   .     D
C1643  O1718   1.389   .     S
C1644  O1720   1.397   .     S
C1644  O1719   1.223   .     D
C1645  O1756   1.285   .     A
C1645  O1696   1.308   .     A
C1646  O1721   1.223   .     D
C1646  O1722   1.395   .     S
C1647  O1723   1.220   .     D
C1647  O1724   1.393   .     S
C1648  O1725   1.216   .     D
C1648  O1727   1.394   .     S
C1649  O1728   1.223   .     D
C1649  O1729   1.397   .     S
C1650  O1730   1.222   .     D
C1650  O1731   1.400   .     S
C1651  O1732   1.221   .     D
C1651  O1733   1.398   .     S
C1652  O1734   1.222   .     D
C1652  O1735   1.397   .     S
C1653  O1736   1.223   .     D
C1653  O1738   1.397   .     S
C1654  O1740   1.398   .     S
C1654  O1739   1.223   .     D
C1655  O1741   1.222   .     D
C1655  O1742   1.399   .     S
C1656  O1695   1.304   .     A
C1656  O1694   1.296   .     A
C1657  O1743   1.217   .     D
C1657  O1744   1.396   .     S
C1658  O1745   1.223   .     D
C1658  O1746   1.398   .     S
C1659  O1749   1.397   .     S
C1659  O1747   1.222   .     D
C1660  O1751   1.397   .     S
C1660  O1750   1.221   .     D
C1661  O1753   1.397   .     S
C1661  O1752   1.223   .     D
C1662  O1697   1.304   .     A
C1662  O1700   1.300   .     A
C1663  O1698   1.307   .     A
C1663  O1699   1.296   .     A
C1664  C1124   1.429   1_455 S
C1664  N1690   1.389   .     S
H1665  O1702   1.014   .     S
H1666  O1722   1.014   .     S
H1667  O1724   1.010   .     S
H1668  O1727   1.014   .     S
H1669  O1729   1.014   .     S
H1670  O1731   1.013   .     S
H1671  O1733   1.012   .     S
H1672  O1735   1.013   .     S
H1673  O1738   1.014   .     S
H1674  O1740   1.014   .     S
H1675  O1742   1.014   .     S
H1676  O1705   1.014   .     S
H1677  O1744   1.014   .     S
H1678  O1746   1.013   .     S
H1679  O1749   1.012   .     S
H1680  O1751   1.014   .     S
H1682  O1707   1.014   .     S
H1683  O1709   1.014   .     S
H1684  O1711   1.015   .     S
H1685  O1713   1.013   .     S
H1686  O1716   1.014   .     S
H1687  O1718   1.014   .     S
H1688  O1720   1.013   .     S
N1689  C1762   1.389   1_455 A
N1689  Zn1757  2.032   .     S
N1689  C1764   1.367   1_455 A
N1690  C1763   1.369   1_455 A
N1690  Zn1758  2.032   .     S
N1691  Zn1759  2.032   .     S
N1692  Zn1760  2.032   .     S
O1693  Zn1757  2.030   .     S
O1694  Zn1760  2.030   .     S
O1695  Zn1759  1.985   .     S
O1696  Zn1440  1.985   1_565 S
O1697  Zn1440  1.988   1_565 S
O1698  Zn1759  1.988   .     S
O1699  Zn1760  2.019   .     S
O1700  Zn1439  2.019   1_565 S
O1703  C1797   1.211   1_455 S
O1704  Zn1918  2.030   .     S
O1706  C1798   1.220   .     S
O1709  C1799   1.393   1_455 S
O1715  Zn1917  1.985   .     S
O1726  Zn1758  1.985   .     S
O1737  Zn1918  1.988   .     S
O1748  Zn1757  1.988   .     S
O1753  H1361   1.012   1_565 S
O1754  Zn1758  2.019   .     S
O1755  Zn1917  2.019   .     S
O1756  Zn1439  2.030   1_565 S
Zn1757 O1915   2.019   1_455 S
Zn1757 O1875   1.985   1_455 S
Zn1758 O1897   1.988   1_455 S
Zn1758 O1864   2.030   1_455 S
C1761  O1886   1.306   .     A
C1761  O1853   1.300   .     A
C1761  C1790   1.467   .     S
C1762  C1797   1.496   .     S
C1762  N1689   1.389   1_655 A
C1762  C483    1.430   1_556 S
C1763  N1690   1.369   1_655 A
C1763  C1638   1.481   1_655 S
C1764  C1799   1.481   .     S
C1764  N1689   1.367   1_655 A
C1764  C384    1.429   1_656 S
C1765  C1800   1.499   .     S
C1765  N1852   1.390   .     S
C1766  C1801   1.494   .     S
C1766  C487    1.426   1_556 S
C1766  N1531   1.385   1_565 S
C1767  C1802   1.480   .     S
C1767  N1532   1.370   1_565 A
C1768  C1803   1.475   .     S
C1768  N1851   1.369   .     A
C1768  C485    1.436   1_556 S
C1769  C1804   1.492   .     S
C1769  C1780   1.398   .     A
C1769  C1788   1.407   .     A
C1770  C1787   1.404   .     A
C1770  C1806   1.496   .     S
C1770  C1781   1.394   .     A
C1771  C1778   1.393   .     A
C1771  C1807   1.494   .     S
C1771  C1787   1.408   .     A
C1772  C1789   1.455   .     S
C1772  O1864   1.290   .     A
C1772  O1875   1.308   .     A
C1773  C1779   1.388   .     A
C1773  C1808   1.491   .     S
C1773  C1788   1.403   .     A
C1774  C1809   1.485   .     S
C1774  C1790   1.424   .     A
C1774  C1785   1.399   .     A
C1775  C1810   1.484   .     S
C1775  C1789   1.420   .     A
C1775  C1786   1.392   .     A
C1776  C1789   1.408   .     A
C1776  C1811   1.484   .     S
C1776  C1782   1.390   .     A
C1777  C1790   1.413   .     A
C1777  C1812   1.481   .     S
C1777  C1784   1.389   .     A
C1778  C1813   1.485   .     S
C1778  C1792   1.414   .     A
C1779  C1791   1.418   .     A
C1779  C1814   1.497   .     S
C1780  C1815   1.492   .     S
C1780  C1791   1.427   .     A
C1781  C1792   1.417   .     A
C1781  C1817   1.495   .     S
C1782  C1795   1.410   .     A
C1782  C1818   1.487   .     S
C1783  O1915   1.297   .     A
C1783  C1788   1.455   .     S
C1783  O1897   1.302   .     A
C1784  C1793   1.401   .     A
C1784  C1819   1.497   .     S
C1785  C1820   1.486   .     S
C1785  C1793   1.401   .     A
C1786  C1821   1.485   .     S
C1786  C1795   1.397   .     A
C1787  C1794   1.462   .     S
C1791  C1823   1.464   .     S
C1792  C1822   1.461   .     S
C1793  C1816   1.458   .     S
C1794  O1908   1.305   .     A
C1794  O1914   1.297   .     A
C1795  C1805   1.448   .     S
C1796  O1862   1.398   .     S
C1796  O1861   1.209   .     D
C1796  C1824   1.496   .     S
C1797  O1865   1.400   .     S
C1797  O1703   1.211   1_655 S
C1798  O1867   1.394   .     S
C1799  O1868   1.222   .     D
C1799  O1709   1.393   1_655 S
C1800  O1871   1.396   .     S
C1800  O1870   1.211   .     D
C1801  O1872   1.212   .     D
C1801  O1873   1.400   .     S
C1802  O1874   1.220   .     D
C1802  O1876   1.397   .     S
C1803  O1877   1.222   .     D
C1803  O1878   1.389   .     S
C1804  O1880   1.397   .     S
C1804  O1879   1.223   .     D
C1805  O1916   1.285   .     A
C1805  O1856   1.308   .     A
C1806  O1881   1.223   .     D
C1806  O1882   1.395   .     S
C1807  O1883   1.220   .     D
C1807  O1884   1.393   .     S
C1808  O1885   1.216   .     D
C1808  O1887   1.394   .     S
C1809  O1888   1.223   .     D
C1809  O1889   1.397   .     S
C1810  O1890   1.222   .     D
C1810  O1891   1.400   .     S
C1811  O1892   1.221   .     D
C1811  O1893   1.398   .     S
C1812  O1894   1.222   .     D
C1812  O1895   1.397   .     S
C1813  O1896   1.223   .     D
C1813  O1898   1.397   .     S
C1814  O1900   1.398   .     S
C1814  O1899   1.223   .     D
C1815  O1901   1.222   .     D
C1815  O1902   1.399   .     S
C1816  O1855   1.304   .     A
C1816  O1854   1.296   .     A
C1817  O1903   1.217   .     D
C1817  O1904   1.396   .     S
C1818  O1905   1.223   .     D
C1818  O1906   1.398   .     S
C1819  O1909   1.397   .     S
C1819  O1907   1.222   .     D
C1820  O1911   1.397   .     S
C1820  O1910   1.221   .     D
C1821  O1913   1.397   .     S
C1821  O1912   1.223   .     D
C1822  O1857   1.304   .     A
C1822  O1860   1.300   .     A
C1823  O1858   1.307   .     A
C1823  O1859   1.296   .     A
C1824  N1850   1.389   .     S
H1825  O1862   1.014   .     S
H1826  O1882   1.014   .     S
H1827  O1884   1.010   .     S
H1828  O1887   1.014   .     S
H1829  O1889   1.014   .     S
H1830  O1891   1.013   .     S
H1831  O1893   1.012   .     S
H1832  O1895   1.013   .     S
H1833  O1898   1.014   .     S
H1834  O1900   1.014   .     S
H1835  O1902   1.014   .     S
H1836  O1865   1.014   .     S
H1837  O1904   1.014   .     S
H1838  O1906   1.013   .     S
H1839  O1909   1.012   .     S
H1840  O1911   1.014   .     S
H1842  O1867   1.014   .     S
H1843  O1869   1.014   .     S
H1844  O1871   1.015   .     S
H1845  O1873   1.013   .     S
H1846  O1876   1.014   .     S
H1847  O1878   1.014   .     S
H1848  O1880   1.013   .     S
N1849  Zn1917  2.032   .     S
N1850  Zn1918  2.032   .     S
N1851  Zn1919  2.032   .     S
N1852  Zn1920  2.032   .     S
O1853  Zn1917  2.030   .     S
O1854  Zn1920  2.030   .     S
O1855  Zn1919  1.985   .     S
O1856  Zn1600  1.985   1_565 S
O1857  Zn1600  1.988   1_565 S
O1858  Zn1919  1.988   .     S
O1859  Zn1920  2.019   .     S
O1860  Zn1599  2.019   1_565 S
O1864  Zn1758  2.030   1_655 S
O1866  C1638   1.220   1_655 S
O1875  Zn1757  1.985   1_655 S
O1886  Zn1918  1.985   .     S
O1897  Zn1758  1.988   1_655 S
O1908  Zn1917  1.988   .     S
O1913  H1521   1.012   1_565 S
O1914  Zn1918  2.019   .     S
O1915  Zn1757  2.019   1_655 S
O1916  Zn1599  2.030   1_565 S
