data_str_m3_o10_o17_pcu_sym.157
_audit_creation_date              2020-01-03
_audit_creation_method            'Materials Studio'
_symmetry_space_group_name_H-M    'P1'
_symmetry_Int_Tables_number       1
_symmetry_cell_setting            triclinic
loop_
_symmetry_equiv_pos_as_xyz
  x,y,z
_cell_length_a                    23.2803
_cell_length_b                    25.7021
_cell_length_c                    29.8729
_cell_angle_alpha                 91.1528
_cell_angle_beta                  85.5716
_cell_angle_gamma                 93.8256
loop_
_atom_site_label
_atom_site_type_symbol
_atom_site_fract_x
_atom_site_fract_y
_atom_site_fract_z
_atom_site_U_iso_or_equiv
_atom_site_adp_type
_atom_site_occupancy
C1     C     0.18198   0.26494   0.24883   0.00000  Uiso   1.00
C2     C     0.21585   0.18665   0.40452   0.00000  Uiso   1.00
C3     C     0.16544   0.16849   0.11573   0.00000  Uiso   1.00
C4     C     0.16789   0.16484   0.38427   0.00000  Uiso   1.00
C5     C     0.21361   0.19055   0.09059   0.00000  Uiso   1.00
C6     C     0.11973   0.14278   0.40941   0.00000  Uiso   1.00
C7     C     0.21476   0.19068   0.04410   0.00000  Uiso   1.00
C8     C     0.11857   0.14265   0.45590   0.00000  Uiso   1.00
C9     C     0.16652   0.16737   0.02331   0.00000  Uiso   1.00
C10    C     0.16681   0.16597   0.47669   0.00000  Uiso   1.00
C11    C     0.11791   0.14538   0.04919   0.00000  Uiso   1.00
C12    C     0.15135   0.06840   0.25117   0.00000  Uiso   1.00
C13    C     0.21542   0.18795   0.45081   0.00000  Uiso   1.00
C14    C     0.26271   0.21310   0.01789   0.00000  Uiso   1.00
C15    C     0.07063   0.12023   0.48211   0.00000  Uiso   1.00
C16    C     0.26265   0.21140   0.47140   0.00000  Uiso   1.00
C17    C     0.07069   0.12194   0.02860   0.00000  Uiso   1.00
C18    C     0.19003   0.31946   0.24814   0.00000  Uiso   1.00
C19    C     0.14330   0.01388   0.25186   0.00000  Uiso   1.00
C20    C     0.16716   0.16619   0.33654   0.00000  Uiso   1.00
C21    C     0.16618   0.16714   0.16346   0.00000  Uiso   1.00
C22    C     0.11749   0.14668   0.09548   0.00000  Uiso   1.00
H23    H     0.08063   0.12951   0.11577   0.00000  Uiso   1.00
H24    H     0.32864   0.20573   0.28398   0.00000  Uiso   1.00
H25    H     0.25270   0.20382   0.38423   0.00000  Uiso   1.00
H26    H     0.24972   0.20756   0.10777   0.00000  Uiso   1.00
H27    H     0.08361   0.12578   0.39223   0.00000  Uiso   1.00
H28    H     0.29964   0.22847   0.45129   0.00000  Uiso   1.00
H29    H     0.03370   0.10486   0.04871   0.00000  Uiso   1.00
H30    H     0.23412   0.00324   0.24459   0.00000  Uiso   1.00
H31    H     0.09921   0.33009   0.25541   0.00000  Uiso   1.00
H32    H     0.00469   0.12761   0.21602   0.00000  Uiso   1.00
I33    I     0.00328   0.25110   0.04503   0.00000  Uiso   1.00
I34    I     0.33005   0.08223   0.45497   0.00000  Uiso   1.00
N35    N     0.31678   0.15265   0.23783   0.00000  Uiso   1.00
N36    N     0.01656   0.18068   0.26217   0.00000  Uiso   1.00
O37    O     0.12975   0.24619   0.25298   0.00000  Uiso   1.00
O38    O     0.20358   0.08714   0.24702   0.00000  Uiso   1.00
O39    O     0.22613   0.23721   0.24518   0.00000  Uiso   1.00
O40    O     0.10720   0.09613   0.25482   0.00000  Uiso   1.00
O41    O     0.11847   0.17117   0.31997   0.00000  Uiso   1.00
O42    O     0.21486   0.16216   0.18003   0.00000  Uiso   1.00
O43    O     0.21485   0.16219   0.31218   0.00000  Uiso   1.00
O44    O     0.11848   0.17115   0.18782   0.00000  Uiso   1.00
Zn45   Zn    0.10231   0.17266   0.25521   0.00000  Uiso   1.00
Zn46   Zn    0.23102   0.16067   0.24479   0.00000  Uiso   1.00
C47    C     0.51531   0.26494   0.24883   0.00000  Uiso   1.00
C48    C     0.54918   0.18665   0.40452   0.00000  Uiso   1.00
C49    C     0.49878   0.16849   0.11573   0.00000  Uiso   1.00
C50    C     0.50122   0.16484   0.38427   0.00000  Uiso   1.00
C51    C     0.54694   0.19055   0.09059   0.00000  Uiso   1.00
C52    C     0.45306   0.14278   0.40941   0.00000  Uiso   1.00
C53    C     0.54810   0.19068   0.04410   0.00000  Uiso   1.00
C54    C     0.45190   0.14265   0.45590   0.00000  Uiso   1.00
C55    C     0.49986   0.16737   0.02331   0.00000  Uiso   1.00
C56    C     0.50014   0.16597   0.47669   0.00000  Uiso   1.00
C57    C     0.45124   0.14538   0.04919   0.00000  Uiso   1.00
C58    C     0.48469   0.06840   0.25117   0.00000  Uiso   1.00
C59    C     0.54876   0.18795   0.45081   0.00000  Uiso   1.00
C60    C     0.59604   0.21310   0.01789   0.00000  Uiso   1.00
C61    C     0.40396   0.12023   0.48211   0.00000  Uiso   1.00
C62    C     0.59598   0.21140   0.47140   0.00000  Uiso   1.00
C63    C     0.40402   0.12194   0.02860   0.00000  Uiso   1.00
C64    C     0.52336   0.31946   0.24814   0.00000  Uiso   1.00
C65    C     0.47664   0.01388   0.25186   0.00000  Uiso   1.00
C66    C     0.50049   0.16619   0.33654   0.00000  Uiso   1.00
C67    C     0.49951   0.16714   0.16346   0.00000  Uiso   1.00
C68    C     0.45082   0.14668   0.09548   0.00000  Uiso   1.00
H69    H     0.41396   0.12951   0.11577   0.00000  Uiso   1.00
H70    H     0.66197   0.20573   0.28398   0.00000  Uiso   1.00
H71    H     0.58604   0.20382   0.38423   0.00000  Uiso   1.00
H72    H     0.58305   0.20756   0.10777   0.00000  Uiso   1.00
H73    H     0.41695   0.12578   0.39223   0.00000  Uiso   1.00
H74    H     0.63297   0.22847   0.45129   0.00000  Uiso   1.00
H75    H     0.36703   0.10486   0.04871   0.00000  Uiso   1.00
H76    H     0.56746   0.00324   0.24459   0.00000  Uiso   1.00
H77    H     0.43254   0.33009   0.25541   0.00000  Uiso   1.00
H78    H     0.33802   0.12761   0.21602   0.00000  Uiso   1.00
I79    I     0.33662   0.25110   0.04503   0.00000  Uiso   1.00
I80    I     0.66338   0.08223   0.45497   0.00000  Uiso   1.00
N81    N     0.65011   0.15265   0.23783   0.00000  Uiso   1.00
N82    N     0.34989   0.18068   0.26217   0.00000  Uiso   1.00
O83    O     0.46308   0.24619   0.25298   0.00000  Uiso   1.00
O84    O     0.53692   0.08714   0.24702   0.00000  Uiso   1.00
O85    O     0.55946   0.23721   0.24518   0.00000  Uiso   1.00
O86    O     0.44054   0.09613   0.25482   0.00000  Uiso   1.00
O87    O     0.45181   0.17117   0.31997   0.00000  Uiso   1.00
O88    O     0.54819   0.16216   0.18003   0.00000  Uiso   1.00
O89    O     0.54819   0.16219   0.31218   0.00000  Uiso   1.00
O90    O     0.45181   0.17115   0.18782   0.00000  Uiso   1.00
Zn91   Zn    0.43565   0.17266   0.25521   0.00000  Uiso   1.00
Zn92   Zn    0.56435   0.16067   0.24479   0.00000  Uiso   1.00
C93    C     0.84865   0.26494   0.24883   0.00000  Uiso   1.00
C94    C     0.88251   0.18665   0.40452   0.00000  Uiso   1.00
C95    C     0.83211   0.16849   0.11573   0.00000  Uiso   1.00
C96    C     0.83456   0.16484   0.38427   0.00000  Uiso   1.00
C97    C     0.88027   0.19055   0.09059   0.00000  Uiso   1.00
C98    C     0.78639   0.14278   0.40941   0.00000  Uiso   1.00
C99    C     0.88143   0.19068   0.04410   0.00000  Uiso   1.00
C100   C     0.78524   0.14265   0.45590   0.00000  Uiso   1.00
C101   C     0.83319   0.16737   0.02331   0.00000  Uiso   1.00
C102   C     0.83348   0.16597   0.47669   0.00000  Uiso   1.00
C103   C     0.78458   0.14538   0.04919   0.00000  Uiso   1.00
C104   C     0.81802   0.06840   0.25117   0.00000  Uiso   1.00
C105   C     0.88209   0.18795   0.45081   0.00000  Uiso   1.00
C106   C     0.92937   0.21310   0.01789   0.00000  Uiso   1.00
C107   C     0.73729   0.12023   0.48211   0.00000  Uiso   1.00
C108   C     0.92931   0.21140   0.47140   0.00000  Uiso   1.00
C109   C     0.73735   0.12194   0.02860   0.00000  Uiso   1.00
C110   C     0.85670   0.31946   0.24814   0.00000  Uiso   1.00
C111   C     0.80997   0.01388   0.25186   0.00000  Uiso   1.00
C112   C     0.83382   0.16619   0.33654   0.00000  Uiso   1.00
C113   C     0.83284   0.16714   0.16346   0.00000  Uiso   1.00
C114   C     0.78415   0.14668   0.09548   0.00000  Uiso   1.00
H115   H     0.74730   0.12951   0.11577   0.00000  Uiso   1.00
H116   H     0.99531   0.20573   0.28398   0.00000  Uiso   1.00
H117   H     0.91937   0.20382   0.38423   0.00000  Uiso   1.00
H118   H     0.91639   0.20756   0.10777   0.00000  Uiso   1.00
H119   H     0.75028   0.12578   0.39223   0.00000  Uiso   1.00
H120   H     0.96630   0.22847   0.45129   0.00000  Uiso   1.00
H121   H     0.70036   0.10486   0.04871   0.00000  Uiso   1.00
H122   H     0.90079   0.00324   0.24459   0.00000  Uiso   1.00
H123   H     0.76587   0.33009   0.25541   0.00000  Uiso   1.00
H124   H     0.67136   0.12761   0.21602   0.00000  Uiso   1.00
I125   I     0.66995   0.25110   0.04503   0.00000  Uiso   1.00
I126   I     0.99671   0.08223   0.45497   0.00000  Uiso   1.00
N127   N     0.98344   0.15265   0.23783   0.00000  Uiso   1.00
N128   N     0.68322   0.18068   0.26217   0.00000  Uiso   1.00
O129   O     0.79642   0.24619   0.25298   0.00000  Uiso   1.00
O130   O     0.87025   0.08714   0.24702   0.00000  Uiso   1.00
O131   O     0.89280   0.23721   0.24518   0.00000  Uiso   1.00
O132   O     0.77387   0.09613   0.25482   0.00000  Uiso   1.00
O133   O     0.78514   0.17117   0.31997   0.00000  Uiso   1.00
O134   O     0.88153   0.16216   0.18003   0.00000  Uiso   1.00
O135   O     0.88152   0.16219   0.31218   0.00000  Uiso   1.00
O136   O     0.78515   0.17115   0.18782   0.00000  Uiso   1.00
Zn137  Zn    0.76898   0.17266   0.25521   0.00000  Uiso   1.00
Zn138  Zn    0.89769   0.16067   0.24479   0.00000  Uiso   1.00
C139   C     0.18198   0.59827   0.24883   0.00000  Uiso   1.00
C140   C     0.21585   0.51999   0.40452   0.00000  Uiso   1.00
C141   C     0.16544   0.50182   0.11573   0.00000  Uiso   1.00
C142   C     0.16789   0.49818   0.38427   0.00000  Uiso   1.00
C143   C     0.21361   0.52389   0.09059   0.00000  Uiso   1.00
C144   C     0.11973   0.47611   0.40941   0.00000  Uiso   1.00
C145   C     0.21476   0.52401   0.04410   0.00000  Uiso   1.00
C146   C     0.11857   0.47599   0.45590   0.00000  Uiso   1.00
C147   C     0.16652   0.50070   0.02331   0.00000  Uiso   1.00
C148   C     0.16681   0.49930   0.47669   0.00000  Uiso   1.00
C149   C     0.11791   0.47872   0.04919   0.00000  Uiso   1.00
C150   C     0.15135   0.40173   0.25117   0.00000  Uiso   1.00
C151   C     0.21542   0.52128   0.45081   0.00000  Uiso   1.00
C152   C     0.26271   0.54644   0.01789   0.00000  Uiso   1.00
C153   C     0.07063   0.45356   0.48211   0.00000  Uiso   1.00
C154   C     0.26265   0.54473   0.47140   0.00000  Uiso   1.00
C155   C     0.07069   0.45527   0.02860   0.00000  Uiso   1.00
C156   C     0.19003   0.65279   0.24814   0.00000  Uiso   1.00
C157   C     0.14330   0.34721   0.25186   0.00000  Uiso   1.00
C158   C     0.16716   0.49953   0.33654   0.00000  Uiso   1.00
C159   C     0.16618   0.50047   0.16346   0.00000  Uiso   1.00
C160   C     0.11749   0.48001   0.09548   0.00000  Uiso   1.00
H161   H     0.08063   0.46284   0.11577   0.00000  Uiso   1.00
H162   H     0.32864   0.53906   0.28398   0.00000  Uiso   1.00
H163   H     0.25270   0.53716   0.38423   0.00000  Uiso   1.00
H164   H     0.24972   0.54089   0.10777   0.00000  Uiso   1.00
H165   H     0.08361   0.45911   0.39223   0.00000  Uiso   1.00
H166   H     0.29964   0.56180   0.45129   0.00000  Uiso   1.00
H167   H     0.03370   0.43820   0.04871   0.00000  Uiso   1.00
H168   H     0.23412   0.33658   0.24459   0.00000  Uiso   1.00
H169   H     0.09921   0.66342   0.25541   0.00000  Uiso   1.00
H170   H     0.00469   0.46094   0.21602   0.00000  Uiso   1.00
I171   I     0.00328   0.58444   0.04503   0.00000  Uiso   1.00
I172   I     0.33005   0.41557   0.45497   0.00000  Uiso   1.00
N173   N     0.31678   0.48598   0.23783   0.00000  Uiso   1.00
N174   N     0.01656   0.51402   0.26217   0.00000  Uiso   1.00
O175   O     0.12975   0.57952   0.25298   0.00000  Uiso   1.00
O176   O     0.20358   0.42048   0.24702   0.00000  Uiso   1.00
O177   O     0.22613   0.57054   0.24518   0.00000  Uiso   1.00
O178   O     0.10720   0.42946   0.25482   0.00000  Uiso   1.00
O179   O     0.11847   0.50450   0.31997   0.00000  Uiso   1.00
O180   O     0.21486   0.49550   0.18003   0.00000  Uiso   1.00
O181   O     0.21485   0.49552   0.31218   0.00000  Uiso   1.00
O182   O     0.11848   0.50448   0.18782   0.00000  Uiso   1.00
Zn183  Zn    0.10231   0.50600   0.25521   0.00000  Uiso   1.00
Zn184  Zn    0.23102   0.49400   0.24479   0.00000  Uiso   1.00
C185   C     0.51531   0.59827   0.24883   0.00000  Uiso   1.00
C186   C     0.54918   0.51999   0.40452   0.00000  Uiso   1.00
C187   C     0.49878   0.50182   0.11573   0.00000  Uiso   1.00
C188   C     0.50122   0.49818   0.38427   0.00000  Uiso   1.00
C189   C     0.54694   0.52389   0.09059   0.00000  Uiso   1.00
C190   C     0.45306   0.47611   0.40941   0.00000  Uiso   1.00
C191   C     0.54810   0.52401   0.04410   0.00000  Uiso   1.00
C192   C     0.45190   0.47599   0.45590   0.00000  Uiso   1.00
C193   C     0.49986   0.50070   0.02331   0.00000  Uiso   1.00
C194   C     0.50014   0.49930   0.47669   0.00000  Uiso   1.00
C195   C     0.45124   0.47872   0.04919   0.00000  Uiso   1.00
C196   C     0.48469   0.40173   0.25117   0.00000  Uiso   1.00
C197   C     0.54876   0.52128   0.45081   0.00000  Uiso   1.00
C198   C     0.59604   0.54644   0.01789   0.00000  Uiso   1.00
C199   C     0.40396   0.45356   0.48211   0.00000  Uiso   1.00
C200   C     0.59598   0.54473   0.47140   0.00000  Uiso   1.00
C201   C     0.40402   0.45527   0.02860   0.00000  Uiso   1.00
C202   C     0.52336   0.65279   0.24814   0.00000  Uiso   1.00
C203   C     0.47664   0.34721   0.25186   0.00000  Uiso   1.00
C204   C     0.50049   0.49953   0.33654   0.00000  Uiso   1.00
C205   C     0.49951   0.50047   0.16346   0.00000  Uiso   1.00
C206   C     0.45082   0.48001   0.09548   0.00000  Uiso   1.00
H207   H     0.41396   0.46284   0.11577   0.00000  Uiso   1.00
H208   H     0.66197   0.53906   0.28398   0.00000  Uiso   1.00
H209   H     0.58604   0.53716   0.38423   0.00000  Uiso   1.00
H210   H     0.58305   0.54089   0.10777   0.00000  Uiso   1.00
H211   H     0.41695   0.45911   0.39223   0.00000  Uiso   1.00
H212   H     0.63297   0.56180   0.45129   0.00000  Uiso   1.00
H213   H     0.36703   0.43820   0.04871   0.00000  Uiso   1.00
H214   H     0.56746   0.33658   0.24459   0.00000  Uiso   1.00
H215   H     0.43254   0.66342   0.25541   0.00000  Uiso   1.00
H216   H     0.33802   0.46094   0.21602   0.00000  Uiso   1.00
I217   I     0.33662   0.58444   0.04503   0.00000  Uiso   1.00
I218   I     0.66338   0.41557   0.45497   0.00000  Uiso   1.00
N219   N     0.65011   0.48598   0.23783   0.00000  Uiso   1.00
N220   N     0.34989   0.51402   0.26217   0.00000  Uiso   1.00
O221   O     0.46308   0.57952   0.25298   0.00000  Uiso   1.00
O222   O     0.53692   0.42048   0.24702   0.00000  Uiso   1.00
O223   O     0.55946   0.57054   0.24518   0.00000  Uiso   1.00
O224   O     0.44054   0.42946   0.25482   0.00000  Uiso   1.00
O225   O     0.45181   0.50450   0.31997   0.00000  Uiso   1.00
O226   O     0.54819   0.49550   0.18003   0.00000  Uiso   1.00
O227   O     0.54819   0.49552   0.31218   0.00000  Uiso   1.00
O228   O     0.45181   0.50448   0.18782   0.00000  Uiso   1.00
Zn229  Zn    0.43565   0.50600   0.25521   0.00000  Uiso   1.00
Zn230  Zn    0.56435   0.49400   0.24479   0.00000  Uiso   1.00
C231   C     0.84865   0.59827   0.24883   0.00000  Uiso   1.00
C232   C     0.88251   0.51999   0.40452   0.00000  Uiso   1.00
C233   C     0.83211   0.50182   0.11573   0.00000  Uiso   1.00
C234   C     0.83456   0.49818   0.38427   0.00000  Uiso   1.00
C235   C     0.88027   0.52389   0.09059   0.00000  Uiso   1.00
C236   C     0.78639   0.47611   0.40941   0.00000  Uiso   1.00
C237   C     0.88143   0.52401   0.04410   0.00000  Uiso   1.00
C238   C     0.78524   0.47599   0.45590   0.00000  Uiso   1.00
C239   C     0.83319   0.50070   0.02331   0.00000  Uiso   1.00
C240   C     0.83348   0.49930   0.47669   0.00000  Uiso   1.00
C241   C     0.78458   0.47872   0.04919   0.00000  Uiso   1.00
C242   C     0.81802   0.40173   0.25117   0.00000  Uiso   1.00
C243   C     0.88209   0.52128   0.45081   0.00000  Uiso   1.00
C244   C     0.92937   0.54644   0.01789   0.00000  Uiso   1.00
C245   C     0.73729   0.45356   0.48211   0.00000  Uiso   1.00
C246   C     0.92931   0.54473   0.47140   0.00000  Uiso   1.00
C247   C     0.73735   0.45527   0.02860   0.00000  Uiso   1.00
C248   C     0.85670   0.65279   0.24814   0.00000  Uiso   1.00
C249   C     0.80997   0.34721   0.25186   0.00000  Uiso   1.00
C250   C     0.83382   0.49953   0.33654   0.00000  Uiso   1.00
C251   C     0.83284   0.50047   0.16346   0.00000  Uiso   1.00
C252   C     0.78415   0.48001   0.09548   0.00000  Uiso   1.00
H253   H     0.74730   0.46284   0.11577   0.00000  Uiso   1.00
H254   H     0.99531   0.53906   0.28398   0.00000  Uiso   1.00
H255   H     0.91937   0.53716   0.38423   0.00000  Uiso   1.00
H256   H     0.91639   0.54089   0.10777   0.00000  Uiso   1.00
H257   H     0.75028   0.45911   0.39223   0.00000  Uiso   1.00
H258   H     0.96630   0.56180   0.45129   0.00000  Uiso   1.00
H259   H     0.70036   0.43820   0.04871   0.00000  Uiso   1.00
H260   H     0.90079   0.33658   0.24459   0.00000  Uiso   1.00
H261   H     0.76587   0.66342   0.25541   0.00000  Uiso   1.00
H262   H     0.67136   0.46094   0.21602   0.00000  Uiso   1.00
I263   I     0.66995   0.58444   0.04503   0.00000  Uiso   1.00
I264   I     0.99671   0.41557   0.45497   0.00000  Uiso   1.00
N265   N     0.98344   0.48598   0.23783   0.00000  Uiso   1.00
N266   N     0.68322   0.51402   0.26217   0.00000  Uiso   1.00
O267   O     0.79642   0.57952   0.25298   0.00000  Uiso   1.00
O268   O     0.87025   0.42048   0.24702   0.00000  Uiso   1.00
O269   O     0.89280   0.57054   0.24518   0.00000  Uiso   1.00
O270   O     0.77387   0.42946   0.25482   0.00000  Uiso   1.00
O271   O     0.78514   0.50450   0.31997   0.00000  Uiso   1.00
O272   O     0.88153   0.49550   0.18003   0.00000  Uiso   1.00
O273   O     0.88152   0.49552   0.31218   0.00000  Uiso   1.00
O274   O     0.78515   0.50448   0.18782   0.00000  Uiso   1.00
Zn275  Zn    0.76898   0.50600   0.25521   0.00000  Uiso   1.00
Zn276  Zn    0.89769   0.49400   0.24479   0.00000  Uiso   1.00
C277   C     0.18198   0.93160   0.24883   0.00000  Uiso   1.00
C278   C     0.21585   0.85332   0.40452   0.00000  Uiso   1.00
C279   C     0.16544   0.83516   0.11573   0.00000  Uiso   1.00
C280   C     0.16789   0.83151   0.38427   0.00000  Uiso   1.00
C281   C     0.21361   0.85722   0.09059   0.00000  Uiso   1.00
C282   C     0.11973   0.80945   0.40941   0.00000  Uiso   1.00
C283   C     0.21476   0.85735   0.04410   0.00000  Uiso   1.00
C284   C     0.11857   0.80932   0.45590   0.00000  Uiso   1.00
C285   C     0.16652   0.83404   0.02331   0.00000  Uiso   1.00
C286   C     0.16681   0.83263   0.47669   0.00000  Uiso   1.00
C287   C     0.11791   0.81205   0.04919   0.00000  Uiso   1.00
C288   C     0.15135   0.73506   0.25117   0.00000  Uiso   1.00
C289   C     0.21542   0.85462   0.45081   0.00000  Uiso   1.00
C290   C     0.26271   0.87977   0.01789   0.00000  Uiso   1.00
C291   C     0.07063   0.78690   0.48211   0.00000  Uiso   1.00
C292   C     0.26265   0.87806   0.47140   0.00000  Uiso   1.00
C293   C     0.07069   0.78860   0.02860   0.00000  Uiso   1.00
C294   C     0.19003   0.98612   0.24814   0.00000  Uiso   1.00
C295   C     0.14330   0.68054   0.25186   0.00000  Uiso   1.00
C296   C     0.16716   0.83286   0.33654   0.00000  Uiso   1.00
C297   C     0.16618   0.83381   0.16346   0.00000  Uiso   1.00
C298   C     0.11749   0.81335   0.09548   0.00000  Uiso   1.00
H299   H     0.08063   0.79618   0.11577   0.00000  Uiso   1.00
H300   H     0.32864   0.87239   0.28398   0.00000  Uiso   1.00
H301   H     0.25270   0.87049   0.38423   0.00000  Uiso   1.00
H302   H     0.24972   0.87422   0.10777   0.00000  Uiso   1.00
H303   H     0.08361   0.79244   0.39223   0.00000  Uiso   1.00
H304   H     0.29964   0.89514   0.45129   0.00000  Uiso   1.00
H305   H     0.03370   0.77153   0.04871   0.00000  Uiso   1.00
H306   H     0.23412   0.66991   0.24459   0.00000  Uiso   1.00
H307   H     0.09921   0.99676   0.25541   0.00000  Uiso   1.00
H308   H     0.00469   0.79427   0.21602   0.00000  Uiso   1.00
I309   I     0.00328   0.91777   0.04503   0.00000  Uiso   1.00
I310   I     0.33005   0.74890   0.45497   0.00000  Uiso   1.00
N311   N     0.31678   0.81932   0.23783   0.00000  Uiso   1.00
N312   N     0.01656   0.84735   0.26217   0.00000  Uiso   1.00
O313   O     0.12975   0.91286   0.25298   0.00000  Uiso   1.00
O314   O     0.20358   0.75381   0.24702   0.00000  Uiso   1.00
O315   O     0.22613   0.90387   0.24518   0.00000  Uiso   1.00
O316   O     0.10720   0.76279   0.25482   0.00000  Uiso   1.00
O317   O     0.11847   0.83784   0.31997   0.00000  Uiso   1.00
O318   O     0.21486   0.82883   0.18003   0.00000  Uiso   1.00
O319   O     0.21485   0.82885   0.31218   0.00000  Uiso   1.00
O320   O     0.11848   0.83781   0.18782   0.00000  Uiso   1.00
Zn321  Zn    0.10231   0.83933   0.25521   0.00000  Uiso   1.00
Zn322  Zn    0.23102   0.82734   0.24479   0.00000  Uiso   1.00
C323   C     0.51531   0.93160   0.24883   0.00000  Uiso   1.00
C324   C     0.54918   0.85332   0.40452   0.00000  Uiso   1.00
C325   C     0.49878   0.83516   0.11573   0.00000  Uiso   1.00
C326   C     0.50122   0.83151   0.38427   0.00000  Uiso   1.00
C327   C     0.54694   0.85722   0.09059   0.00000  Uiso   1.00
C328   C     0.45306   0.80945   0.40941   0.00000  Uiso   1.00
C329   C     0.54810   0.85735   0.04410   0.00000  Uiso   1.00
C330   C     0.45190   0.80932   0.45590   0.00000  Uiso   1.00
C331   C     0.49986   0.83404   0.02331   0.00000  Uiso   1.00
C332   C     0.50014   0.83263   0.47669   0.00000  Uiso   1.00
C333   C     0.45124   0.81205   0.04919   0.00000  Uiso   1.00
C334   C     0.48469   0.73506   0.25117   0.00000  Uiso   1.00
C335   C     0.54876   0.85462   0.45081   0.00000  Uiso   1.00
C336   C     0.59604   0.87977   0.01789   0.00000  Uiso   1.00
C337   C     0.40396   0.78690   0.48211   0.00000  Uiso   1.00
C338   C     0.59598   0.87806   0.47140   0.00000  Uiso   1.00
C339   C     0.40402   0.78860   0.02860   0.00000  Uiso   1.00
C340   C     0.52336   0.98612   0.24814   0.00000  Uiso   1.00
C341   C     0.47664   0.68054   0.25186   0.00000  Uiso   1.00
C342   C     0.50049   0.83286   0.33654   0.00000  Uiso   1.00
C343   C     0.49951   0.83381   0.16346   0.00000  Uiso   1.00
C344   C     0.45082   0.81335   0.09548   0.00000  Uiso   1.00
H345   H     0.41396   0.79618   0.11577   0.00000  Uiso   1.00
H346   H     0.66197   0.87239   0.28398   0.00000  Uiso   1.00
H347   H     0.58604   0.87049   0.38423   0.00000  Uiso   1.00
H348   H     0.58305   0.87422   0.10777   0.00000  Uiso   1.00
H349   H     0.41695   0.79244   0.39223   0.00000  Uiso   1.00
H350   H     0.63297   0.89514   0.45129   0.00000  Uiso   1.00
H351   H     0.36703   0.77153   0.04871   0.00000  Uiso   1.00
H352   H     0.56746   0.66991   0.24459   0.00000  Uiso   1.00
H353   H     0.43254   0.99676   0.25541   0.00000  Uiso   1.00
H354   H     0.33802   0.79427   0.21602   0.00000  Uiso   1.00
I355   I     0.33662   0.91777   0.04503   0.00000  Uiso   1.00
I356   I     0.66338   0.74890   0.45497   0.00000  Uiso   1.00
N357   N     0.65011   0.81932   0.23783   0.00000  Uiso   1.00
N358   N     0.34989   0.84735   0.26217   0.00000  Uiso   1.00
O359   O     0.46308   0.91286   0.25298   0.00000  Uiso   1.00
O360   O     0.53692   0.75381   0.24702   0.00000  Uiso   1.00
O361   O     0.55946   0.90387   0.24518   0.00000  Uiso   1.00
O362   O     0.44054   0.76279   0.25482   0.00000  Uiso   1.00
O363   O     0.45181   0.83784   0.31997   0.00000  Uiso   1.00
O364   O     0.54819   0.82883   0.18003   0.00000  Uiso   1.00
O365   O     0.54819   0.82885   0.31218   0.00000  Uiso   1.00
O366   O     0.45181   0.83781   0.18782   0.00000  Uiso   1.00
Zn367  Zn    0.43565   0.83933   0.25521   0.00000  Uiso   1.00
Zn368  Zn    0.56435   0.82734   0.24479   0.00000  Uiso   1.00
C369   C     0.84865   0.93160   0.24883   0.00000  Uiso   1.00
C370   C     0.88251   0.85332   0.40452   0.00000  Uiso   1.00
C371   C     0.83211   0.83516   0.11573   0.00000  Uiso   1.00
C372   C     0.83456   0.83151   0.38427   0.00000  Uiso   1.00
C373   C     0.88027   0.85722   0.09059   0.00000  Uiso   1.00
C374   C     0.78639   0.80945   0.40941   0.00000  Uiso   1.00
C375   C     0.88143   0.85735   0.04410   0.00000  Uiso   1.00
C376   C     0.78524   0.80932   0.45590   0.00000  Uiso   1.00
C377   C     0.83319   0.83404   0.02331   0.00000  Uiso   1.00
C378   C     0.83348   0.83263   0.47669   0.00000  Uiso   1.00
C379   C     0.78458   0.81205   0.04919   0.00000  Uiso   1.00
C380   C     0.81802   0.73506   0.25117   0.00000  Uiso   1.00
C381   C     0.88209   0.85462   0.45081   0.00000  Uiso   1.00
C382   C     0.92937   0.87977   0.01789   0.00000  Uiso   1.00
C383   C     0.73729   0.78690   0.48211   0.00000  Uiso   1.00
C384   C     0.92931   0.87806   0.47140   0.00000  Uiso   1.00
C385   C     0.73735   0.78860   0.02860   0.00000  Uiso   1.00
C386   C     0.85670   0.98612   0.24814   0.00000  Uiso   1.00
C387   C     0.80997   0.68054   0.25186   0.00000  Uiso   1.00
C388   C     0.83382   0.83286   0.33654   0.00000  Uiso   1.00
C389   C     0.83284   0.83381   0.16346   0.00000  Uiso   1.00
C390   C     0.78415   0.81335   0.09548   0.00000  Uiso   1.00
H391   H     0.74730   0.79618   0.11577   0.00000  Uiso   1.00
H392   H     0.99531   0.87239   0.28398   0.00000  Uiso   1.00
H393   H     0.91937   0.87049   0.38423   0.00000  Uiso   1.00
H394   H     0.91639   0.87422   0.10777   0.00000  Uiso   1.00
H395   H     0.75028   0.79244   0.39223   0.00000  Uiso   1.00
H396   H     0.96630   0.89514   0.45129   0.00000  Uiso   1.00
H397   H     0.70036   0.77153   0.04871   0.00000  Uiso   1.00
H398   H     0.90079   0.66991   0.24459   0.00000  Uiso   1.00
H399   H     0.76587   0.99676   0.25541   0.00000  Uiso   1.00
H400   H     0.67136   0.79427   0.21602   0.00000  Uiso   1.00
I401   I     0.66995   0.91777   0.04503   0.00000  Uiso   1.00
I402   I     0.99671   0.74890   0.45497   0.00000  Uiso   1.00
N403   N     0.98344   0.81932   0.23783   0.00000  Uiso   1.00
N404   N     0.68322   0.84735   0.26217   0.00000  Uiso   1.00
O405   O     0.79642   0.91286   0.25298   0.00000  Uiso   1.00
O406   O     0.87025   0.75381   0.24702   0.00000  Uiso   1.00
O407   O     0.89280   0.90387   0.24518   0.00000  Uiso   1.00
O408   O     0.77387   0.76279   0.25482   0.00000  Uiso   1.00
O409   O     0.78514   0.83784   0.31997   0.00000  Uiso   1.00
O410   O     0.88153   0.82883   0.18003   0.00000  Uiso   1.00
O411   O     0.88152   0.82885   0.31218   0.00000  Uiso   1.00
O412   O     0.78515   0.83781   0.18782   0.00000  Uiso   1.00
Zn413  Zn    0.76898   0.83933   0.25521   0.00000  Uiso   1.00
Zn414  Zn    0.89769   0.82734   0.24479   0.00000  Uiso   1.00
C415   C     0.18198   0.26494   0.74883   0.00000  Uiso   1.00
C416   C     0.21585   0.18665   0.90452   0.00000  Uiso   1.00
C417   C     0.16544   0.16849   0.61573   0.00000  Uiso   1.00
C418   C     0.16789   0.16484   0.88427   0.00000  Uiso   1.00
C419   C     0.21361   0.19055   0.59059   0.00000  Uiso   1.00
C420   C     0.11973   0.14278   0.90941   0.00000  Uiso   1.00
C421   C     0.21476   0.19068   0.54410   0.00000  Uiso   1.00
C422   C     0.11857   0.14265   0.95590   0.00000  Uiso   1.00
C423   C     0.16652   0.16737   0.52331   0.00000  Uiso   1.00
C424   C     0.16681   0.16597   0.97669   0.00000  Uiso   1.00
C425   C     0.11791   0.14538   0.54919   0.00000  Uiso   1.00
C426   C     0.15135   0.06840   0.75117   0.00000  Uiso   1.00
C427   C     0.21542   0.18795   0.95081   0.00000  Uiso   1.00
C428   C     0.26271   0.21310   0.51789   0.00000  Uiso   1.00
C429   C     0.07063   0.12023   0.98211   0.00000  Uiso   1.00
C430   C     0.26265   0.21140   0.97140   0.00000  Uiso   1.00
C431   C     0.07069   0.12194   0.52860   0.00000  Uiso   1.00
C432   C     0.19003   0.31946   0.74814   0.00000  Uiso   1.00
C433   C     0.14330   0.01388   0.75186   0.00000  Uiso   1.00
C434   C     0.16716   0.16619   0.83654   0.00000  Uiso   1.00
C435   C     0.16618   0.16714   0.66346   0.00000  Uiso   1.00
C436   C     0.11749   0.14668   0.59548   0.00000  Uiso   1.00
H437   H     0.08063   0.12951   0.61577   0.00000  Uiso   1.00
H438   H     0.32864   0.20573   0.78398   0.00000  Uiso   1.00
H439   H     0.25270   0.20382   0.88423   0.00000  Uiso   1.00
H440   H     0.24972   0.20756   0.60777   0.00000  Uiso   1.00
H441   H     0.08361   0.12578   0.89223   0.00000  Uiso   1.00
H442   H     0.29964   0.22847   0.95129   0.00000  Uiso   1.00
H443   H     0.03370   0.10486   0.54871   0.00000  Uiso   1.00
H444   H     0.23412   0.00324   0.74459   0.00000  Uiso   1.00
H445   H     0.09921   0.33009   0.75541   0.00000  Uiso   1.00
H446   H     0.00469   0.12761   0.71602   0.00000  Uiso   1.00
I447   I     0.00328   0.25110   0.54503   0.00000  Uiso   1.00
I448   I     0.33005   0.08223   0.95497   0.00000  Uiso   1.00
N449   N     0.31678   0.15265   0.73783   0.00000  Uiso   1.00
N450   N     0.01656   0.18068   0.76217   0.00000  Uiso   1.00
O451   O     0.12975   0.24619   0.75298   0.00000  Uiso   1.00
O452   O     0.20358   0.08714   0.74702   0.00000  Uiso   1.00
O453   O     0.22613   0.23721   0.74518   0.00000  Uiso   1.00
O454   O     0.10720   0.09613   0.75482   0.00000  Uiso   1.00
O455   O     0.11847   0.17117   0.81997   0.00000  Uiso   1.00
O456   O     0.21486   0.16216   0.68003   0.00000  Uiso   1.00
O457   O     0.21485   0.16219   0.81218   0.00000  Uiso   1.00
O458   O     0.11848   0.17115   0.68782   0.00000  Uiso   1.00
Zn459  Zn    0.10231   0.17266   0.75521   0.00000  Uiso   1.00
Zn460  Zn    0.23102   0.16067   0.74479   0.00000  Uiso   1.00
C461   C     0.51531   0.26494   0.74883   0.00000  Uiso   1.00
C462   C     0.54918   0.18665   0.90452   0.00000  Uiso   1.00
C463   C     0.49878   0.16849   0.61573   0.00000  Uiso   1.00
C464   C     0.50122   0.16484   0.88427   0.00000  Uiso   1.00
C465   C     0.54694   0.19055   0.59059   0.00000  Uiso   1.00
C466   C     0.45306   0.14278   0.90941   0.00000  Uiso   1.00
C467   C     0.54810   0.19068   0.54410   0.00000  Uiso   1.00
C468   C     0.45190   0.14265   0.95590   0.00000  Uiso   1.00
C469   C     0.49986   0.16737   0.52331   0.00000  Uiso   1.00
C470   C     0.50014   0.16597   0.97669   0.00000  Uiso   1.00
C471   C     0.45124   0.14538   0.54919   0.00000  Uiso   1.00
C472   C     0.48469   0.06840   0.75117   0.00000  Uiso   1.00
C473   C     0.54876   0.18795   0.95081   0.00000  Uiso   1.00
C474   C     0.59604   0.21310   0.51789   0.00000  Uiso   1.00
C475   C     0.40396   0.12023   0.98211   0.00000  Uiso   1.00
C476   C     0.59598   0.21140   0.97140   0.00000  Uiso   1.00
C477   C     0.40402   0.12194   0.52860   0.00000  Uiso   1.00
C478   C     0.52336   0.31946   0.74814   0.00000  Uiso   1.00
C479   C     0.47664   0.01388   0.75186   0.00000  Uiso   1.00
C480   C     0.50049   0.16619   0.83654   0.00000  Uiso   1.00
C481   C     0.49951   0.16714   0.66346   0.00000  Uiso   1.00
C482   C     0.45082   0.14668   0.59548   0.00000  Uiso   1.00
H483   H     0.41396   0.12951   0.61577   0.00000  Uiso   1.00
H484   H     0.66197   0.20573   0.78398   0.00000  Uiso   1.00
H485   H     0.58604   0.20382   0.88423   0.00000  Uiso   1.00
H486   H     0.58305   0.20756   0.60777   0.00000  Uiso   1.00
H487   H     0.41695   0.12578   0.89223   0.00000  Uiso   1.00
H488   H     0.63297   0.22847   0.95129   0.00000  Uiso   1.00
H489   H     0.36703   0.10486   0.54871   0.00000  Uiso   1.00
H490   H     0.56746   0.00324   0.74459   0.00000  Uiso   1.00
H491   H     0.43254   0.33009   0.75541   0.00000  Uiso   1.00
H492   H     0.33802   0.12761   0.71602   0.00000  Uiso   1.00
I493   I     0.33662   0.25110   0.54503   0.00000  Uiso   1.00
I494   I     0.66338   0.08223   0.95497   0.00000  Uiso   1.00
N495   N     0.65011   0.15265   0.73783   0.00000  Uiso   1.00
N496   N     0.34989   0.18068   0.76217   0.00000  Uiso   1.00
O497   O     0.46308   0.24619   0.75298   0.00000  Uiso   1.00
O498   O     0.53692   0.08714   0.74702   0.00000  Uiso   1.00
O499   O     0.55946   0.23721   0.74518   0.00000  Uiso   1.00
O500   O     0.44054   0.09613   0.75482   0.00000  Uiso   1.00
O501   O     0.45181   0.17117   0.81997   0.00000  Uiso   1.00
O502   O     0.54819   0.16216   0.68003   0.00000  Uiso   1.00
O503   O     0.54819   0.16219   0.81218   0.00000  Uiso   1.00
O504   O     0.45181   0.17115   0.68782   0.00000  Uiso   1.00
Zn505  Zn    0.43565   0.17266   0.75521   0.00000  Uiso   1.00
Zn506  Zn    0.56435   0.16067   0.74479   0.00000  Uiso   1.00
C507   C     0.84865   0.26494   0.74883   0.00000  Uiso   1.00
C508   C     0.88251   0.18665   0.90452   0.00000  Uiso   1.00
C509   C     0.83211   0.16849   0.61573   0.00000  Uiso   1.00
C510   C     0.83456   0.16484   0.88427   0.00000  Uiso   1.00
C511   C     0.88027   0.19055   0.59059   0.00000  Uiso   1.00
C512   C     0.78639   0.14278   0.90941   0.00000  Uiso   1.00
C513   C     0.88143   0.19068   0.54410   0.00000  Uiso   1.00
C514   C     0.78524   0.14265   0.95590   0.00000  Uiso   1.00
C515   C     0.83319   0.16737   0.52331   0.00000  Uiso   1.00
C516   C     0.83348   0.16597   0.97669   0.00000  Uiso   1.00
C517   C     0.78458   0.14538   0.54919   0.00000  Uiso   1.00
C518   C     0.81802   0.06840   0.75117   0.00000  Uiso   1.00
C519   C     0.88209   0.18795   0.95081   0.00000  Uiso   1.00
C520   C     0.92937   0.21310   0.51789   0.00000  Uiso   1.00
C521   C     0.73729   0.12023   0.98211   0.00000  Uiso   1.00
C522   C     0.92931   0.21140   0.97140   0.00000  Uiso   1.00
C523   C     0.73735   0.12194   0.52860   0.00000  Uiso   1.00
C524   C     0.85670   0.31946   0.74814   0.00000  Uiso   1.00
C525   C     0.80997   0.01388   0.75186   0.00000  Uiso   1.00
C526   C     0.83382   0.16619   0.83654   0.00000  Uiso   1.00
C527   C     0.83284   0.16714   0.66346   0.00000  Uiso   1.00
C528   C     0.78415   0.14668   0.59548   0.00000  Uiso   1.00
H529   H     0.74730   0.12951   0.61577   0.00000  Uiso   1.00
H530   H     0.99531   0.20573   0.78398   0.00000  Uiso   1.00
H531   H     0.91937   0.20382   0.88423   0.00000  Uiso   1.00
H532   H     0.91639   0.20756   0.60777   0.00000  Uiso   1.00
H533   H     0.75028   0.12578   0.89223   0.00000  Uiso   1.00
H534   H     0.96630   0.22847   0.95129   0.00000  Uiso   1.00
H535   H     0.70036   0.10486   0.54871   0.00000  Uiso   1.00
H536   H     0.90079   0.00324   0.74459   0.00000  Uiso   1.00
H537   H     0.76587   0.33009   0.75541   0.00000  Uiso   1.00
H538   H     0.67136   0.12761   0.71602   0.00000  Uiso   1.00
I539   I     0.66995   0.25110   0.54503   0.00000  Uiso   1.00
I540   I     0.99671   0.08223   0.95497   0.00000  Uiso   1.00
N541   N     0.98344   0.15265   0.73783   0.00000  Uiso   1.00
N542   N     0.68322   0.18068   0.76217   0.00000  Uiso   1.00
O543   O     0.79642   0.24619   0.75298   0.00000  Uiso   1.00
O544   O     0.87025   0.08714   0.74702   0.00000  Uiso   1.00
O545   O     0.89280   0.23721   0.74518   0.00000  Uiso   1.00
O546   O     0.77387   0.09613   0.75482   0.00000  Uiso   1.00
O547   O     0.78514   0.17117   0.81997   0.00000  Uiso   1.00
O548   O     0.88153   0.16216   0.68003   0.00000  Uiso   1.00
O549   O     0.88152   0.16219   0.81218   0.00000  Uiso   1.00
O550   O     0.78515   0.17115   0.68782   0.00000  Uiso   1.00
Zn551  Zn    0.76898   0.17266   0.75521   0.00000  Uiso   1.00
Zn552  Zn    0.89769   0.16067   0.74479   0.00000  Uiso   1.00
C553   C     0.18198   0.59827   0.74883   0.00000  Uiso   1.00
C554   C     0.21585   0.51999   0.90452   0.00000  Uiso   1.00
C555   C     0.16544   0.50182   0.61573   0.00000  Uiso   1.00
C556   C     0.16789   0.49818   0.88427   0.00000  Uiso   1.00
C557   C     0.21361   0.52389   0.59059   0.00000  Uiso   1.00
C558   C     0.11973   0.47611   0.90941   0.00000  Uiso   1.00
C559   C     0.21476   0.52401   0.54410   0.00000  Uiso   1.00
C560   C     0.11857   0.47599   0.95590   0.00000  Uiso   1.00
C561   C     0.16652   0.50070   0.52331   0.00000  Uiso   1.00
C562   C     0.16681   0.49930   0.97669   0.00000  Uiso   1.00
C563   C     0.11791   0.47872   0.54919   0.00000  Uiso   1.00
C564   C     0.15135   0.40173   0.75117   0.00000  Uiso   1.00
C565   C     0.21542   0.52128   0.95081   0.00000  Uiso   1.00
C566   C     0.26271   0.54644   0.51789   0.00000  Uiso   1.00
C567   C     0.07063   0.45356   0.98211   0.00000  Uiso   1.00
C568   C     0.26265   0.54473   0.97140   0.00000  Uiso   1.00
C569   C     0.07069   0.45527   0.52860   0.00000  Uiso   1.00
C570   C     0.19003   0.65279   0.74814   0.00000  Uiso   1.00
C571   C     0.14330   0.34721   0.75186   0.00000  Uiso   1.00
C572   C     0.16716   0.49953   0.83654   0.00000  Uiso   1.00
C573   C     0.16618   0.50047   0.66346   0.00000  Uiso   1.00
C574   C     0.11749   0.48001   0.59548   0.00000  Uiso   1.00
H575   H     0.08063   0.46284   0.61577   0.00000  Uiso   1.00
H576   H     0.32864   0.53906   0.78398   0.00000  Uiso   1.00
H577   H     0.25270   0.53716   0.88423   0.00000  Uiso   1.00
H578   H     0.24972   0.54089   0.60777   0.00000  Uiso   1.00
H579   H     0.08361   0.45911   0.89223   0.00000  Uiso   1.00
H580   H     0.29964   0.56180   0.95129   0.00000  Uiso   1.00
H581   H     0.03370   0.43820   0.54871   0.00000  Uiso   1.00
H582   H     0.23412   0.33658   0.74459   0.00000  Uiso   1.00
H583   H     0.09921   0.66342   0.75541   0.00000  Uiso   1.00
H584   H     0.00469   0.46094   0.71602   0.00000  Uiso   1.00
I585   I     0.00328   0.58444   0.54503   0.00000  Uiso   1.00
I586   I     0.33005   0.41557   0.95497   0.00000  Uiso   1.00
N587   N     0.31678   0.48598   0.73783   0.00000  Uiso   1.00
N588   N     0.01656   0.51402   0.76217   0.00000  Uiso   1.00
O589   O     0.12975   0.57952   0.75298   0.00000  Uiso   1.00
O590   O     0.20358   0.42048   0.74702   0.00000  Uiso   1.00
O591   O     0.22613   0.57054   0.74518   0.00000  Uiso   1.00
O592   O     0.10720   0.42946   0.75482   0.00000  Uiso   1.00
O593   O     0.11847   0.50450   0.81997   0.00000  Uiso   1.00
O594   O     0.21486   0.49550   0.68003   0.00000  Uiso   1.00
O595   O     0.21485   0.49552   0.81218   0.00000  Uiso   1.00
O596   O     0.11848   0.50448   0.68782   0.00000  Uiso   1.00
Zn597  Zn    0.10231   0.50600   0.75521   0.00000  Uiso   1.00
Zn598  Zn    0.23102   0.49400   0.74479   0.00000  Uiso   1.00
C599   C     0.51531   0.59827   0.74883   0.00000  Uiso   1.00
C600   C     0.54918   0.51999   0.90452   0.00000  Uiso   1.00
C601   C     0.49878   0.50182   0.61573   0.00000  Uiso   1.00
C602   C     0.50122   0.49818   0.88427   0.00000  Uiso   1.00
C603   C     0.54694   0.52389   0.59059   0.00000  Uiso   1.00
C604   C     0.45306   0.47611   0.90941   0.00000  Uiso   1.00
C605   C     0.54810   0.52401   0.54410   0.00000  Uiso   1.00
C606   C     0.45190   0.47599   0.95590   0.00000  Uiso   1.00
C607   C     0.49986   0.50070   0.52331   0.00000  Uiso   1.00
C608   C     0.50014   0.49930   0.97669   0.00000  Uiso   1.00
C609   C     0.45124   0.47872   0.54919   0.00000  Uiso   1.00
C610   C     0.48469   0.40173   0.75117   0.00000  Uiso   1.00
C611   C     0.54876   0.52128   0.95081   0.00000  Uiso   1.00
C612   C     0.59604   0.54644   0.51789   0.00000  Uiso   1.00
C613   C     0.40396   0.45356   0.98211   0.00000  Uiso   1.00
C614   C     0.59598   0.54473   0.97140   0.00000  Uiso   1.00
C615   C     0.40402   0.45527   0.52860   0.00000  Uiso   1.00
C616   C     0.52336   0.65279   0.74814   0.00000  Uiso   1.00
C617   C     0.47664   0.34721   0.75186   0.00000  Uiso   1.00
C618   C     0.50049   0.49953   0.83654   0.00000  Uiso   1.00
C619   C     0.49951   0.50047   0.66346   0.00000  Uiso   1.00
C620   C     0.45082   0.48001   0.59548   0.00000  Uiso   1.00
H621   H     0.41396   0.46284   0.61577   0.00000  Uiso   1.00
H622   H     0.66197   0.53906   0.78398   0.00000  Uiso   1.00
H623   H     0.58604   0.53716   0.88423   0.00000  Uiso   1.00
H624   H     0.58305   0.54089   0.60777   0.00000  Uiso   1.00
H625   H     0.41695   0.45911   0.89223   0.00000  Uiso   1.00
H626   H     0.63297   0.56180   0.95129   0.00000  Uiso   1.00
H627   H     0.36703   0.43820   0.54871   0.00000  Uiso   1.00
H628   H     0.56746   0.33658   0.74459   0.00000  Uiso   1.00
H629   H     0.43254   0.66342   0.75541   0.00000  Uiso   1.00
H630   H     0.33802   0.46094   0.71602   0.00000  Uiso   1.00
I631   I     0.33662   0.58444   0.54503   0.00000  Uiso   1.00
I632   I     0.66338   0.41557   0.95497   0.00000  Uiso   1.00
N633   N     0.65011   0.48598   0.73783   0.00000  Uiso   1.00
N634   N     0.34989   0.51402   0.76217   0.00000  Uiso   1.00
O635   O     0.46308   0.57952   0.75298   0.00000  Uiso   1.00
O636   O     0.53692   0.42048   0.74702   0.00000  Uiso   1.00
O637   O     0.55946   0.57054   0.74518   0.00000  Uiso   1.00
O638   O     0.44054   0.42946   0.75482   0.00000  Uiso   1.00
O639   O     0.45181   0.50450   0.81997   0.00000  Uiso   1.00
O640   O     0.54819   0.49550   0.68003   0.00000  Uiso   1.00
O641   O     0.54819   0.49552   0.81218   0.00000  Uiso   1.00
O642   O     0.45181   0.50448   0.68782   0.00000  Uiso   1.00
Zn643  Zn    0.43565   0.50600   0.75521   0.00000  Uiso   1.00
Zn644  Zn    0.56435   0.49400   0.74479   0.00000  Uiso   1.00
C645   C     0.84865   0.59827   0.74883   0.00000  Uiso   1.00
C646   C     0.88251   0.51999   0.90452   0.00000  Uiso   1.00
C647   C     0.83211   0.50182   0.61573   0.00000  Uiso   1.00
C648   C     0.83456   0.49818   0.88427   0.00000  Uiso   1.00
C649   C     0.88027   0.52389   0.59059   0.00000  Uiso   1.00
C650   C     0.78639   0.47611   0.90941   0.00000  Uiso   1.00
C651   C     0.88143   0.52401   0.54410   0.00000  Uiso   1.00
C652   C     0.78524   0.47599   0.95590   0.00000  Uiso   1.00
C653   C     0.83319   0.50070   0.52331   0.00000  Uiso   1.00
C654   C     0.83348   0.49930   0.97669   0.00000  Uiso   1.00
C655   C     0.78458   0.47872   0.54919   0.00000  Uiso   1.00
C656   C     0.81802   0.40173   0.75117   0.00000  Uiso   1.00
C657   C     0.88209   0.52128   0.95081   0.00000  Uiso   1.00
C658   C     0.92937   0.54644   0.51789   0.00000  Uiso   1.00
C659   C     0.73729   0.45356   0.98211   0.00000  Uiso   1.00
C660   C     0.92931   0.54473   0.97140   0.00000  Uiso   1.00
C661   C     0.73735   0.45527   0.52860   0.00000  Uiso   1.00
C662   C     0.85670   0.65279   0.74814   0.00000  Uiso   1.00
C663   C     0.80997   0.34721   0.75186   0.00000  Uiso   1.00
C664   C     0.83382   0.49953   0.83654   0.00000  Uiso   1.00
C665   C     0.83284   0.50047   0.66346   0.00000  Uiso   1.00
C666   C     0.78415   0.48001   0.59548   0.00000  Uiso   1.00
H667   H     0.74730   0.46284   0.61577   0.00000  Uiso   1.00
H668   H     0.99531   0.53906   0.78398   0.00000  Uiso   1.00
H669   H     0.91937   0.53716   0.88423   0.00000  Uiso   1.00
H670   H     0.91639   0.54089   0.60777   0.00000  Uiso   1.00
H671   H     0.75028   0.45911   0.89223   0.00000  Uiso   1.00
H672   H     0.96630   0.56180   0.95129   0.00000  Uiso   1.00
H673   H     0.70036   0.43820   0.54871   0.00000  Uiso   1.00
H674   H     0.90079   0.33658   0.74459   0.00000  Uiso   1.00
H675   H     0.76587   0.66342   0.75541   0.00000  Uiso   1.00
H676   H     0.67136   0.46094   0.71602   0.00000  Uiso   1.00
I677   I     0.66995   0.58444   0.54503   0.00000  Uiso   1.00
I678   I     0.99671   0.41557   0.95497   0.00000  Uiso   1.00
N679   N     0.98344   0.48598   0.73783   0.00000  Uiso   1.00
N680   N     0.68322   0.51402   0.76217   0.00000  Uiso   1.00
O681   O     0.79642   0.57952   0.75298   0.00000  Uiso   1.00
O682   O     0.87025   0.42048   0.74702   0.00000  Uiso   1.00
O683   O     0.89280   0.57054   0.74518   0.00000  Uiso   1.00
O684   O     0.77387   0.42946   0.75482   0.00000  Uiso   1.00
O685   O     0.78514   0.50450   0.81997   0.00000  Uiso   1.00
O686   O     0.88153   0.49550   0.68003   0.00000  Uiso   1.00
O687   O     0.88152   0.49552   0.81218   0.00000  Uiso   1.00
O688   O     0.78515   0.50448   0.68782   0.00000  Uiso   1.00
Zn689  Zn    0.76898   0.50600   0.75521   0.00000  Uiso   1.00
Zn690  Zn    0.89769   0.49400   0.74479   0.00000  Uiso   1.00
C691   C     0.18198   0.93160   0.74883   0.00000  Uiso   1.00
C692   C     0.21585   0.85332   0.90452   0.00000  Uiso   1.00
C693   C     0.16544   0.83516   0.61573   0.00000  Uiso   1.00
C694   C     0.16789   0.83151   0.88427   0.00000  Uiso   1.00
C695   C     0.21361   0.85722   0.59059   0.00000  Uiso   1.00
C696   C     0.11973   0.80945   0.90941   0.00000  Uiso   1.00
C697   C     0.21476   0.85735   0.54410   0.00000  Uiso   1.00
C698   C     0.11857   0.80932   0.95590   0.00000  Uiso   1.00
C699   C     0.16652   0.83404   0.52331   0.00000  Uiso   1.00
C700   C     0.16681   0.83263   0.97669   0.00000  Uiso   1.00
C701   C     0.11791   0.81205   0.54919   0.00000  Uiso   1.00
C702   C     0.15135   0.73506   0.75117   0.00000  Uiso   1.00
C703   C     0.21542   0.85462   0.95081   0.00000  Uiso   1.00
C704   C     0.26271   0.87977   0.51789   0.00000  Uiso   1.00
C705   C     0.07063   0.78690   0.98211   0.00000  Uiso   1.00
C706   C     0.26265   0.87806   0.97140   0.00000  Uiso   1.00
C707   C     0.07069   0.78860   0.52860   0.00000  Uiso   1.00
C708   C     0.19003   0.98612   0.74814   0.00000  Uiso   1.00
C709   C     0.14330   0.68054   0.75186   0.00000  Uiso   1.00
C710   C     0.16716   0.83286   0.83654   0.00000  Uiso   1.00
C711   C     0.16618   0.83381   0.66346   0.00000  Uiso   1.00
C712   C     0.11749   0.81335   0.59548   0.00000  Uiso   1.00
H713   H     0.08063   0.79618   0.61577   0.00000  Uiso   1.00
H714   H     0.32864   0.87239   0.78398   0.00000  Uiso   1.00
H715   H     0.25270   0.87049   0.88423   0.00000  Uiso   1.00
H716   H     0.24972   0.87422   0.60777   0.00000  Uiso   1.00
H717   H     0.08361   0.79244   0.89223   0.00000  Uiso   1.00
H718   H     0.29964   0.89514   0.95129   0.00000  Uiso   1.00
H719   H     0.03370   0.77153   0.54871   0.00000  Uiso   1.00
H720   H     0.23412   0.66991   0.74459   0.00000  Uiso   1.00
H721   H     0.09921   0.99676   0.75541   0.00000  Uiso   1.00
H722   H     0.00469   0.79427   0.71602   0.00000  Uiso   1.00
I723   I     0.00328   0.91777   0.54503   0.00000  Uiso   1.00
I724   I     0.33005   0.74890   0.95497   0.00000  Uiso   1.00
N725   N     0.31678   0.81932   0.73783   0.00000  Uiso   1.00
N726   N     0.01656   0.84735   0.76217   0.00000  Uiso   1.00
O727   O     0.12975   0.91286   0.75298   0.00000  Uiso   1.00
O728   O     0.20358   0.75381   0.74702   0.00000  Uiso   1.00
O729   O     0.22613   0.90387   0.74518   0.00000  Uiso   1.00
O730   O     0.10720   0.76279   0.75482   0.00000  Uiso   1.00
O731   O     0.11847   0.83784   0.81997   0.00000  Uiso   1.00
O732   O     0.21486   0.82883   0.68003   0.00000  Uiso   1.00
O733   O     0.21485   0.82885   0.81218   0.00000  Uiso   1.00
O734   O     0.11848   0.83781   0.68782   0.00000  Uiso   1.00
Zn735  Zn    0.10231   0.83933   0.75521   0.00000  Uiso   1.00
Zn736  Zn    0.23102   0.82734   0.74479   0.00000  Uiso   1.00
C737   C     0.51531   0.93160   0.74883   0.00000  Uiso   1.00
C738   C     0.54918   0.85332   0.90452   0.00000  Uiso   1.00
C739   C     0.49878   0.83516   0.61573   0.00000  Uiso   1.00
C740   C     0.50122   0.83151   0.88427   0.00000  Uiso   1.00
C741   C     0.54694   0.85722   0.59059   0.00000  Uiso   1.00
C742   C     0.45306   0.80945   0.90941   0.00000  Uiso   1.00
C743   C     0.54810   0.85735   0.54410   0.00000  Uiso   1.00
C744   C     0.45190   0.80932   0.95590   0.00000  Uiso   1.00
C745   C     0.49986   0.83404   0.52331   0.00000  Uiso   1.00
C746   C     0.50014   0.83263   0.97669   0.00000  Uiso   1.00
C747   C     0.45124   0.81205   0.54919   0.00000  Uiso   1.00
C748   C     0.48469   0.73506   0.75117   0.00000  Uiso   1.00
C749   C     0.54876   0.85462   0.95081   0.00000  Uiso   1.00
C750   C     0.59604   0.87977   0.51789   0.00000  Uiso   1.00
C751   C     0.40396   0.78690   0.98211   0.00000  Uiso   1.00
C752   C     0.59598   0.87806   0.97140   0.00000  Uiso   1.00
C753   C     0.40402   0.78860   0.52860   0.00000  Uiso   1.00
C754   C     0.52336   0.98612   0.74814   0.00000  Uiso   1.00
C755   C     0.47664   0.68054   0.75186   0.00000  Uiso   1.00
C756   C     0.50049   0.83286   0.83654   0.00000  Uiso   1.00
C757   C     0.49951   0.83381   0.66346   0.00000  Uiso   1.00
C758   C     0.45082   0.81335   0.59548   0.00000  Uiso   1.00
H759   H     0.41396   0.79618   0.61577   0.00000  Uiso   1.00
H760   H     0.66197   0.87239   0.78398   0.00000  Uiso   1.00
H761   H     0.58604   0.87049   0.88423   0.00000  Uiso   1.00
H762   H     0.58305   0.87422   0.60777   0.00000  Uiso   1.00
H763   H     0.41695   0.79244   0.89223   0.00000  Uiso   1.00
H764   H     0.63297   0.89514   0.95129   0.00000  Uiso   1.00
H765   H     0.36703   0.77153   0.54871   0.00000  Uiso   1.00
H766   H     0.56746   0.66991   0.74459   0.00000  Uiso   1.00
H767   H     0.43254   0.99676   0.75541   0.00000  Uiso   1.00
H768   H     0.33802   0.79427   0.71602   0.00000  Uiso   1.00
I769   I     0.33662   0.91777   0.54503   0.00000  Uiso   1.00
I770   I     0.66338   0.74890   0.95497   0.00000  Uiso   1.00
N771   N     0.65011   0.81932   0.73783   0.00000  Uiso   1.00
N772   N     0.34989   0.84735   0.76217   0.00000  Uiso   1.00
O773   O     0.46308   0.91286   0.75298   0.00000  Uiso   1.00
O774   O     0.53692   0.75381   0.74702   0.00000  Uiso   1.00
O775   O     0.55946   0.90387   0.74518   0.00000  Uiso   1.00
O776   O     0.44054   0.76279   0.75482   0.00000  Uiso   1.00
O777   O     0.45181   0.83784   0.81997   0.00000  Uiso   1.00
O778   O     0.54819   0.82883   0.68003   0.00000  Uiso   1.00
O779   O     0.54819   0.82885   0.81218   0.00000  Uiso   1.00
O780   O     0.45181   0.83781   0.68782   0.00000  Uiso   1.00
Zn781  Zn    0.43565   0.83933   0.75521   0.00000  Uiso   1.00
Zn782  Zn    0.56435   0.82734   0.74479   0.00000  Uiso   1.00
C783   C     0.84865   0.93160   0.74883   0.00000  Uiso   1.00
C784   C     0.88251   0.85332   0.90452   0.00000  Uiso   1.00
C785   C     0.83211   0.83516   0.61573   0.00000  Uiso   1.00
C786   C     0.83456   0.83151   0.88427   0.00000  Uiso   1.00
C787   C     0.88027   0.85722   0.59059   0.00000  Uiso   1.00
C788   C     0.78639   0.80945   0.90941   0.00000  Uiso   1.00
C789   C     0.88143   0.85735   0.54410   0.00000  Uiso   1.00
C790   C     0.78524   0.80932   0.95590   0.00000  Uiso   1.00
C791   C     0.83319   0.83404   0.52331   0.00000  Uiso   1.00
C792   C     0.83348   0.83263   0.97669   0.00000  Uiso   1.00
C793   C     0.78458   0.81205   0.54919   0.00000  Uiso   1.00
C794   C     0.81802   0.73506   0.75117   0.00000  Uiso   1.00
C795   C     0.88209   0.85462   0.95081   0.00000  Uiso   1.00
C796   C     0.92937   0.87977   0.51789   0.00000  Uiso   1.00
C797   C     0.73729   0.78690   0.98211   0.00000  Uiso   1.00
C798   C     0.92931   0.87806   0.97140   0.00000  Uiso   1.00
C799   C     0.73735   0.78860   0.52860   0.00000  Uiso   1.00
C800   C     0.85670   0.98612   0.74814   0.00000  Uiso   1.00
C801   C     0.80997   0.68054   0.75186   0.00000  Uiso   1.00
C802   C     0.83382   0.83286   0.83654   0.00000  Uiso   1.00
C803   C     0.83284   0.83381   0.66346   0.00000  Uiso   1.00
C804   C     0.78415   0.81335   0.59548   0.00000  Uiso   1.00
H805   H     0.74730   0.79618   0.61577   0.00000  Uiso   1.00
H806   H     0.99531   0.87239   0.78398   0.00000  Uiso   1.00
H807   H     0.91937   0.87049   0.88423   0.00000  Uiso   1.00
H808   H     0.91639   0.87422   0.60777   0.00000  Uiso   1.00
H809   H     0.75028   0.79244   0.89223   0.00000  Uiso   1.00
H810   H     0.96630   0.89514   0.95129   0.00000  Uiso   1.00
H811   H     0.70036   0.77153   0.54871   0.00000  Uiso   1.00
H812   H     0.90079   0.66991   0.74459   0.00000  Uiso   1.00
H813   H     0.76587   0.99676   0.75541   0.00000  Uiso   1.00
H814   H     0.67136   0.79427   0.71602   0.00000  Uiso   1.00
I815   I     0.66995   0.91777   0.54503   0.00000  Uiso   1.00
I816   I     0.99671   0.74890   0.95497   0.00000  Uiso   1.00
N817   N     0.98344   0.81932   0.73783   0.00000  Uiso   1.00
N818   N     0.68322   0.84735   0.76217   0.00000  Uiso   1.00
O819   O     0.79642   0.91286   0.75298   0.00000  Uiso   1.00
O820   O     0.87025   0.75381   0.74702   0.00000  Uiso   1.00
O821   O     0.89280   0.90387   0.74518   0.00000  Uiso   1.00
O822   O     0.77387   0.76279   0.75482   0.00000  Uiso   1.00
O823   O     0.78514   0.83784   0.81997   0.00000  Uiso   1.00
O824   O     0.88153   0.82883   0.68003   0.00000  Uiso   1.00
O825   O     0.88152   0.82885   0.81218   0.00000  Uiso   1.00
O826   O     0.78515   0.83781   0.68782   0.00000  Uiso   1.00
Zn827  Zn    0.76898   0.83933   0.75521   0.00000  Uiso   1.00
Zn828  Zn    0.89769   0.82734   0.74479   0.00000  Uiso   1.00
loop_
_geom_bond_atom_site_label_1
_geom_bond_atom_site_label_2
_geom_bond_distance
_geom_bond_site_symmetry_2
_ccdc_geom_bond_type
C1     O37     1.276   .     A
C1     C18     1.402   .     S
C1     O39     1.286   .     A
C2     C4      1.391   .     A
C2     H25     1.085   .     S
C2     C13     1.382   .     A
C3     C21     1.429   .     S
C3     C22     1.391   .     A
C3     C5      1.395   .     A
C4     C6      1.395   .     A
C4     C20     1.429   .     S
C5     H26     1.082   .     S
C5     C7      1.387   .     A
C6     H27     1.082   .     S
C6     C8      1.387   .     A
C7     C9      1.417   .     A
C7     C14     1.410   .     A
C8     C15     1.410   .     A
C8     C10     1.417   .     A
C9     C11     1.412   .     A
C9     C424    1.392   1_554 S
C10    C13     1.412   .     A
C10    C423    1.392   .     S
C11    C17     1.397   .     A
C11    C22     1.382   .     A
C12    O40     1.286   .     A
C12    C19     1.402   .     S
C12    O38     1.276   .     A
C13    C16     1.397   .     A
C14    C430    1.389   1_554 S
C14    I79     2.129   .     S
C15    C431    1.389   .     S
C15    I126    2.129   1_455 S
C16    H28     1.084   .     S
C16    C428    1.389   .     S
C17    H29     1.084   .     S
C17    C429    1.389   1_554 S
C18    C157    1.336   .     S
C18    H168    1.088   .     S
C19    C294    1.336   1_545 S
C19    H307    1.088   1_545 S
C20    O41     1.286   .     A
C20    O43     1.289   .     A
C21    O44     1.289   .     A
C21    O42     1.286   .     A
C22    H23     1.085   .     S
H24    N82     1.029   .     S
H30    C294    1.088   1_545 S
H31    C157    1.088   .     S
H32    N127    1.029   1_455 S
I33    C106    2.129   1_455 S
I34    C61     2.129   .     S
N35    Zn46    2.015   .     S
N35    H78     1.029   .     S
N35    N82     1.278   .     S
N36    Zn45    2.015   .     S
N36    H116    1.029   1_455 S
N36    N127    1.278   1_455 S
O37    Zn45    1.955   .     S
O38    Zn46    1.955   .     S
O39    Zn46    1.978   .     S
O40    Zn45    1.978   .     S
O41    Zn45    2.001   .     S
O42    Zn46    2.001   .     S
O43    Zn46    2.019   .     S
O44    Zn45    2.019   .     S
C47    O83     1.276   .     A
C47    C64     1.402   .     S
C47    O85     1.286   .     A
C48    C50     1.391   .     A
C48    H71     1.085   .     S
C48    C59     1.382   .     A
C49    C67     1.429   .     S
C49    C68     1.391   .     A
C49    C51     1.395   .     A
C50    C52     1.395   .     A
C50    C66     1.429   .     S
C51    H72     1.082   .     S
C51    C53     1.387   .     A
C52    H73     1.082   .     S
C52    C54     1.387   .     A
C53    C55     1.417   .     A
C53    C60     1.410   .     A
C54    C61     1.410   .     A
C54    C56     1.417   .     A
C55    C57     1.412   .     A
C55    C470    1.392   1_554 S
C56    C59     1.412   .     A
C56    C469    1.392   .     S
C57    C63     1.397   .     A
C57    C68     1.382   .     A
C58    O86     1.286   .     A
C58    C65     1.402   .     S
C58    O84     1.276   .     A
C59    C62     1.397   .     A
C60    C476    1.389   1_554 S
C60    I125    2.129   .     S
C61    C477    1.389   .     S
C62    H74     1.084   .     S
C62    C474    1.389   .     S
C63    H75     1.084   .     S
C63    C475    1.389   1_554 S
C64    C203    1.336   .     S
C64    H214    1.088   .     S
C65    C340    1.336   1_545 S
C65    H353    1.088   1_545 S
C66    O87     1.286   .     A
C66    O89     1.289   .     A
C67    O90     1.289   .     A
C67    O88     1.286   .     A
C68    H69     1.085   .     S
H70    N128    1.029   .     S
H76    C340    1.088   1_545 S
H77    C203    1.088   .     S
I80    C107    2.129   .     S
N81    Zn92    2.015   .     S
N81    H124    1.029   .     S
N81    N128    1.278   .     S
N82    Zn91    2.015   .     S
O83    Zn91    1.955   .     S
O84    Zn92    1.955   .     S
O85    Zn92    1.978   .     S
O86    Zn91    1.978   .     S
O87    Zn91    2.001   .     S
O88    Zn92    2.001   .     S
O89    Zn92    2.019   .     S
O90    Zn91    2.019   .     S
C93    O129    1.276   .     A
C93    C110    1.402   .     S
C93    O131    1.286   .     A
C94    C96     1.391   .     A
C94    H117    1.085   .     S
C94    C105    1.382   .     A
C95    C113    1.429   .     S
C95    C114    1.391   .     A
C95    C97     1.395   .     A
C96    C98     1.395   .     A
C96    C112    1.429   .     S
C97    H118    1.082   .     S
C97    C99     1.387   .     A
C98    H119    1.082   .     S
C98    C100    1.387   .     A
C99    C101    1.417   .     A
C99    C106    1.410   .     A
C100   C107    1.410   .     A
C100   C102    1.417   .     A
C101   C103    1.412   .     A
C101   C516    1.392   1_554 S
C102   C105    1.412   .     A
C102   C515    1.392   .     S
C103   C109    1.397   .     A
C103   C114    1.382   .     A
C104   O132    1.286   .     A
C104   C111    1.402   .     S
C104   O130    1.276   .     A
C105   C108    1.397   .     A
C106   C522    1.389   1_554 S
C106   I33     2.129   1_655 S
C107   C523    1.389   .     S
C108   H120    1.084   .     S
C108   C520    1.389   .     S
C109   H121    1.084   .     S
C109   C521    1.389   1_554 S
C110   C249    1.336   .     S
C110   H260    1.088   .     S
C111   C386    1.336   1_545 S
C111   H399    1.088   1_545 S
C112   O133    1.286   .     A
C112   O135    1.289   .     A
C113   O136    1.289   .     A
C113   O134    1.286   .     A
C114   H115    1.085   .     S
H116   N36     1.029   1_655 S
H122   C386    1.088   1_545 S
H123   C249    1.088   .     S
I126   C15     2.129   1_655 S
N127   Zn138   2.015   .     S
N127   H32     1.029   1_655 S
N127   N36     1.278   1_655 S
N128   Zn137   2.015   .     S
O129   Zn137   1.955   .     S
O130   Zn138   1.955   .     S
O131   Zn138   1.978   .     S
O132   Zn137   1.978   .     S
O133   Zn137   2.001   .     S
O134   Zn138   2.001   .     S
O135   Zn138   2.019   .     S
O136   Zn137   2.019   .     S
C139   O175    1.276   .     A
C139   C156    1.402   .     S
C139   O177    1.286   .     A
C140   C142    1.391   .     A
C140   H163    1.085   .     S
C140   C151    1.382   .     A
C141   C159    1.429   .     S
C141   C160    1.391   .     A
C141   C143    1.395   .     A
C142   C144    1.395   .     A
C142   C158    1.429   .     S
C143   H164    1.082   .     S
C143   C145    1.387   .     A
C144   H165    1.082   .     S
C144   C146    1.387   .     A
C145   C147    1.417   .     A
C145   C152    1.410   .     A
C146   C153    1.410   .     A
C146   C148    1.417   .     A
C147   C149    1.412   .     A
C147   C562    1.392   1_554 S
C148   C151    1.412   .     A
C148   C561    1.392   .     S
C149   C155    1.397   .     A
C149   C160    1.382   .     A
C150   O178    1.286   .     A
C150   C157    1.402   .     S
C150   O176    1.276   .     A
C151   C154    1.397   .     A
C152   C568    1.389   1_554 S
C152   I217    2.129   .     S
C153   C569    1.389   .     S
C153   I264    2.129   1_455 S
C154   H166    1.084   .     S
C154   C566    1.389   .     S
C155   H167    1.084   .     S
C155   C567    1.389   1_554 S
C156   C295    1.336   .     S
C156   H306    1.088   .     S
C158   O179    1.286   .     A
C158   O181    1.289   .     A
C159   O182    1.289   .     A
C159   O180    1.286   .     A
C160   H161    1.085   .     S
H162   N220    1.029   .     S
H169   C295    1.088   .     S
H170   N265    1.029   1_455 S
I171   C244    2.129   1_455 S
I172   C199    2.129   .     S
N173   Zn184   2.015   .     S
N173   H216    1.029   .     S
N173   N220    1.278   .     S
N174   Zn183   2.015   .     S
N174   H254    1.029   1_455 S
N174   N265    1.278   1_455 S
O175   Zn183   1.955   .     S
O176   Zn184   1.955   .     S
O177   Zn184   1.978   .     S
O178   Zn183   1.978   .     S
O179   Zn183   2.001   .     S
O180   Zn184   2.001   .     S
O181   Zn184   2.019   .     S
O182   Zn183   2.019   .     S
C185   O221    1.276   .     A
C185   C202    1.402   .     S
C185   O223    1.286   .     A
C186   C188    1.391   .     A
C186   H209    1.085   .     S
C186   C197    1.382   .     A
C187   C205    1.429   .     S
C187   C206    1.391   .     A
C187   C189    1.395   .     A
C188   C190    1.395   .     A
C188   C204    1.429   .     S
C189   H210    1.082   .     S
C189   C191    1.387   .     A
C190   H211    1.082   .     S
C190   C192    1.387   .     A
C191   C193    1.417   .     A
C191   C198    1.410   .     A
C192   C199    1.410   .     A
C192   C194    1.417   .     A
C193   C195    1.412   .     A
C193   C608    1.392   1_554 S
C194   C197    1.412   .     A
C194   C607    1.392   .     S
C195   C201    1.397   .     A
C195   C206    1.382   .     A
C196   O224    1.286   .     A
C196   C203    1.402   .     S
C196   O222    1.276   .     A
C197   C200    1.397   .     A
C198   C614    1.389   1_554 S
C198   I263    2.129   .     S
C199   C615    1.389   .     S
C200   H212    1.084   .     S
C200   C612    1.389   .     S
C201   H213    1.084   .     S
C201   C613    1.389   1_554 S
C202   C341    1.336   .     S
C202   H352    1.088   .     S
C204   O225    1.286   .     A
C204   O227    1.289   .     A
C205   O228    1.289   .     A
C205   O226    1.286   .     A
C206   H207    1.085   .     S
H208   N266    1.029   .     S
H215   C341    1.088   .     S
I218   C245    2.129   .     S
N219   Zn230   2.015   .     S
N219   H262    1.029   .     S
N219   N266    1.278   .     S
N220   Zn229   2.015   .     S
O221   Zn229   1.955   .     S
O222   Zn230   1.955   .     S
O223   Zn230   1.978   .     S
O224   Zn229   1.978   .     S
O225   Zn229   2.001   .     S
O226   Zn230   2.001   .     S
O227   Zn230   2.019   .     S
O228   Zn229   2.019   .     S
C231   O267    1.276   .     A
C231   C248    1.402   .     S
C231   O269    1.286   .     A
C232   C234    1.391   .     A
C232   H255    1.085   .     S
C232   C243    1.382   .     A
C233   C251    1.429   .     S
C233   C252    1.391   .     A
C233   C235    1.395   .     A
C234   C236    1.395   .     A
C234   C250    1.429   .     S
C235   H256    1.082   .     S
C235   C237    1.387   .     A
C236   H257    1.082   .     S
C236   C238    1.387   .     A
C237   C239    1.417   .     A
C237   C244    1.410   .     A
C238   C245    1.410   .     A
C238   C240    1.417   .     A
C239   C241    1.412   .     A
C239   C654    1.392   1_554 S
C240   C243    1.412   .     A
C240   C653    1.392   .     S
C241   C247    1.397   .     A
C241   C252    1.382   .     A
C242   O270    1.286   .     A
C242   C249    1.402   .     S
C242   O268    1.276   .     A
C243   C246    1.397   .     A
C244   C660    1.389   1_554 S
C244   I171    2.129   1_655 S
C245   C661    1.389   .     S
C246   H258    1.084   .     S
C246   C658    1.389   .     S
C247   H259    1.084   .     S
C247   C659    1.389   1_554 S
C248   C387    1.336   .     S
C248   H398    1.088   .     S
C250   O271    1.286   .     A
C250   O273    1.289   .     A
C251   O274    1.289   .     A
C251   O272    1.286   .     A
C252   H253    1.085   .     S
H254   N174    1.029   1_655 S
H261   C387    1.088   .     S
I264   C153    2.129   1_655 S
N265   Zn276   2.015   .     S
N265   H170    1.029   1_655 S
N265   N174    1.278   1_655 S
N266   Zn275   2.015   .     S
O267   Zn275   1.955   .     S
O268   Zn276   1.955   .     S
O269   Zn276   1.978   .     S
O270   Zn275   1.978   .     S
O271   Zn275   2.001   .     S
O272   Zn276   2.001   .     S
O273   Zn276   2.019   .     S
O274   Zn275   2.019   .     S
C277   O313    1.276   .     A
C277   C294    1.402   .     S
C277   O315    1.286   .     A
C278   C280    1.391   .     A
C278   H301    1.085   .     S
C278   C289    1.382   .     A
C279   C297    1.429   .     S
C279   C298    1.391   .     A
C279   C281    1.395   .     A
C280   C282    1.395   .     A
C280   C296    1.429   .     S
C281   H302    1.082   .     S
C281   C283    1.387   .     A
C282   H303    1.082   .     S
C282   C284    1.387   .     A
C283   C285    1.417   .     A
C283   C290    1.410   .     A
C284   C291    1.410   .     A
C284   C286    1.417   .     A
C285   C287    1.412   .     A
C285   C700    1.392   1_554 S
C286   C289    1.412   .     A
C286   C699    1.392   .     S
C287   C293    1.397   .     A
C287   C298    1.382   .     A
C288   O316    1.286   .     A
C288   C295    1.402   .     S
C288   O314    1.276   .     A
C289   C292    1.397   .     A
C290   C706    1.389   1_554 S
C290   I355    2.129   .     S
C291   C707    1.389   .     S
C291   I402    2.129   1_455 S
C292   H304    1.084   .     S
C292   C704    1.389   .     S
C293   H305    1.084   .     S
C293   C705    1.389   1_554 S
C294   C19     1.336   1_565 S
C294   H30     1.088   1_565 S
C296   O317    1.286   .     A
C296   O319    1.289   .     A
C297   O320    1.289   .     A
C297   O318    1.286   .     A
C298   H299    1.085   .     S
H300   N358    1.029   .     S
H307   C19     1.088   1_565 S
H308   N403    1.029   1_455 S
I309   C382    2.129   1_455 S
I310   C337    2.129   .     S
N311   Zn322   2.015   .     S
N311   H354    1.029   .     S
N311   N358    1.278   .     S
N312   Zn321   2.015   .     S
N312   H392    1.029   1_455 S
N312   N403    1.278   1_455 S
O313   Zn321   1.955   .     S
O314   Zn322   1.955   .     S
O315   Zn322   1.978   .     S
O316   Zn321   1.978   .     S
O317   Zn321   2.001   .     S
O318   Zn322   2.001   .     S
O319   Zn322   2.019   .     S
O320   Zn321   2.019   .     S
C323   O359    1.276   .     A
C323   C340    1.402   .     S
C323   O361    1.286   .     A
C324   C326    1.391   .     A
C324   H347    1.085   .     S
C324   C335    1.382   .     A
C325   C343    1.429   .     S
C325   C344    1.391   .     A
C325   C327    1.395   .     A
C326   C328    1.395   .     A
C326   C342    1.429   .     S
C327   H348    1.082   .     S
C327   C329    1.387   .     A
C328   H349    1.082   .     S
C328   C330    1.387   .     A
C329   C331    1.417   .     A
C329   C336    1.410   .     A
C330   C337    1.410   .     A
C330   C332    1.417   .     A
C331   C333    1.412   .     A
C331   C746    1.392   1_554 S
C332   C335    1.412   .     A
C332   C745    1.392   .     S
C333   C339    1.397   .     A
C333   C344    1.382   .     A
C334   O362    1.286   .     A
C334   C341    1.402   .     S
C334   O360    1.276   .     A
C335   C338    1.397   .     A
C336   C752    1.389   1_554 S
C336   I401    2.129   .     S
C337   C753    1.389   .     S
C338   H350    1.084   .     S
C338   C750    1.389   .     S
C339   H351    1.084   .     S
C339   C751    1.389   1_554 S
C340   C65     1.336   1_565 S
C340   H76     1.088   1_565 S
C342   O363    1.286   .     A
C342   O365    1.289   .     A
C343   O366    1.289   .     A
C343   O364    1.286   .     A
C344   H345    1.085   .     S
H346   N404    1.029   .     S
H353   C65     1.088   1_565 S
I356   C383    2.129   .     S
N357   Zn368   2.015   .     S
N357   H400    1.029   .     S
N357   N404    1.278   .     S
N358   Zn367   2.015   .     S
O359   Zn367   1.955   .     S
O360   Zn368   1.955   .     S
O361   Zn368   1.978   .     S
O362   Zn367   1.978   .     S
O363   Zn367   2.001   .     S
O364   Zn368   2.001   .     S
O365   Zn368   2.019   .     S
O366   Zn367   2.019   .     S
C369   O405    1.276   .     A
C369   C386    1.402   .     S
C369   O407    1.286   .     A
C370   C372    1.391   .     A
C370   H393    1.085   .     S
C370   C381    1.382   .     A
C371   C389    1.429   .     S
C371   C390    1.391   .     A
C371   C373    1.395   .     A
C372   C374    1.395   .     A
C372   C388    1.429   .     S
C373   H394    1.082   .     S
C373   C375    1.387   .     A
C374   H395    1.082   .     S
C374   C376    1.387   .     A
C375   C377    1.417   .     A
C375   C382    1.410   .     A
C376   C383    1.410   .     A
C376   C378    1.417   .     A
C377   C379    1.412   .     A
C377   C792    1.392   1_554 S
C378   C381    1.412   .     A
C378   C791    1.392   .     S
C379   C385    1.397   .     A
C379   C390    1.382   .     A
C380   O408    1.286   .     A
C380   C387    1.402   .     S
C380   O406    1.276   .     A
C381   C384    1.397   .     A
C382   C798    1.389   1_554 S
C382   I309    2.129   1_655 S
C383   C799    1.389   .     S
C384   H396    1.084   .     S
C384   C796    1.389   .     S
C385   H397    1.084   .     S
C385   C797    1.389   1_554 S
C386   C111    1.336   1_565 S
C386   H122    1.088   1_565 S
C388   O409    1.286   .     A
C388   O411    1.289   .     A
C389   O412    1.289   .     A
C389   O410    1.286   .     A
C390   H391    1.085   .     S
H392   N312    1.029   1_655 S
H399   C111    1.088   1_565 S
I402   C291    2.129   1_655 S
N403   Zn414   2.015   .     S
N403   H308    1.029   1_655 S
N403   N312    1.278   1_655 S
N404   Zn413   2.015   .     S
O405   Zn413   1.955   .     S
O406   Zn414   1.955   .     S
O407   Zn414   1.978   .     S
O408   Zn413   1.978   .     S
O409   Zn413   2.001   .     S
O410   Zn414   2.001   .     S
O411   Zn414   2.019   .     S
O412   Zn413   2.019   .     S
C415   O451    1.276   .     A
C415   C432    1.402   .     S
C415   O453    1.286   .     A
C416   C418    1.391   .     A
C416   H439    1.085   .     S
C416   C427    1.382   .     A
C417   C435    1.429   .     S
C417   C436    1.391   .     A
C417   C419    1.395   .     A
C418   C420    1.395   .     A
C418   C434    1.429   .     S
C419   H440    1.082   .     S
C419   C421    1.387   .     A
C420   H441    1.082   .     S
C420   C422    1.387   .     A
C421   C423    1.417   .     A
C421   C428    1.410   .     A
C422   C429    1.410   .     A
C422   C424    1.417   .     A
C423   C425    1.412   .     A
C424   C427    1.412   .     A
C424   C9      1.392   1_556 S
C425   C431    1.397   .     A
C425   C436    1.382   .     A
C426   O454    1.286   .     A
C426   C433    1.402   .     S
C426   O452    1.276   .     A
C427   C430    1.397   .     A
C428   I493    2.129   .     S
C429   C17     1.389   1_556 S
C429   I540    2.129   1_455 S
C430   H442    1.084   .     S
C430   C14     1.389   1_556 S
C431   H443    1.084   .     S
C432   C571    1.336   .     S
C432   H582    1.088   .     S
C433   C708    1.336   1_545 S
C433   H721    1.088   1_545 S
C434   O455    1.286   .     A
C434   O457    1.289   .     A
C435   O458    1.289   .     A
C435   O456    1.286   .     A
C436   H437    1.085   .     S
H438   N496    1.029   .     S
H444   C708    1.088   1_545 S
H445   C571    1.088   .     S
H446   N541    1.029   1_455 S
I447   C520    2.129   1_455 S
I448   C475    2.129   .     S
N449   Zn460   2.015   .     S
N449   H492    1.029   .     S
N449   N496    1.278   .     S
N450   Zn459   2.015   .     S
N450   H530    1.029   1_455 S
N450   N541    1.278   1_455 S
O451   Zn459   1.955   .     S
O452   Zn460   1.955   .     S
O453   Zn460   1.978   .     S
O454   Zn459   1.978   .     S
O455   Zn459   2.001   .     S
O456   Zn460   2.001   .     S
O457   Zn460   2.019   .     S
O458   Zn459   2.019   .     S
C461   O497    1.276   .     A
C461   C478    1.402   .     S
C461   O499    1.286   .     A
C462   C464    1.391   .     A
C462   H485    1.085   .     S
C462   C473    1.382   .     A
C463   C481    1.429   .     S
C463   C482    1.391   .     A
C463   C465    1.395   .     A
C464   C466    1.395   .     A
C464   C480    1.429   .     S
C465   H486    1.082   .     S
C465   C467    1.387   .     A
C466   H487    1.082   .     S
C466   C468    1.387   .     A
C467   C469    1.417   .     A
C467   C474    1.410   .     A
C468   C475    1.410   .     A
C468   C470    1.417   .     A
C469   C471    1.412   .     A
C470   C473    1.412   .     A
C470   C55     1.392   1_556 S
C471   C477    1.397   .     A
C471   C482    1.382   .     A
C472   O500    1.286   .     A
C472   C479    1.402   .     S
C472   O498    1.276   .     A
C473   C476    1.397   .     A
C474   I539    2.129   .     S
C475   C63     1.389   1_556 S
C476   H488    1.084   .     S
C476   C60     1.389   1_556 S
C477   H489    1.084   .     S
C478   C617    1.336   .     S
C478   H628    1.088   .     S
C479   C754    1.336   1_545 S
C479   H767    1.088   1_545 S
C480   O501    1.286   .     A
C480   O503    1.289   .     A
C481   O504    1.289   .     A
C481   O502    1.286   .     A
C482   H483    1.085   .     S
H484   N542    1.029   .     S
H490   C754    1.088   1_545 S
H491   C617    1.088   .     S
I494   C521    2.129   .     S
N495   Zn506   2.015   .     S
N495   H538    1.029   .     S
N495   N542    1.278   .     S
N496   Zn505   2.015   .     S
O497   Zn505   1.955   .     S
O498   Zn506   1.955   .     S
O499   Zn506   1.978   .     S
O500   Zn505   1.978   .     S
O501   Zn505   2.001   .     S
O502   Zn506   2.001   .     S
O503   Zn506   2.019   .     S
O504   Zn505   2.019   .     S
C507   O543    1.276   .     A
C507   C524    1.402   .     S
C507   O545    1.286   .     A
C508   C510    1.391   .     A
C508   H531    1.085   .     S
C508   C519    1.382   .     A
C509   C527    1.429   .     S
C509   C528    1.391   .     A
C509   C511    1.395   .     A
C510   C512    1.395   .     A
C510   C526    1.429   .     S
C511   H532    1.082   .     S
C511   C513    1.387   .     A
C512   H533    1.082   .     S
C512   C514    1.387   .     A
C513   C515    1.417   .     A
C513   C520    1.410   .     A
C514   C521    1.410   .     A
C514   C516    1.417   .     A
C515   C517    1.412   .     A
C516   C519    1.412   .     A
C516   C101    1.392   1_556 S
C517   C523    1.397   .     A
C517   C528    1.382   .     A
C518   O546    1.286   .     A
C518   C525    1.402   .     S
C518   O544    1.276   .     A
C519   C522    1.397   .     A
C520   I447    2.129   1_655 S
C521   C109    1.389   1_556 S
C522   H534    1.084   .     S
C522   C106    1.389   1_556 S
C523   H535    1.084   .     S
C524   C663    1.336   .     S
C524   H674    1.088   .     S
C525   C800    1.336   1_545 S
C525   H813    1.088   1_545 S
C526   O547    1.286   .     A
C526   O549    1.289   .     A
C527   O550    1.289   .     A
C527   O548    1.286   .     A
C528   H529    1.085   .     S
H530   N450    1.029   1_655 S
H536   C800    1.088   1_545 S
H537   C663    1.088   .     S
I540   C429    2.129   1_655 S
N541   Zn552   2.015   .     S
N541   H446    1.029   1_655 S
N541   N450    1.278   1_655 S
N542   Zn551   2.015   .     S
O543   Zn551   1.955   .     S
O544   Zn552   1.955   .     S
O545   Zn552   1.978   .     S
O546   Zn551   1.978   .     S
O547   Zn551   2.001   .     S
O548   Zn552   2.001   .     S
O549   Zn552   2.019   .     S
O550   Zn551   2.019   .     S
C553   O589    1.276   .     A
C553   C570    1.402   .     S
C553   O591    1.286   .     A
C554   C556    1.391   .     A
C554   H577    1.085   .     S
C554   C565    1.382   .     A
C555   C573    1.429   .     S
C555   C574    1.391   .     A
C555   C557    1.395   .     A
C556   C558    1.395   .     A
C556   C572    1.429   .     S
C557   H578    1.082   .     S
C557   C559    1.387   .     A
C558   H579    1.082   .     S
C558   C560    1.387   .     A
C559   C561    1.417   .     A
C559   C566    1.410   .     A
C560   C567    1.410   .     A
C560   C562    1.417   .     A
C561   C563    1.412   .     A
C562   C565    1.412   .     A
C562   C147    1.392   1_556 S
C563   C569    1.397   .     A
C563   C574    1.382   .     A
C564   O592    1.286   .     A
C564   C571    1.402   .     S
C564   O590    1.276   .     A
C565   C568    1.397   .     A
C566   I631    2.129   .     S
C567   C155    1.389   1_556 S
C567   I678    2.129   1_455 S
C568   H580    1.084   .     S
C568   C152    1.389   1_556 S
C569   H581    1.084   .     S
C570   C709    1.336   .     S
C570   H720    1.088   .     S
C572   O593    1.286   .     A
C572   O595    1.289   .     A
C573   O596    1.289   .     A
C573   O594    1.286   .     A
C574   H575    1.085   .     S
H576   N634    1.029   .     S
H583   C709    1.088   .     S
H584   N679    1.029   1_455 S
I585   C658    2.129   1_455 S
I586   C613    2.129   .     S
N587   Zn598   2.015   .     S
N587   H630    1.029   .     S
N587   N634    1.278   .     S
N588   Zn597   2.015   .     S
N588   H668    1.029   1_455 S
N588   N679    1.278   1_455 S
O589   Zn597   1.955   .     S
O590   Zn598   1.955   .     S
O591   Zn598   1.978   .     S
O592   Zn597   1.978   .     S
O593   Zn597   2.001   .     S
O594   Zn598   2.001   .     S
O595   Zn598   2.019   .     S
O596   Zn597   2.019   .     S
C599   O635    1.276   .     A
C599   C616    1.402   .     S
C599   O637    1.286   .     A
C600   C602    1.391   .     A
C600   H623    1.085   .     S
C600   C611    1.382   .     A
C601   C619    1.429   .     S
C601   C620    1.391   .     A
C601   C603    1.395   .     A
C602   C604    1.395   .     A
C602   C618    1.429   .     S
C603   H624    1.082   .     S
C603   C605    1.387   .     A
C604   H625    1.082   .     S
C604   C606    1.387   .     A
C605   C607    1.417   .     A
C605   C612    1.410   .     A
C606   C613    1.410   .     A
C606   C608    1.417   .     A
C607   C609    1.412   .     A
C608   C611    1.412   .     A
C608   C193    1.392   1_556 S
C609   C615    1.397   .     A
C609   C620    1.382   .     A
C610   O638    1.286   .     A
C610   C617    1.402   .     S
C610   O636    1.276   .     A
C611   C614    1.397   .     A
C612   I677    2.129   .     S
C613   C201    1.389   1_556 S
C614   H626    1.084   .     S
C614   C198    1.389   1_556 S
C615   H627    1.084   .     S
C616   C755    1.336   .     S
C616   H766    1.088   .     S
C618   O639    1.286   .     A
C618   O641    1.289   .     A
C619   O642    1.289   .     A
C619   O640    1.286   .     A
C620   H621    1.085   .     S
H622   N680    1.029   .     S
H629   C755    1.088   .     S
I632   C659    2.129   .     S
N633   Zn644   2.015   .     S
N633   H676    1.029   .     S
N633   N680    1.278   .     S
N634   Zn643   2.015   .     S
O635   Zn643   1.955   .     S
O636   Zn644   1.955   .     S
O637   Zn644   1.978   .     S
O638   Zn643   1.978   .     S
O639   Zn643   2.001   .     S
O640   Zn644   2.001   .     S
O641   Zn644   2.019   .     S
O642   Zn643   2.019   .     S
C645   O681    1.276   .     A
C645   C662    1.402   .     S
C645   O683    1.286   .     A
C646   C648    1.391   .     A
C646   H669    1.085   .     S
C646   C657    1.382   .     A
C647   C665    1.429   .     S
C647   C666    1.391   .     A
C647   C649    1.395   .     A
C648   C650    1.395   .     A
C648   C664    1.429   .     S
C649   H670    1.082   .     S
C649   C651    1.387   .     A
C650   H671    1.082   .     S
C650   C652    1.387   .     A
C651   C653    1.417   .     A
C651   C658    1.410   .     A
C652   C659    1.410   .     A
C652   C654    1.417   .     A
C653   C655    1.412   .     A
C654   C657    1.412   .     A
C654   C239    1.392   1_556 S
C655   C661    1.397   .     A
C655   C666    1.382   .     A
C656   O684    1.286   .     A
C656   C663    1.402   .     S
C656   O682    1.276   .     A
C657   C660    1.397   .     A
C658   I585    2.129   1_655 S
C659   C247    1.389   1_556 S
C660   H672    1.084   .     S
C660   C244    1.389   1_556 S
C661   H673    1.084   .     S
C662   C801    1.336   .     S
C662   H812    1.088   .     S
C664   O685    1.286   .     A
C664   O687    1.289   .     A
C665   O688    1.289   .     A
C665   O686    1.286   .     A
C666   H667    1.085   .     S
H668   N588    1.029   1_655 S
H675   C801    1.088   .     S
I678   C567    2.129   1_655 S
N679   Zn690   2.015   .     S
N679   H584    1.029   1_655 S
N679   N588    1.278   1_655 S
N680   Zn689   2.015   .     S
O681   Zn689   1.955   .     S
O682   Zn690   1.955   .     S
O683   Zn690   1.978   .     S
O684   Zn689   1.978   .     S
O685   Zn689   2.001   .     S
O686   Zn690   2.001   .     S
O687   Zn690   2.019   .     S
O688   Zn689   2.019   .     S
C691   O727    1.276   .     A
C691   C708    1.402   .     S
C691   O729    1.286   .     A
C692   C694    1.391   .     A
C692   H715    1.085   .     S
C692   C703    1.382   .     A
C693   C711    1.429   .     S
C693   C712    1.391   .     A
C693   C695    1.395   .     A
C694   C696    1.395   .     A
C694   C710    1.429   .     S
C695   H716    1.082   .     S
C695   C697    1.387   .     A
C696   H717    1.082   .     S
C696   C698    1.387   .     A
C697   C699    1.417   .     A
C697   C704    1.410   .     A
C698   C705    1.410   .     A
C698   C700    1.417   .     A
C699   C701    1.412   .     A
C700   C703    1.412   .     A
C700   C285    1.392   1_556 S
C701   C707    1.397   .     A
C701   C712    1.382   .     A
C702   O730    1.286   .     A
C702   C709    1.402   .     S
C702   O728    1.276   .     A
C703   C706    1.397   .     A
C704   I769    2.129   .     S
C705   C293    1.389   1_556 S
C705   I816    2.129   1_455 S
C706   H718    1.084   .     S
C706   C290    1.389   1_556 S
C707   H719    1.084   .     S
C708   C433    1.336   1_565 S
C708   H444    1.088   1_565 S
C710   O731    1.286   .     A
C710   O733    1.289   .     A
C711   O734    1.289   .     A
C711   O732    1.286   .     A
C712   H713    1.085   .     S
H714   N772    1.029   .     S
H721   C433    1.088   1_565 S
H722   N817    1.029   1_455 S
I723   C796    2.129   1_455 S
I724   C751    2.129   .     S
N725   Zn736   2.015   .     S
N725   H768    1.029   .     S
N725   N772    1.278   .     S
N726   Zn735   2.015   .     S
N726   H806    1.029   1_455 S
N726   N817    1.278   1_455 S
O727   Zn735   1.955   .     S
O728   Zn736   1.955   .     S
O729   Zn736   1.978   .     S
O730   Zn735   1.978   .     S
O731   Zn735   2.001   .     S
O732   Zn736   2.001   .     S
O733   Zn736   2.019   .     S
O734   Zn735   2.019   .     S
C737   O773    1.276   .     A
C737   C754    1.402   .     S
C737   O775    1.286   .     A
C738   C740    1.391   .     A
C738   H761    1.085   .     S
C738   C749    1.382   .     A
C739   C757    1.429   .     S
C739   C758    1.391   .     A
C739   C741    1.395   .     A
C740   C742    1.395   .     A
C740   C756    1.429   .     S
C741   H762    1.082   .     S
C741   C743    1.387   .     A
C742   H763    1.082   .     S
C742   C744    1.387   .     A
C743   C745    1.417   .     A
C743   C750    1.410   .     A
C744   C751    1.410   .     A
C744   C746    1.417   .     A
C745   C747    1.412   .     A
C746   C749    1.412   .     A
C746   C331    1.392   1_556 S
C747   C753    1.397   .     A
C747   C758    1.382   .     A
C748   O776    1.286   .     A
C748   C755    1.402   .     S
C748   O774    1.276   .     A
C749   C752    1.397   .     A
C750   I815    2.129   .     S
C751   C339    1.389   1_556 S
C752   H764    1.084   .     S
C752   C336    1.389   1_556 S
C753   H765    1.084   .     S
C754   C479    1.336   1_565 S
C754   H490    1.088   1_565 S
C756   O777    1.286   .     A
C756   O779    1.289   .     A
C757   O780    1.289   .     A
C757   O778    1.286   .     A
C758   H759    1.085   .     S
H760   N818    1.029   .     S
H767   C479    1.088   1_565 S
I770   C797    2.129   .     S
N771   Zn782   2.015   .     S
N771   H814    1.029   .     S
N771   N818    1.278   .     S
N772   Zn781   2.015   .     S
O773   Zn781   1.955   .     S
O774   Zn782   1.955   .     S
O775   Zn782   1.978   .     S
O776   Zn781   1.978   .     S
O777   Zn781   2.001   .     S
O778   Zn782   2.001   .     S
O779   Zn782   2.019   .     S
O780   Zn781   2.019   .     S
C783   O819    1.276   .     A
C783   C800    1.402   .     S
C783   O821    1.286   .     A
C784   C786    1.391   .     A
C784   H807    1.085   .     S
C784   C795    1.382   .     A
C785   C803    1.429   .     S
C785   C804    1.391   .     A
C785   C787    1.395   .     A
C786   C788    1.395   .     A
C786   C802    1.429   .     S
C787   H808    1.082   .     S
C787   C789    1.387   .     A
C788   H809    1.082   .     S
C788   C790    1.387   .     A
C789   C791    1.417   .     A
C789   C796    1.410   .     A
C790   C797    1.410   .     A
C790   C792    1.417   .     A
C791   C793    1.412   .     A
C792   C795    1.412   .     A
C792   C377    1.392   1_556 S
C793   C799    1.397   .     A
C793   C804    1.382   .     A
C794   O822    1.286   .     A
C794   C801    1.402   .     S
C794   O820    1.276   .     A
C795   C798    1.397   .     A
C796   I723    2.129   1_655 S
C797   C385    1.389   1_556 S
C798   H810    1.084   .     S
C798   C382    1.389   1_556 S
C799   H811    1.084   .     S
C800   C525    1.336   1_565 S
C800   H536    1.088   1_565 S
C802   O823    1.286   .     A
C802   O825    1.289   .     A
C803   O826    1.289   .     A
C803   O824    1.286   .     A
C804   H805    1.085   .     S
H806   N726    1.029   1_655 S
H813   C525    1.088   1_565 S
I816   C705    2.129   1_655 S
N817   Zn828   2.015   .     S
N817   H722    1.029   1_655 S
N817   N726    1.278   1_655 S
N818   Zn827   2.015   .     S
O819   Zn827   1.955   .     S
O820   Zn828   1.955   .     S
O821   Zn828   1.978   .     S
O822   Zn827   1.978   .     S
O823   Zn827   2.001   .     S
O824   Zn828   2.001   .     S
O825   Zn828   2.019   .     S
O826   Zn827   2.019   .     S
