data_str_m3_o1_o2_pcu_sym.31
_audit_creation_date              2020-01-03
_audit_creation_method            'Materials Studio'
_symmetry_space_group_name_H-M    'P1'
_symmetry_Int_Tables_number       1
_symmetry_cell_setting            triclinic
loop_
_symmetry_equiv_pos_as_xyz
  x,y,z
_cell_length_a                    32.1437
_cell_length_b                    29.4981
_cell_length_c                    30.0087
_cell_angle_alpha                 90.0094
_cell_angle_beta                  90.1184
_cell_angle_gamma                 90.0113
loop_
_atom_site_label
_atom_site_type_symbol
_atom_site_fract_x
_atom_site_fract_y
_atom_site_fract_z
_atom_site_U_iso_or_equiv
_atom_site_adp_type
_atom_site_occupancy
C1     C     0.08662   0.16666   0.24997   0.00000  Uiso   1.00
C2     C     0.31202   0.20706   0.24126   0.00000  Uiso   1.00
C3     C     0.31204   0.12628   0.25879   0.00000  Uiso   1.00
C4     C     0.02130   0.20705   0.24121   0.00000  Uiso   1.00
C5     C     0.18602   0.20260   0.04727   0.00000  Uiso   1.00
C6     C     0.18595   0.13057   0.45279   0.00000  Uiso   1.00
C7     C     0.14795   0.20269   0.45283   0.00000  Uiso   1.00
C8     C     0.14788   0.13055   0.04711   0.00000  Uiso   1.00
C9     C     0.18467   0.20295   0.09335   0.00000  Uiso   1.00
C10    C     0.18466   0.13029   0.40670   0.00000  Uiso   1.00
C11    C     0.14909   0.20302   0.40674   0.00000  Uiso   1.00
C12    C     0.24672   0.16667   0.25003   0.00000  Uiso   1.00
C13    C     0.14896   0.13028   0.09321   0.00000  Uiso   1.00
C14    C     0.16674   0.16664   0.11612   0.00000  Uiso   1.00
C15    C     0.16682   0.16666   0.38388   0.00000  Uiso   1.00
C16    C     0.16700   0.16656   0.02409   0.00000  Uiso   1.00
C17    C     0.16698   0.16661   0.47591   0.00000  Uiso   1.00
C18    C     0.29086   0.16667   0.25004   0.00000  Uiso   1.00
C19    C     0.04247   0.16666   0.24996   0.00000  Uiso   1.00
C20    C     0.24564   0.23040   0.01726   0.00000  Uiso   1.00
C21    C     0.24554   0.10249   0.48285   0.00000  Uiso   1.00
C22    C     0.08845   0.23065   0.48296   0.00000  Uiso   1.00
C23    C     0.16665   0.16666   0.16394   0.00000  Uiso   1.00
C24    C     0.08829   0.10256   0.01693   0.00000  Uiso   1.00
C25    C     0.16671   0.16667   0.33606   0.00000  Uiso   1.00
C26    C     0.19277   0.02401   0.27749   0.00000  Uiso   1.00
C27    C     0.14056   0.30933   0.22252   0.00000  Uiso   1.00
C28    C     0.14057   0.02398   0.22251   0.00000  Uiso   1.00
C29    C     0.19277   0.30935   0.27748   0.00000  Uiso   1.00
C30    C     0.02132   0.12627   0.25874   0.00000  Uiso   1.00
H31    H     0.21362   0.04222   0.29945   0.00000  Uiso   1.00
H32    H     0.29577   0.23844   0.23417   0.00000  Uiso   1.00
H33    H     0.29581   0.09492   0.26593   0.00000  Uiso   1.00
H34    H     0.03752   0.23842   0.23408   0.00000  Uiso   1.00
H35    H     0.24922   0.20524   0.49001   0.00000  Uiso   1.00
H36    H     0.26233   0.21895   0.04785   0.00000  Uiso   1.00
H37    H     0.26066   0.26226   0.00604   0.00000  Uiso   1.00
H38    H     0.24935   0.12774   0.01000   0.00000  Uiso   1.00
H39    H     0.26218   0.11371   0.45223   0.00000  Uiso   1.00
H40    H     0.26043   0.07059   0.49421   0.00000  Uiso   1.00
H41    H     0.08481   0.20540   0.01011   0.00000  Uiso   1.00
H42    H     0.11970   0.29111   0.20056   0.00000  Uiso   1.00
H43    H     0.07169   0.21939   0.45235   0.00000  Uiso   1.00
H44    H     0.07357   0.26253   0.49434   0.00000  Uiso   1.00
H45    H     0.08453   0.12792   0.48988   0.00000  Uiso   1.00
H46    H     0.07161   0.11365   0.04757   0.00000  Uiso   1.00
H47    H     0.07341   0.07071   0.00540   0.00000  Uiso   1.00
H48    H     0.11972   0.04218   0.20054   0.00000  Uiso   1.00
H49    H     0.21363   0.29115   0.29944   0.00000  Uiso   1.00
H50    H     0.19845   0.23114   0.11125   0.00000  Uiso   1.00
H51    H     0.19840   0.10209   0.38884   0.00000  Uiso   1.00
H52    H     0.13529   0.23124   0.38892   0.00000  Uiso   1.00
H53    H     0.13509   0.10211   0.11100   0.00000  Uiso   1.00
H54    H     0.03756   0.09489   0.26582   0.00000  Uiso   1.00
N55    N     0.16667   0.28573   0.25000   0.00000  Uiso   1.00
N56    N     0.16667   0.04760   0.25000   0.00000  Uiso   1.00
O57    O     0.10559   0.20487   0.24999   0.00000  Uiso   1.00
O58    O     0.20306   0.09385   0.47488   0.00000  Uiso   1.00
O59    O     0.13088   0.23937   0.47494   0.00000  Uiso   1.00
O60    O     0.13076   0.09388   0.02494   0.00000  Uiso   1.00
O61    O     0.22774   0.12846   0.25000   0.00000  Uiso   1.00
O62    O     0.22774   0.20487   0.25000   0.00000  Uiso   1.00
O63    O     0.10559   0.12846   0.24999   0.00000  Uiso   1.00
O64    O     0.16666   0.20489   0.18453   0.00000  Uiso   1.00
O65    O     0.16667   0.12845   0.31547   0.00000  Uiso   1.00
O66    O     0.16667   0.20489   0.31547   0.00000  Uiso   1.00
O67    O     0.16666   0.12845   0.18453   0.00000  Uiso   1.00
O68    O     0.20323   0.23926   0.02526   0.00000  Uiso   1.00
Zn69   Zn    0.16667   0.21771   0.25000   0.00000  Uiso   1.00
Zn70   Zn    0.16667   0.11563   0.25000   0.00000  Uiso   1.00
C71    C     0.41995   0.16666   0.24997   0.00000  Uiso   1.00
C72    C     0.64535   0.20706   0.24126   0.00000  Uiso   1.00
C73    C     0.64537   0.12628   0.25879   0.00000  Uiso   1.00
C74    C     0.35463   0.20705   0.24121   0.00000  Uiso   1.00
C75    C     0.51935   0.20260   0.04727   0.00000  Uiso   1.00
C76    C     0.51928   0.13057   0.45279   0.00000  Uiso   1.00
C77    C     0.48129   0.20269   0.45283   0.00000  Uiso   1.00
C78    C     0.48121   0.13055   0.04711   0.00000  Uiso   1.00
C79    C     0.51800   0.20295   0.09335   0.00000  Uiso   1.00
C80    C     0.51799   0.13029   0.40670   0.00000  Uiso   1.00
C81    C     0.48242   0.20302   0.40674   0.00000  Uiso   1.00
C82    C     0.58005   0.16667   0.25003   0.00000  Uiso   1.00
C83    C     0.48229   0.13028   0.09321   0.00000  Uiso   1.00
C84    C     0.50008   0.16664   0.11612   0.00000  Uiso   1.00
C85    C     0.50015   0.16666   0.38388   0.00000  Uiso   1.00
C86    C     0.50033   0.16656   0.02409   0.00000  Uiso   1.00
C87    C     0.50032   0.16661   0.47591   0.00000  Uiso   1.00
C88    C     0.62419   0.16667   0.25004   0.00000  Uiso   1.00
C89    C     0.37581   0.16666   0.24996   0.00000  Uiso   1.00
C90    C     0.57897   0.23040   0.01726   0.00000  Uiso   1.00
C91    C     0.57887   0.10249   0.48285   0.00000  Uiso   1.00
C92    C     0.42179   0.23065   0.48296   0.00000  Uiso   1.00
C93    C     0.49999   0.16666   0.16394   0.00000  Uiso   1.00
C94    C     0.42163   0.10256   0.01693   0.00000  Uiso   1.00
C95    C     0.50004   0.16667   0.33606   0.00000  Uiso   1.00
C96    C     0.52610   0.02401   0.27749   0.00000  Uiso   1.00
C97    C     0.47390   0.30933   0.22252   0.00000  Uiso   1.00
C98    C     0.47390   0.02398   0.22251   0.00000  Uiso   1.00
C99    C     0.52610   0.30935   0.27748   0.00000  Uiso   1.00
C100   C     0.35465   0.12627   0.25874   0.00000  Uiso   1.00
H101   H     0.54695   0.04222   0.29945   0.00000  Uiso   1.00
H102   H     0.62911   0.23844   0.23417   0.00000  Uiso   1.00
H103   H     0.62914   0.09492   0.26593   0.00000  Uiso   1.00
H104   H     0.37085   0.23842   0.23408   0.00000  Uiso   1.00
H105   H     0.58255   0.20524   0.49001   0.00000  Uiso   1.00
H106   H     0.59566   0.21895   0.04785   0.00000  Uiso   1.00
H107   H     0.59399   0.26226   0.00604   0.00000  Uiso   1.00
H108   H     0.58268   0.12774   0.01000   0.00000  Uiso   1.00
H109   H     0.59552   0.11371   0.45223   0.00000  Uiso   1.00
H110   H     0.59376   0.07059   0.49421   0.00000  Uiso   1.00
H111   H     0.41814   0.20540   0.01011   0.00000  Uiso   1.00
H112   H     0.45304   0.29111   0.20056   0.00000  Uiso   1.00
H113   H     0.40502   0.21939   0.45235   0.00000  Uiso   1.00
H114   H     0.40690   0.26253   0.49434   0.00000  Uiso   1.00
H115   H     0.41786   0.12792   0.48988   0.00000  Uiso   1.00
H116   H     0.40495   0.11365   0.04757   0.00000  Uiso   1.00
H117   H     0.40674   0.07071   0.00540   0.00000  Uiso   1.00
H118   H     0.45305   0.04218   0.20054   0.00000  Uiso   1.00
H119   H     0.54696   0.29115   0.29944   0.00000  Uiso   1.00
H120   H     0.53179   0.23114   0.11125   0.00000  Uiso   1.00
H121   H     0.53173   0.10209   0.38884   0.00000  Uiso   1.00
H122   H     0.46862   0.23124   0.38892   0.00000  Uiso   1.00
H123   H     0.46842   0.10211   0.11100   0.00000  Uiso   1.00
H124   H     0.37089   0.09489   0.26582   0.00000  Uiso   1.00
N125   N     0.50000   0.28573   0.25000   0.00000  Uiso   1.00
N126   N     0.50000   0.04760   0.25000   0.00000  Uiso   1.00
O127   O     0.43892   0.20487   0.24999   0.00000  Uiso   1.00
O128   O     0.53639   0.09385   0.47488   0.00000  Uiso   1.00
O129   O     0.46422   0.23937   0.47494   0.00000  Uiso   1.00
O130   O     0.46409   0.09388   0.02494   0.00000  Uiso   1.00
O131   O     0.56108   0.12846   0.25000   0.00000  Uiso   1.00
O132   O     0.56108   0.20487   0.25000   0.00000  Uiso   1.00
O133   O     0.43892   0.12846   0.24999   0.00000  Uiso   1.00
O134   O     0.50000   0.20489   0.18453   0.00000  Uiso   1.00
O135   O     0.50000   0.12845   0.31547   0.00000  Uiso   1.00
O136   O     0.50000   0.20489   0.31547   0.00000  Uiso   1.00
O137   O     0.50000   0.12845   0.18453   0.00000  Uiso   1.00
O138   O     0.53657   0.23926   0.02526   0.00000  Uiso   1.00
Zn139  Zn    0.50000   0.21771   0.25000   0.00000  Uiso   1.00
Zn140  Zn    0.50000   0.11563   0.25000   0.00000  Uiso   1.00
C141   C     0.75328   0.16666   0.24997   0.00000  Uiso   1.00
C142   C     0.97868   0.20706   0.24126   0.00000  Uiso   1.00
C143   C     0.97870   0.12628   0.25879   0.00000  Uiso   1.00
C144   C     0.68796   0.20705   0.24121   0.00000  Uiso   1.00
C145   C     0.85268   0.20260   0.04727   0.00000  Uiso   1.00
C146   C     0.85261   0.13057   0.45279   0.00000  Uiso   1.00
C147   C     0.81462   0.20269   0.45283   0.00000  Uiso   1.00
C148   C     0.81454   0.13055   0.04711   0.00000  Uiso   1.00
C149   C     0.85134   0.20295   0.09335   0.00000  Uiso   1.00
C150   C     0.85132   0.13029   0.40670   0.00000  Uiso   1.00
C151   C     0.81576   0.20302   0.40674   0.00000  Uiso   1.00
C152   C     0.91338   0.16667   0.25003   0.00000  Uiso   1.00
C153   C     0.81563   0.13028   0.09321   0.00000  Uiso   1.00
C154   C     0.83341   0.16664   0.11612   0.00000  Uiso   1.00
C155   C     0.83349   0.16666   0.38388   0.00000  Uiso   1.00
C156   C     0.83367   0.16656   0.02409   0.00000  Uiso   1.00
C157   C     0.83365   0.16661   0.47591   0.00000  Uiso   1.00
C158   C     0.95752   0.16667   0.25004   0.00000  Uiso   1.00
C159   C     0.70914   0.16666   0.24996   0.00000  Uiso   1.00
C160   C     0.91231   0.23040   0.01726   0.00000  Uiso   1.00
C161   C     0.91221   0.10249   0.48285   0.00000  Uiso   1.00
C162   C     0.75512   0.23065   0.48296   0.00000  Uiso   1.00
C163   C     0.83332   0.16666   0.16394   0.00000  Uiso   1.00
C164   C     0.75496   0.10256   0.01693   0.00000  Uiso   1.00
C165   C     0.83338   0.16667   0.33606   0.00000  Uiso   1.00
C166   C     0.85943   0.02401   0.27749   0.00000  Uiso   1.00
C167   C     0.80723   0.30933   0.22252   0.00000  Uiso   1.00
C168   C     0.80724   0.02398   0.22251   0.00000  Uiso   1.00
C169   C     0.85944   0.30935   0.27748   0.00000  Uiso   1.00
C170   C     0.68798   0.12627   0.25874   0.00000  Uiso   1.00
H171   H     0.88029   0.04222   0.29945   0.00000  Uiso   1.00
H172   H     0.96244   0.23844   0.23417   0.00000  Uiso   1.00
H173   H     0.96248   0.09492   0.26593   0.00000  Uiso   1.00
H174   H     0.70419   0.23842   0.23408   0.00000  Uiso   1.00
H175   H     0.91588   0.20524   0.49001   0.00000  Uiso   1.00
H176   H     0.92900   0.21895   0.04785   0.00000  Uiso   1.00
H177   H     0.92732   0.26226   0.00604   0.00000  Uiso   1.00
H178   H     0.91602   0.12774   0.01000   0.00000  Uiso   1.00
H179   H     0.92885   0.11371   0.45223   0.00000  Uiso   1.00
H180   H     0.92709   0.07059   0.49421   0.00000  Uiso   1.00
H181   H     0.75148   0.20540   0.01011   0.00000  Uiso   1.00
H182   H     0.78637   0.29111   0.20056   0.00000  Uiso   1.00
H183   H     0.73835   0.21939   0.45235   0.00000  Uiso   1.00
H184   H     0.74023   0.26253   0.49434   0.00000  Uiso   1.00
H185   H     0.75120   0.12792   0.48988   0.00000  Uiso   1.00
H186   H     0.73828   0.11365   0.04757   0.00000  Uiso   1.00
H187   H     0.74007   0.07071   0.00540   0.00000  Uiso   1.00
H188   H     0.78639   0.04218   0.20054   0.00000  Uiso   1.00
H189   H     0.88029   0.29115   0.29944   0.00000  Uiso   1.00
H190   H     0.86512   0.23114   0.11125   0.00000  Uiso   1.00
H191   H     0.86506   0.10209   0.38884   0.00000  Uiso   1.00
H192   H     0.80195   0.23124   0.38892   0.00000  Uiso   1.00
H193   H     0.80176   0.10211   0.11100   0.00000  Uiso   1.00
H194   H     0.70422   0.09489   0.26582   0.00000  Uiso   1.00
N195   N     0.83333   0.28573   0.25000   0.00000  Uiso   1.00
N196   N     0.83333   0.04760   0.25000   0.00000  Uiso   1.00
O197   O     0.77226   0.20487   0.24999   0.00000  Uiso   1.00
O198   O     0.86973   0.09385   0.47488   0.00000  Uiso   1.00
O199   O     0.79755   0.23937   0.47494   0.00000  Uiso   1.00
O200   O     0.79743   0.09388   0.02494   0.00000  Uiso   1.00
O201   O     0.89441   0.12846   0.25000   0.00000  Uiso   1.00
O202   O     0.89441   0.20487   0.25000   0.00000  Uiso   1.00
O203   O     0.77226   0.12846   0.24999   0.00000  Uiso   1.00
O204   O     0.83333   0.20489   0.18453   0.00000  Uiso   1.00
O205   O     0.83334   0.12845   0.31547   0.00000  Uiso   1.00
O206   O     0.83334   0.20489   0.31547   0.00000  Uiso   1.00
O207   O     0.83333   0.12845   0.18453   0.00000  Uiso   1.00
O208   O     0.86990   0.23926   0.02526   0.00000  Uiso   1.00
Zn209  Zn    0.83333   0.21771   0.25000   0.00000  Uiso   1.00
Zn210  Zn    0.83333   0.11563   0.25000   0.00000  Uiso   1.00
C211   C     0.08662   0.50000   0.24997   0.00000  Uiso   1.00
C212   C     0.31202   0.54039   0.24126   0.00000  Uiso   1.00
C213   C     0.31204   0.45962   0.25879   0.00000  Uiso   1.00
C214   C     0.02130   0.54038   0.24121   0.00000  Uiso   1.00
C215   C     0.18602   0.53593   0.04727   0.00000  Uiso   1.00
C216   C     0.18595   0.46390   0.45279   0.00000  Uiso   1.00
C217   C     0.14795   0.53602   0.45283   0.00000  Uiso   1.00
C218   C     0.14788   0.46388   0.04711   0.00000  Uiso   1.00
C219   C     0.18467   0.53628   0.09335   0.00000  Uiso   1.00
C220   C     0.18466   0.46362   0.40670   0.00000  Uiso   1.00
C221   C     0.14909   0.53636   0.40674   0.00000  Uiso   1.00
C222   C     0.24672   0.50000   0.25003   0.00000  Uiso   1.00
C223   C     0.14896   0.46362   0.09321   0.00000  Uiso   1.00
C224   C     0.16674   0.49998   0.11612   0.00000  Uiso   1.00
C225   C     0.16682   0.50000   0.38388   0.00000  Uiso   1.00
C226   C     0.16700   0.49990   0.02409   0.00000  Uiso   1.00
C227   C     0.16698   0.49995   0.47591   0.00000  Uiso   1.00
C228   C     0.29086   0.50001   0.25004   0.00000  Uiso   1.00
C229   C     0.04247   0.49999   0.24996   0.00000  Uiso   1.00
C230   C     0.24564   0.56373   0.01726   0.00000  Uiso   1.00
C231   C     0.24554   0.43582   0.48285   0.00000  Uiso   1.00
C232   C     0.08845   0.56398   0.48296   0.00000  Uiso   1.00
C233   C     0.16665   0.50000   0.16394   0.00000  Uiso   1.00
C234   C     0.08829   0.43589   0.01693   0.00000  Uiso   1.00
C235   C     0.16671   0.50000   0.33606   0.00000  Uiso   1.00
C236   C     0.19277   0.35734   0.27749   0.00000  Uiso   1.00
C237   C     0.14056   0.64266   0.22252   0.00000  Uiso   1.00
C238   C     0.14057   0.35732   0.22251   0.00000  Uiso   1.00
C239   C     0.19277   0.64269   0.27748   0.00000  Uiso   1.00
C240   C     0.02132   0.45961   0.25874   0.00000  Uiso   1.00
H241   H     0.21362   0.37556   0.29945   0.00000  Uiso   1.00
H242   H     0.29577   0.57177   0.23417   0.00000  Uiso   1.00
H243   H     0.29581   0.42825   0.26593   0.00000  Uiso   1.00
H244   H     0.03752   0.57175   0.23408   0.00000  Uiso   1.00
H245   H     0.24922   0.53858   0.49001   0.00000  Uiso   1.00
H246   H     0.26233   0.55228   0.04785   0.00000  Uiso   1.00
H247   H     0.26066   0.59559   0.00604   0.00000  Uiso   1.00
H248   H     0.24935   0.46107   0.01000   0.00000  Uiso   1.00
H249   H     0.26218   0.44704   0.45223   0.00000  Uiso   1.00
H250   H     0.26043   0.40392   0.49421   0.00000  Uiso   1.00
H251   H     0.08481   0.53873   0.01011   0.00000  Uiso   1.00
H252   H     0.11970   0.62445   0.20056   0.00000  Uiso   1.00
H253   H     0.07169   0.55273   0.45235   0.00000  Uiso   1.00
H254   H     0.07357   0.59586   0.49434   0.00000  Uiso   1.00
H255   H     0.08453   0.46126   0.48988   0.00000  Uiso   1.00
H256   H     0.07161   0.44699   0.04757   0.00000  Uiso   1.00
H257   H     0.07341   0.40404   0.00540   0.00000  Uiso   1.00
H258   H     0.11972   0.37552   0.20054   0.00000  Uiso   1.00
H259   H     0.21363   0.62449   0.29944   0.00000  Uiso   1.00
H260   H     0.19845   0.56447   0.11125   0.00000  Uiso   1.00
H261   H     0.19840   0.43542   0.38884   0.00000  Uiso   1.00
H262   H     0.13529   0.56457   0.38892   0.00000  Uiso   1.00
H263   H     0.13509   0.43545   0.11100   0.00000  Uiso   1.00
H264   H     0.03756   0.42823   0.26582   0.00000  Uiso   1.00
N265   N     0.16667   0.61907   0.25000   0.00000  Uiso   1.00
N266   N     0.16667   0.38093   0.25000   0.00000  Uiso   1.00
O267   O     0.10559   0.53821   0.24999   0.00000  Uiso   1.00
O268   O     0.20306   0.42719   0.47488   0.00000  Uiso   1.00
O269   O     0.13088   0.57270   0.47494   0.00000  Uiso   1.00
O270   O     0.13076   0.42722   0.02494   0.00000  Uiso   1.00
O271   O     0.22774   0.46179   0.25000   0.00000  Uiso   1.00
O272   O     0.22774   0.53821   0.25000   0.00000  Uiso   1.00
O273   O     0.10559   0.46179   0.24999   0.00000  Uiso   1.00
O274   O     0.16666   0.53822   0.18453   0.00000  Uiso   1.00
O275   O     0.16667   0.46178   0.31547   0.00000  Uiso   1.00
O276   O     0.16667   0.53822   0.31547   0.00000  Uiso   1.00
O277   O     0.16666   0.46178   0.18453   0.00000  Uiso   1.00
O278   O     0.20323   0.57259   0.02526   0.00000  Uiso   1.00
Zn279  Zn    0.16667   0.55104   0.25000   0.00000  Uiso   1.00
Zn280  Zn    0.16667   0.44896   0.25000   0.00000  Uiso   1.00
C281   C     0.41995   0.50000   0.24997   0.00000  Uiso   1.00
C282   C     0.64535   0.54039   0.24126   0.00000  Uiso   1.00
C283   C     0.64537   0.45962   0.25879   0.00000  Uiso   1.00
C284   C     0.35463   0.54038   0.24121   0.00000  Uiso   1.00
C285   C     0.51935   0.53593   0.04727   0.00000  Uiso   1.00
C286   C     0.51928   0.46390   0.45279   0.00000  Uiso   1.00
C287   C     0.48129   0.53602   0.45283   0.00000  Uiso   1.00
C288   C     0.48121   0.46388   0.04711   0.00000  Uiso   1.00
C289   C     0.51800   0.53628   0.09335   0.00000  Uiso   1.00
C290   C     0.51799   0.46362   0.40670   0.00000  Uiso   1.00
C291   C     0.48242   0.53636   0.40674   0.00000  Uiso   1.00
C292   C     0.58005   0.50000   0.25003   0.00000  Uiso   1.00
C293   C     0.48229   0.46362   0.09321   0.00000  Uiso   1.00
C294   C     0.50008   0.49998   0.11612   0.00000  Uiso   1.00
C295   C     0.50015   0.50000   0.38388   0.00000  Uiso   1.00
C296   C     0.50033   0.49990   0.02409   0.00000  Uiso   1.00
C297   C     0.50032   0.49995   0.47591   0.00000  Uiso   1.00
C298   C     0.62419   0.50001   0.25004   0.00000  Uiso   1.00
C299   C     0.37581   0.49999   0.24996   0.00000  Uiso   1.00
C300   C     0.57897   0.56373   0.01726   0.00000  Uiso   1.00
C301   C     0.57887   0.43582   0.48285   0.00000  Uiso   1.00
C302   C     0.42179   0.56398   0.48296   0.00000  Uiso   1.00
C303   C     0.49999   0.50000   0.16394   0.00000  Uiso   1.00
C304   C     0.42163   0.43589   0.01693   0.00000  Uiso   1.00
C305   C     0.50004   0.50000   0.33606   0.00000  Uiso   1.00
C306   C     0.52610   0.35734   0.27749   0.00000  Uiso   1.00
C307   C     0.47390   0.64266   0.22252   0.00000  Uiso   1.00
C308   C     0.47390   0.35732   0.22251   0.00000  Uiso   1.00
C309   C     0.52610   0.64269   0.27748   0.00000  Uiso   1.00
C310   C     0.35465   0.45961   0.25874   0.00000  Uiso   1.00
H311   H     0.54695   0.37556   0.29945   0.00000  Uiso   1.00
H312   H     0.62911   0.57177   0.23417   0.00000  Uiso   1.00
H313   H     0.62914   0.42825   0.26593   0.00000  Uiso   1.00
H314   H     0.37085   0.57175   0.23408   0.00000  Uiso   1.00
H315   H     0.58255   0.53858   0.49001   0.00000  Uiso   1.00
H316   H     0.59566   0.55228   0.04785   0.00000  Uiso   1.00
H317   H     0.59399   0.59559   0.00604   0.00000  Uiso   1.00
H318   H     0.58268   0.46107   0.01000   0.00000  Uiso   1.00
H319   H     0.59552   0.44704   0.45223   0.00000  Uiso   1.00
H320   H     0.59376   0.40392   0.49421   0.00000  Uiso   1.00
H321   H     0.41814   0.53873   0.01011   0.00000  Uiso   1.00
H322   H     0.45304   0.62445   0.20056   0.00000  Uiso   1.00
H323   H     0.40502   0.55273   0.45235   0.00000  Uiso   1.00
H324   H     0.40690   0.59586   0.49434   0.00000  Uiso   1.00
H325   H     0.41786   0.46126   0.48988   0.00000  Uiso   1.00
H326   H     0.40495   0.44699   0.04757   0.00000  Uiso   1.00
H327   H     0.40674   0.40404   0.00540   0.00000  Uiso   1.00
H328   H     0.45305   0.37552   0.20054   0.00000  Uiso   1.00
H329   H     0.54696   0.62449   0.29944   0.00000  Uiso   1.00
H330   H     0.53179   0.56447   0.11125   0.00000  Uiso   1.00
H331   H     0.53173   0.43542   0.38884   0.00000  Uiso   1.00
H332   H     0.46862   0.56457   0.38892   0.00000  Uiso   1.00
H333   H     0.46842   0.43545   0.11100   0.00000  Uiso   1.00
H334   H     0.37089   0.42823   0.26582   0.00000  Uiso   1.00
N335   N     0.50000   0.61907   0.25000   0.00000  Uiso   1.00
N336   N     0.50000   0.38093   0.25000   0.00000  Uiso   1.00
O337   O     0.43892   0.53821   0.24999   0.00000  Uiso   1.00
O338   O     0.53639   0.42719   0.47488   0.00000  Uiso   1.00
O339   O     0.46422   0.57270   0.47494   0.00000  Uiso   1.00
O340   O     0.46409   0.42722   0.02494   0.00000  Uiso   1.00
O341   O     0.56108   0.46179   0.25000   0.00000  Uiso   1.00
O342   O     0.56108   0.53821   0.25000   0.00000  Uiso   1.00
O343   O     0.43892   0.46179   0.24999   0.00000  Uiso   1.00
O344   O     0.50000   0.53822   0.18453   0.00000  Uiso   1.00
O345   O     0.50000   0.46178   0.31547   0.00000  Uiso   1.00
O346   O     0.50000   0.53822   0.31547   0.00000  Uiso   1.00
O347   O     0.50000   0.46178   0.18453   0.00000  Uiso   1.00
O348   O     0.53657   0.57259   0.02526   0.00000  Uiso   1.00
Zn349  Zn    0.50000   0.55104   0.25000   0.00000  Uiso   1.00
Zn350  Zn    0.50000   0.44896   0.25000   0.00000  Uiso   1.00
C351   C     0.75328   0.50000   0.24997   0.00000  Uiso   1.00
C352   C     0.97868   0.54039   0.24126   0.00000  Uiso   1.00
C353   C     0.97870   0.45962   0.25879   0.00000  Uiso   1.00
C354   C     0.68796   0.54038   0.24121   0.00000  Uiso   1.00
C355   C     0.85268   0.53593   0.04727   0.00000  Uiso   1.00
C356   C     0.85261   0.46390   0.45279   0.00000  Uiso   1.00
C357   C     0.81462   0.53602   0.45283   0.00000  Uiso   1.00
C358   C     0.81454   0.46388   0.04711   0.00000  Uiso   1.00
C359   C     0.85134   0.53628   0.09335   0.00000  Uiso   1.00
C360   C     0.85132   0.46362   0.40670   0.00000  Uiso   1.00
C361   C     0.81576   0.53636   0.40674   0.00000  Uiso   1.00
C362   C     0.91338   0.50000   0.25003   0.00000  Uiso   1.00
C363   C     0.81563   0.46362   0.09321   0.00000  Uiso   1.00
C364   C     0.83341   0.49998   0.11612   0.00000  Uiso   1.00
C365   C     0.83349   0.50000   0.38388   0.00000  Uiso   1.00
C366   C     0.83367   0.49990   0.02409   0.00000  Uiso   1.00
C367   C     0.83365   0.49995   0.47591   0.00000  Uiso   1.00
C368   C     0.95752   0.50001   0.25004   0.00000  Uiso   1.00
C369   C     0.70914   0.49999   0.24996   0.00000  Uiso   1.00
C370   C     0.91231   0.56373   0.01726   0.00000  Uiso   1.00
C371   C     0.91221   0.43582   0.48285   0.00000  Uiso   1.00
C372   C     0.75512   0.56398   0.48296   0.00000  Uiso   1.00
C373   C     0.83332   0.50000   0.16394   0.00000  Uiso   1.00
C374   C     0.75496   0.43589   0.01693   0.00000  Uiso   1.00
C375   C     0.83338   0.50000   0.33606   0.00000  Uiso   1.00
C376   C     0.85943   0.35734   0.27749   0.00000  Uiso   1.00
C377   C     0.80723   0.64266   0.22252   0.00000  Uiso   1.00
C378   C     0.80724   0.35732   0.22251   0.00000  Uiso   1.00
C379   C     0.85944   0.64269   0.27748   0.00000  Uiso   1.00
C380   C     0.68798   0.45961   0.25874   0.00000  Uiso   1.00
H381   H     0.88029   0.37556   0.29945   0.00000  Uiso   1.00
H382   H     0.96244   0.57177   0.23417   0.00000  Uiso   1.00
H383   H     0.96248   0.42825   0.26593   0.00000  Uiso   1.00
H384   H     0.70419   0.57175   0.23408   0.00000  Uiso   1.00
H385   H     0.91588   0.53858   0.49001   0.00000  Uiso   1.00
H386   H     0.92900   0.55228   0.04785   0.00000  Uiso   1.00
H387   H     0.92732   0.59559   0.00604   0.00000  Uiso   1.00
H388   H     0.91602   0.46107   0.01000   0.00000  Uiso   1.00
H389   H     0.92885   0.44704   0.45223   0.00000  Uiso   1.00
H390   H     0.92709   0.40392   0.49421   0.00000  Uiso   1.00
H391   H     0.75148   0.53873   0.01011   0.00000  Uiso   1.00
H392   H     0.78637   0.62445   0.20056   0.00000  Uiso   1.00
H393   H     0.73835   0.55273   0.45235   0.00000  Uiso   1.00
H394   H     0.74023   0.59586   0.49434   0.00000  Uiso   1.00
H395   H     0.75120   0.46126   0.48988   0.00000  Uiso   1.00
H396   H     0.73828   0.44699   0.04757   0.00000  Uiso   1.00
H397   H     0.74007   0.40404   0.00540   0.00000  Uiso   1.00
H398   H     0.78639   0.37552   0.20054   0.00000  Uiso   1.00
H399   H     0.88029   0.62449   0.29944   0.00000  Uiso   1.00
H400   H     0.86512   0.56447   0.11125   0.00000  Uiso   1.00
H401   H     0.86506   0.43542   0.38884   0.00000  Uiso   1.00
H402   H     0.80195   0.56457   0.38892   0.00000  Uiso   1.00
H403   H     0.80176   0.43545   0.11100   0.00000  Uiso   1.00
H404   H     0.70422   0.42823   0.26582   0.00000  Uiso   1.00
N405   N     0.83333   0.61907   0.25000   0.00000  Uiso   1.00
N406   N     0.83333   0.38093   0.25000   0.00000  Uiso   1.00
O407   O     0.77226   0.53821   0.24999   0.00000  Uiso   1.00
O408   O     0.86973   0.42719   0.47488   0.00000  Uiso   1.00
O409   O     0.79755   0.57270   0.47494   0.00000  Uiso   1.00
O410   O     0.79743   0.42722   0.02494   0.00000  Uiso   1.00
O411   O     0.89441   0.46179   0.25000   0.00000  Uiso   1.00
O412   O     0.89441   0.53821   0.25000   0.00000  Uiso   1.00
O413   O     0.77226   0.46179   0.24999   0.00000  Uiso   1.00
O414   O     0.83333   0.53822   0.18453   0.00000  Uiso   1.00
O415   O     0.83334   0.46178   0.31547   0.00000  Uiso   1.00
O416   O     0.83334   0.53822   0.31547   0.00000  Uiso   1.00
O417   O     0.83333   0.46178   0.18453   0.00000  Uiso   1.00
O418   O     0.86990   0.57259   0.02526   0.00000  Uiso   1.00
Zn419  Zn    0.83333   0.55104   0.25000   0.00000  Uiso   1.00
Zn420  Zn    0.83333   0.44896   0.25000   0.00000  Uiso   1.00
C421   C     0.08662   0.83333   0.24997   0.00000  Uiso   1.00
C422   C     0.31202   0.87373   0.24126   0.00000  Uiso   1.00
C423   C     0.31204   0.79295   0.25879   0.00000  Uiso   1.00
C424   C     0.02130   0.87372   0.24121   0.00000  Uiso   1.00
C425   C     0.18602   0.86927   0.04727   0.00000  Uiso   1.00
C426   C     0.18595   0.79724   0.45279   0.00000  Uiso   1.00
C427   C     0.14795   0.86936   0.45283   0.00000  Uiso   1.00
C428   C     0.14788   0.79722   0.04711   0.00000  Uiso   1.00
C429   C     0.18467   0.86961   0.09335   0.00000  Uiso   1.00
C430   C     0.18466   0.79696   0.40670   0.00000  Uiso   1.00
C431   C     0.14909   0.86969   0.40674   0.00000  Uiso   1.00
C432   C     0.24672   0.83334   0.25003   0.00000  Uiso   1.00
C433   C     0.14896   0.79695   0.09321   0.00000  Uiso   1.00
C434   C     0.16674   0.83331   0.11612   0.00000  Uiso   1.00
C435   C     0.16682   0.83333   0.38388   0.00000  Uiso   1.00
C436   C     0.16700   0.83323   0.02409   0.00000  Uiso   1.00
C437   C     0.16698   0.83328   0.47591   0.00000  Uiso   1.00
C438   C     0.29086   0.83334   0.25004   0.00000  Uiso   1.00
C439   C     0.04247   0.83332   0.24996   0.00000  Uiso   1.00
C440   C     0.24564   0.89707   0.01726   0.00000  Uiso   1.00
C441   C     0.24554   0.76916   0.48285   0.00000  Uiso   1.00
C442   C     0.08845   0.89732   0.48296   0.00000  Uiso   1.00
C443   C     0.16665   0.83333   0.16394   0.00000  Uiso   1.00
C444   C     0.08829   0.76923   0.01693   0.00000  Uiso   1.00
C445   C     0.16671   0.83333   0.33606   0.00000  Uiso   1.00
C446   C     0.19277   0.69067   0.27749   0.00000  Uiso   1.00
C447   C     0.14056   0.97600   0.22252   0.00000  Uiso   1.00
C448   C     0.14057   0.69065   0.22251   0.00000  Uiso   1.00
C449   C     0.19277   0.97602   0.27748   0.00000  Uiso   1.00
C450   C     0.02132   0.79294   0.25874   0.00000  Uiso   1.00
H451   H     0.21362   0.70889   0.29945   0.00000  Uiso   1.00
H452   H     0.29577   0.90510   0.23417   0.00000  Uiso   1.00
H453   H     0.29581   0.76158   0.26593   0.00000  Uiso   1.00
H454   H     0.03752   0.90509   0.23408   0.00000  Uiso   1.00
H455   H     0.24922   0.87191   0.49001   0.00000  Uiso   1.00
H456   H     0.26233   0.88562   0.04785   0.00000  Uiso   1.00
H457   H     0.26066   0.92892   0.00604   0.00000  Uiso   1.00
H458   H     0.24935   0.79441   0.01000   0.00000  Uiso   1.00
H459   H     0.26218   0.78038   0.45223   0.00000  Uiso   1.00
H460   H     0.26043   0.73726   0.49421   0.00000  Uiso   1.00
H461   H     0.08481   0.87207   0.01011   0.00000  Uiso   1.00
H462   H     0.11970   0.95778   0.20056   0.00000  Uiso   1.00
H463   H     0.07169   0.88606   0.45235   0.00000  Uiso   1.00
H464   H     0.07357   0.92919   0.49434   0.00000  Uiso   1.00
H465   H     0.08453   0.79459   0.48988   0.00000  Uiso   1.00
H466   H     0.07161   0.78032   0.04757   0.00000  Uiso   1.00
H467   H     0.07341   0.73737   0.00540   0.00000  Uiso   1.00
H468   H     0.11972   0.70885   0.20054   0.00000  Uiso   1.00
H469   H     0.21363   0.95782   0.29944   0.00000  Uiso   1.00
H470   H     0.19845   0.89781   0.11125   0.00000  Uiso   1.00
H471   H     0.19840   0.76876   0.38884   0.00000  Uiso   1.00
H472   H     0.13529   0.89791   0.38892   0.00000  Uiso   1.00
H473   H     0.13509   0.76878   0.11100   0.00000  Uiso   1.00
H474   H     0.03756   0.76156   0.26582   0.00000  Uiso   1.00
N475   N     0.16667   0.95240   0.25000   0.00000  Uiso   1.00
N476   N     0.16667   0.71427   0.25000   0.00000  Uiso   1.00
O477   O     0.10559   0.87154   0.24999   0.00000  Uiso   1.00
O478   O     0.20306   0.76052   0.47488   0.00000  Uiso   1.00
O479   O     0.13088   0.90604   0.47494   0.00000  Uiso   1.00
O480   O     0.13076   0.76055   0.02494   0.00000  Uiso   1.00
O481   O     0.22774   0.79513   0.25000   0.00000  Uiso   1.00
O482   O     0.22774   0.87154   0.25000   0.00000  Uiso   1.00
O483   O     0.10559   0.79513   0.24999   0.00000  Uiso   1.00
O484   O     0.16666   0.87155   0.18453   0.00000  Uiso   1.00
O485   O     0.16667   0.79511   0.31547   0.00000  Uiso   1.00
O486   O     0.16667   0.87155   0.31547   0.00000  Uiso   1.00
O487   O     0.16666   0.79511   0.18453   0.00000  Uiso   1.00
O488   O     0.20323   0.90593   0.02526   0.00000  Uiso   1.00
Zn489  Zn    0.16667   0.88437   0.25000   0.00000  Uiso   1.00
Zn490  Zn    0.16667   0.78229   0.25000   0.00000  Uiso   1.00
C491   C     0.41995   0.83333   0.24997   0.00000  Uiso   1.00
C492   C     0.64535   0.87373   0.24126   0.00000  Uiso   1.00
C493   C     0.64537   0.79295   0.25879   0.00000  Uiso   1.00
C494   C     0.35463   0.87372   0.24121   0.00000  Uiso   1.00
C495   C     0.51935   0.86927   0.04727   0.00000  Uiso   1.00
C496   C     0.51928   0.79724   0.45279   0.00000  Uiso   1.00
C497   C     0.48129   0.86936   0.45283   0.00000  Uiso   1.00
C498   C     0.48121   0.79722   0.04711   0.00000  Uiso   1.00
C499   C     0.51800   0.86961   0.09335   0.00000  Uiso   1.00
C500   C     0.51799   0.79696   0.40670   0.00000  Uiso   1.00
C501   C     0.48242   0.86969   0.40674   0.00000  Uiso   1.00
C502   C     0.58005   0.83334   0.25003   0.00000  Uiso   1.00
C503   C     0.48229   0.79695   0.09321   0.00000  Uiso   1.00
C504   C     0.50008   0.83331   0.11612   0.00000  Uiso   1.00
C505   C     0.50015   0.83333   0.38388   0.00000  Uiso   1.00
C506   C     0.50033   0.83323   0.02409   0.00000  Uiso   1.00
C507   C     0.50032   0.83328   0.47591   0.00000  Uiso   1.00
C508   C     0.62419   0.83334   0.25004   0.00000  Uiso   1.00
C509   C     0.37581   0.83332   0.24996   0.00000  Uiso   1.00
C510   C     0.57897   0.89707   0.01726   0.00000  Uiso   1.00
C511   C     0.57887   0.76916   0.48285   0.00000  Uiso   1.00
C512   C     0.42179   0.89732   0.48296   0.00000  Uiso   1.00
C513   C     0.49999   0.83333   0.16394   0.00000  Uiso   1.00
C514   C     0.42163   0.76923   0.01693   0.00000  Uiso   1.00
C515   C     0.50004   0.83333   0.33606   0.00000  Uiso   1.00
C516   C     0.52610   0.69067   0.27749   0.00000  Uiso   1.00
C517   C     0.47390   0.97600   0.22252   0.00000  Uiso   1.00
C518   C     0.47390   0.69065   0.22251   0.00000  Uiso   1.00
C519   C     0.52610   0.97602   0.27748   0.00000  Uiso   1.00
C520   C     0.35465   0.79294   0.25874   0.00000  Uiso   1.00
H521   H     0.54695   0.70889   0.29945   0.00000  Uiso   1.00
H522   H     0.62911   0.90510   0.23417   0.00000  Uiso   1.00
H523   H     0.62914   0.76158   0.26593   0.00000  Uiso   1.00
H524   H     0.37085   0.90509   0.23408   0.00000  Uiso   1.00
H525   H     0.58255   0.87191   0.49001   0.00000  Uiso   1.00
H526   H     0.59566   0.88562   0.04785   0.00000  Uiso   1.00
H527   H     0.59399   0.92892   0.00604   0.00000  Uiso   1.00
H528   H     0.58268   0.79441   0.01000   0.00000  Uiso   1.00
H529   H     0.59552   0.78038   0.45223   0.00000  Uiso   1.00
H530   H     0.59376   0.73726   0.49421   0.00000  Uiso   1.00
H531   H     0.41814   0.87207   0.01011   0.00000  Uiso   1.00
H532   H     0.45304   0.95778   0.20056   0.00000  Uiso   1.00
H533   H     0.40502   0.88606   0.45235   0.00000  Uiso   1.00
H534   H     0.40690   0.92919   0.49434   0.00000  Uiso   1.00
H535   H     0.41786   0.79459   0.48988   0.00000  Uiso   1.00
H536   H     0.40495   0.78032   0.04757   0.00000  Uiso   1.00
H537   H     0.40674   0.73737   0.00540   0.00000  Uiso   1.00
H538   H     0.45305   0.70885   0.20054   0.00000  Uiso   1.00
H539   H     0.54696   0.95782   0.29944   0.00000  Uiso   1.00
H540   H     0.53179   0.89781   0.11125   0.00000  Uiso   1.00
H541   H     0.53173   0.76876   0.38884   0.00000  Uiso   1.00
H542   H     0.46862   0.89791   0.38892   0.00000  Uiso   1.00
H543   H     0.46842   0.76878   0.11100   0.00000  Uiso   1.00
H544   H     0.37089   0.76156   0.26582   0.00000  Uiso   1.00
N545   N     0.50000   0.95240   0.25000   0.00000  Uiso   1.00
N546   N     0.50000   0.71427   0.25000   0.00000  Uiso   1.00
O547   O     0.43892   0.87154   0.24999   0.00000  Uiso   1.00
O548   O     0.53639   0.76052   0.47488   0.00000  Uiso   1.00
O549   O     0.46422   0.90604   0.47494   0.00000  Uiso   1.00
O550   O     0.46409   0.76055   0.02494   0.00000  Uiso   1.00
O551   O     0.56108   0.79513   0.25000   0.00000  Uiso   1.00
O552   O     0.56108   0.87154   0.25000   0.00000  Uiso   1.00
O553   O     0.43892   0.79513   0.24999   0.00000  Uiso   1.00
O554   O     0.50000   0.87155   0.18453   0.00000  Uiso   1.00
O555   O     0.50000   0.79511   0.31547   0.00000  Uiso   1.00
O556   O     0.50000   0.87155   0.31547   0.00000  Uiso   1.00
O557   O     0.50000   0.79511   0.18453   0.00000  Uiso   1.00
O558   O     0.53657   0.90593   0.02526   0.00000  Uiso   1.00
Zn559  Zn    0.50000   0.88437   0.25000   0.00000  Uiso   1.00
Zn560  Zn    0.50000   0.78229   0.25000   0.00000  Uiso   1.00
C561   C     0.75328   0.83333   0.24997   0.00000  Uiso   1.00
C562   C     0.97868   0.87373   0.24126   0.00000  Uiso   1.00
C563   C     0.97870   0.79295   0.25879   0.00000  Uiso   1.00
C564   C     0.68796   0.87372   0.24121   0.00000  Uiso   1.00
C565   C     0.85268   0.86927   0.04727   0.00000  Uiso   1.00
C566   C     0.85261   0.79724   0.45279   0.00000  Uiso   1.00
C567   C     0.81462   0.86936   0.45283   0.00000  Uiso   1.00
C568   C     0.81454   0.79722   0.04711   0.00000  Uiso   1.00
C569   C     0.85134   0.86961   0.09335   0.00000  Uiso   1.00
C570   C     0.85132   0.79696   0.40670   0.00000  Uiso   1.00
C571   C     0.81576   0.86969   0.40674   0.00000  Uiso   1.00
C572   C     0.91338   0.83334   0.25003   0.00000  Uiso   1.00
C573   C     0.81563   0.79695   0.09321   0.00000  Uiso   1.00
C574   C     0.83341   0.83331   0.11612   0.00000  Uiso   1.00
C575   C     0.83349   0.83333   0.38388   0.00000  Uiso   1.00
C576   C     0.83367   0.83323   0.02409   0.00000  Uiso   1.00
C577   C     0.83365   0.83328   0.47591   0.00000  Uiso   1.00
C578   C     0.95752   0.83334   0.25004   0.00000  Uiso   1.00
C579   C     0.70914   0.83332   0.24996   0.00000  Uiso   1.00
C580   C     0.91231   0.89707   0.01726   0.00000  Uiso   1.00
C581   C     0.91221   0.76916   0.48285   0.00000  Uiso   1.00
C582   C     0.75512   0.89732   0.48296   0.00000  Uiso   1.00
C583   C     0.83332   0.83333   0.16394   0.00000  Uiso   1.00
C584   C     0.75496   0.76923   0.01693   0.00000  Uiso   1.00
C585   C     0.83338   0.83333   0.33606   0.00000  Uiso   1.00
C586   C     0.85943   0.69067   0.27749   0.00000  Uiso   1.00
C587   C     0.80723   0.97600   0.22252   0.00000  Uiso   1.00
C588   C     0.80724   0.69065   0.22251   0.00000  Uiso   1.00
C589   C     0.85944   0.97602   0.27748   0.00000  Uiso   1.00
C590   C     0.68798   0.79294   0.25874   0.00000  Uiso   1.00
H591   H     0.88029   0.70889   0.29945   0.00000  Uiso   1.00
H592   H     0.96244   0.90510   0.23417   0.00000  Uiso   1.00
H593   H     0.96248   0.76158   0.26593   0.00000  Uiso   1.00
H594   H     0.70419   0.90509   0.23408   0.00000  Uiso   1.00
H595   H     0.91588   0.87191   0.49001   0.00000  Uiso   1.00
H596   H     0.92900   0.88562   0.04785   0.00000  Uiso   1.00
H597   H     0.92732   0.92892   0.00604   0.00000  Uiso   1.00
H598   H     0.91602   0.79441   0.01000   0.00000  Uiso   1.00
H599   H     0.92885   0.78038   0.45223   0.00000  Uiso   1.00
H600   H     0.92709   0.73726   0.49421   0.00000  Uiso   1.00
H601   H     0.75148   0.87207   0.01011   0.00000  Uiso   1.00
H602   H     0.78637   0.95778   0.20056   0.00000  Uiso   1.00
H603   H     0.73835   0.88606   0.45235   0.00000  Uiso   1.00
H604   H     0.74023   0.92919   0.49434   0.00000  Uiso   1.00
H605   H     0.75120   0.79459   0.48988   0.00000  Uiso   1.00
H606   H     0.73828   0.78032   0.04757   0.00000  Uiso   1.00
H607   H     0.74007   0.73737   0.00540   0.00000  Uiso   1.00
H608   H     0.78639   0.70885   0.20054   0.00000  Uiso   1.00
H609   H     0.88029   0.95782   0.29944   0.00000  Uiso   1.00
H610   H     0.86512   0.89781   0.11125   0.00000  Uiso   1.00
H611   H     0.86506   0.76876   0.38884   0.00000  Uiso   1.00
H612   H     0.80195   0.89791   0.38892   0.00000  Uiso   1.00
H613   H     0.80176   0.76878   0.11100   0.00000  Uiso   1.00
H614   H     0.70422   0.76156   0.26582   0.00000  Uiso   1.00
N615   N     0.83333   0.95240   0.25000   0.00000  Uiso   1.00
N616   N     0.83333   0.71427   0.25000   0.00000  Uiso   1.00
O617   O     0.77226   0.87154   0.24999   0.00000  Uiso   1.00
O618   O     0.86973   0.76052   0.47488   0.00000  Uiso   1.00
O619   O     0.79755   0.90604   0.47494   0.00000  Uiso   1.00
O620   O     0.79743   0.76055   0.02494   0.00000  Uiso   1.00
O621   O     0.89441   0.79513   0.25000   0.00000  Uiso   1.00
O622   O     0.89441   0.87154   0.25000   0.00000  Uiso   1.00
O623   O     0.77226   0.79513   0.24999   0.00000  Uiso   1.00
O624   O     0.83333   0.87155   0.18453   0.00000  Uiso   1.00
O625   O     0.83334   0.79511   0.31547   0.00000  Uiso   1.00
O626   O     0.83334   0.87155   0.31547   0.00000  Uiso   1.00
O627   O     0.83333   0.79511   0.18453   0.00000  Uiso   1.00
O628   O     0.86990   0.90593   0.02526   0.00000  Uiso   1.00
Zn629  Zn    0.83333   0.88437   0.25000   0.00000  Uiso   1.00
Zn630  Zn    0.83333   0.78229   0.25000   0.00000  Uiso   1.00
C631   C     0.08662   0.16666   0.74997   0.00000  Uiso   1.00
C632   C     0.31202   0.20706   0.74126   0.00000  Uiso   1.00
C633   C     0.31204   0.12628   0.75879   0.00000  Uiso   1.00
C634   C     0.02130   0.20705   0.74121   0.00000  Uiso   1.00
C635   C     0.18602   0.20260   0.54727   0.00000  Uiso   1.00
C636   C     0.18595   0.13057   0.95279   0.00000  Uiso   1.00
C637   C     0.14795   0.20269   0.95283   0.00000  Uiso   1.00
C638   C     0.14788   0.13055   0.54711   0.00000  Uiso   1.00
C639   C     0.18467   0.20295   0.59335   0.00000  Uiso   1.00
C640   C     0.18466   0.13029   0.90670   0.00000  Uiso   1.00
C641   C     0.14909   0.20302   0.90674   0.00000  Uiso   1.00
C642   C     0.24672   0.16667   0.75003   0.00000  Uiso   1.00
C643   C     0.14896   0.13028   0.59321   0.00000  Uiso   1.00
C644   C     0.16674   0.16664   0.61612   0.00000  Uiso   1.00
C645   C     0.16682   0.16666   0.88388   0.00000  Uiso   1.00
C646   C     0.16700   0.16656   0.52409   0.00000  Uiso   1.00
C647   C     0.16698   0.16661   0.97591   0.00000  Uiso   1.00
C648   C     0.29086   0.16667   0.75004   0.00000  Uiso   1.00
C649   C     0.04247   0.16666   0.74996   0.00000  Uiso   1.00
C650   C     0.24564   0.23040   0.51726   0.00000  Uiso   1.00
C651   C     0.24554   0.10249   0.98285   0.00000  Uiso   1.00
C652   C     0.08845   0.23065   0.98296   0.00000  Uiso   1.00
C653   C     0.16665   0.16666   0.66394   0.00000  Uiso   1.00
C654   C     0.08829   0.10256   0.51693   0.00000  Uiso   1.00
C655   C     0.16671   0.16667   0.83606   0.00000  Uiso   1.00
C656   C     0.19277   0.02401   0.77749   0.00000  Uiso   1.00
C657   C     0.14056   0.30933   0.72252   0.00000  Uiso   1.00
C658   C     0.14057   0.02398   0.72251   0.00000  Uiso   1.00
C659   C     0.19277   0.30935   0.77748   0.00000  Uiso   1.00
C660   C     0.02132   0.12627   0.75874   0.00000  Uiso   1.00
H661   H     0.21362   0.04222   0.79945   0.00000  Uiso   1.00
H662   H     0.29577   0.23844   0.73417   0.00000  Uiso   1.00
H663   H     0.29581   0.09492   0.76593   0.00000  Uiso   1.00
H664   H     0.03752   0.23842   0.73408   0.00000  Uiso   1.00
H665   H     0.24922   0.20524   0.99001   0.00000  Uiso   1.00
H666   H     0.26233   0.21895   0.54785   0.00000  Uiso   1.00
H667   H     0.26066   0.26226   0.50604   0.00000  Uiso   1.00
H668   H     0.24935   0.12774   0.51000   0.00000  Uiso   1.00
H669   H     0.26218   0.11371   0.95223   0.00000  Uiso   1.00
H670   H     0.26043   0.07059   0.99421   0.00000  Uiso   1.00
H671   H     0.08481   0.20540   0.51011   0.00000  Uiso   1.00
H672   H     0.11970   0.29111   0.70056   0.00000  Uiso   1.00
H673   H     0.07169   0.21939   0.95235   0.00000  Uiso   1.00
H674   H     0.07357   0.26253   0.99434   0.00000  Uiso   1.00
H675   H     0.08453   0.12792   0.98988   0.00000  Uiso   1.00
H676   H     0.07161   0.11365   0.54757   0.00000  Uiso   1.00
H677   H     0.07341   0.07071   0.50540   0.00000  Uiso   1.00
H678   H     0.11972   0.04218   0.70054   0.00000  Uiso   1.00
H679   H     0.21363   0.29115   0.79944   0.00000  Uiso   1.00
H680   H     0.19845   0.23114   0.61125   0.00000  Uiso   1.00
H681   H     0.19840   0.10209   0.88884   0.00000  Uiso   1.00
H682   H     0.13529   0.23124   0.88892   0.00000  Uiso   1.00
H683   H     0.13509   0.10211   0.61100   0.00000  Uiso   1.00
H684   H     0.03756   0.09489   0.76582   0.00000  Uiso   1.00
N685   N     0.16667   0.28573   0.75000   0.00000  Uiso   1.00
N686   N     0.16667   0.04760   0.75000   0.00000  Uiso   1.00
O687   O     0.10559   0.20487   0.74999   0.00000  Uiso   1.00
O688   O     0.20306   0.09385   0.97488   0.00000  Uiso   1.00
O689   O     0.13088   0.23937   0.97494   0.00000  Uiso   1.00
O690   O     0.13076   0.09388   0.52494   0.00000  Uiso   1.00
O691   O     0.22774   0.12846   0.75000   0.00000  Uiso   1.00
O692   O     0.22774   0.20487   0.75000   0.00000  Uiso   1.00
O693   O     0.10559   0.12846   0.74999   0.00000  Uiso   1.00
O694   O     0.16666   0.20489   0.68453   0.00000  Uiso   1.00
O695   O     0.16667   0.12845   0.81547   0.00000  Uiso   1.00
O696   O     0.16667   0.20489   0.81547   0.00000  Uiso   1.00
O697   O     0.16666   0.12845   0.68453   0.00000  Uiso   1.00
O698   O     0.20323   0.23926   0.52526   0.00000  Uiso   1.00
Zn699  Zn    0.16667   0.21771   0.75000   0.00000  Uiso   1.00
Zn700  Zn    0.16667   0.11563   0.75000   0.00000  Uiso   1.00
C701   C     0.41995   0.16666   0.74997   0.00000  Uiso   1.00
C702   C     0.64535   0.20706   0.74126   0.00000  Uiso   1.00
C703   C     0.64537   0.12628   0.75879   0.00000  Uiso   1.00
C704   C     0.35463   0.20705   0.74121   0.00000  Uiso   1.00
C705   C     0.51935   0.20260   0.54727   0.00000  Uiso   1.00
C706   C     0.51928   0.13057   0.95279   0.00000  Uiso   1.00
C707   C     0.48129   0.20269   0.95283   0.00000  Uiso   1.00
C708   C     0.48121   0.13055   0.54711   0.00000  Uiso   1.00
C709   C     0.51800   0.20295   0.59335   0.00000  Uiso   1.00
C710   C     0.51799   0.13029   0.90670   0.00000  Uiso   1.00
C711   C     0.48242   0.20302   0.90674   0.00000  Uiso   1.00
C712   C     0.58005   0.16667   0.75003   0.00000  Uiso   1.00
C713   C     0.48229   0.13028   0.59321   0.00000  Uiso   1.00
C714   C     0.50008   0.16664   0.61612   0.00000  Uiso   1.00
C715   C     0.50015   0.16666   0.88388   0.00000  Uiso   1.00
C716   C     0.50033   0.16656   0.52409   0.00000  Uiso   1.00
C717   C     0.50032   0.16661   0.97591   0.00000  Uiso   1.00
C718   C     0.62419   0.16667   0.75004   0.00000  Uiso   1.00
C719   C     0.37581   0.16666   0.74996   0.00000  Uiso   1.00
C720   C     0.57897   0.23040   0.51726   0.00000  Uiso   1.00
C721   C     0.57887   0.10249   0.98285   0.00000  Uiso   1.00
C722   C     0.42179   0.23065   0.98296   0.00000  Uiso   1.00
C723   C     0.49999   0.16666   0.66394   0.00000  Uiso   1.00
C724   C     0.42163   0.10256   0.51693   0.00000  Uiso   1.00
C725   C     0.50004   0.16667   0.83606   0.00000  Uiso   1.00
C726   C     0.52610   0.02401   0.77749   0.00000  Uiso   1.00
C727   C     0.47390   0.30933   0.72252   0.00000  Uiso   1.00
C728   C     0.47390   0.02398   0.72251   0.00000  Uiso   1.00
C729   C     0.52610   0.30935   0.77748   0.00000  Uiso   1.00
C730   C     0.35465   0.12627   0.75874   0.00000  Uiso   1.00
H731   H     0.54695   0.04222   0.79945   0.00000  Uiso   1.00
H732   H     0.62911   0.23844   0.73417   0.00000  Uiso   1.00
H733   H     0.62914   0.09492   0.76593   0.00000  Uiso   1.00
H734   H     0.37085   0.23842   0.73408   0.00000  Uiso   1.00
H735   H     0.58255   0.20524   0.99001   0.00000  Uiso   1.00
H736   H     0.59566   0.21895   0.54785   0.00000  Uiso   1.00
H737   H     0.59399   0.26226   0.50604   0.00000  Uiso   1.00
H738   H     0.58268   0.12774   0.51000   0.00000  Uiso   1.00
H739   H     0.59552   0.11371   0.95223   0.00000  Uiso   1.00
H740   H     0.59376   0.07059   0.99421   0.00000  Uiso   1.00
H741   H     0.41814   0.20540   0.51011   0.00000  Uiso   1.00
H742   H     0.45304   0.29111   0.70056   0.00000  Uiso   1.00
H743   H     0.40502   0.21939   0.95235   0.00000  Uiso   1.00
H744   H     0.40690   0.26253   0.99434   0.00000  Uiso   1.00
H745   H     0.41786   0.12792   0.98988   0.00000  Uiso   1.00
H746   H     0.40495   0.11365   0.54757   0.00000  Uiso   1.00
H747   H     0.40674   0.07071   0.50540   0.00000  Uiso   1.00
H748   H     0.45305   0.04218   0.70054   0.00000  Uiso   1.00
H749   H     0.54696   0.29115   0.79944   0.00000  Uiso   1.00
H750   H     0.53179   0.23114   0.61125   0.00000  Uiso   1.00
H751   H     0.53173   0.10209   0.88884   0.00000  Uiso   1.00
H752   H     0.46862   0.23124   0.88892   0.00000  Uiso   1.00
H753   H     0.46842   0.10211   0.61100   0.00000  Uiso   1.00
H754   H     0.37089   0.09489   0.76582   0.00000  Uiso   1.00
N755   N     0.50000   0.28573   0.75000   0.00000  Uiso   1.00
N756   N     0.50000   0.04760   0.75000   0.00000  Uiso   1.00
O757   O     0.43892   0.20487   0.74999   0.00000  Uiso   1.00
O758   O     0.53639   0.09385   0.97488   0.00000  Uiso   1.00
O759   O     0.46422   0.23937   0.97494   0.00000  Uiso   1.00
O760   O     0.46409   0.09388   0.52494   0.00000  Uiso   1.00
O761   O     0.56108   0.12846   0.75000   0.00000  Uiso   1.00
O762   O     0.56108   0.20487   0.75000   0.00000  Uiso   1.00
O763   O     0.43892   0.12846   0.74999   0.00000  Uiso   1.00
O764   O     0.50000   0.20489   0.68453   0.00000  Uiso   1.00
O765   O     0.50000   0.12845   0.81547   0.00000  Uiso   1.00
O766   O     0.50000   0.20489   0.81547   0.00000  Uiso   1.00
O767   O     0.50000   0.12845   0.68453   0.00000  Uiso   1.00
O768   O     0.53657   0.23926   0.52526   0.00000  Uiso   1.00
Zn769  Zn    0.50000   0.21771   0.75000   0.00000  Uiso   1.00
Zn770  Zn    0.50000   0.11563   0.75000   0.00000  Uiso   1.00
C771   C     0.75328   0.16666   0.74997   0.00000  Uiso   1.00
C772   C     0.97868   0.20706   0.74126   0.00000  Uiso   1.00
C773   C     0.97870   0.12628   0.75879   0.00000  Uiso   1.00
C774   C     0.68796   0.20705   0.74121   0.00000  Uiso   1.00
C775   C     0.85268   0.20260   0.54727   0.00000  Uiso   1.00
C776   C     0.85261   0.13057   0.95279   0.00000  Uiso   1.00
C777   C     0.81462   0.20269   0.95283   0.00000  Uiso   1.00
C778   C     0.81454   0.13055   0.54711   0.00000  Uiso   1.00
C779   C     0.85134   0.20295   0.59335   0.00000  Uiso   1.00
C780   C     0.85132   0.13029   0.90670   0.00000  Uiso   1.00
C781   C     0.81576   0.20302   0.90674   0.00000  Uiso   1.00
C782   C     0.91338   0.16667   0.75003   0.00000  Uiso   1.00
C783   C     0.81563   0.13028   0.59321   0.00000  Uiso   1.00
C784   C     0.83341   0.16664   0.61612   0.00000  Uiso   1.00
C785   C     0.83349   0.16666   0.88388   0.00000  Uiso   1.00
C786   C     0.83367   0.16656   0.52409   0.00000  Uiso   1.00
C787   C     0.83365   0.16661   0.97591   0.00000  Uiso   1.00
C788   C     0.95752   0.16667   0.75004   0.00000  Uiso   1.00
C789   C     0.70914   0.16666   0.74996   0.00000  Uiso   1.00
C790   C     0.91231   0.23040   0.51726   0.00000  Uiso   1.00
C791   C     0.91221   0.10249   0.98285   0.00000  Uiso   1.00
C792   C     0.75512   0.23065   0.98296   0.00000  Uiso   1.00
C793   C     0.83332   0.16666   0.66394   0.00000  Uiso   1.00
C794   C     0.75496   0.10256   0.51693   0.00000  Uiso   1.00
C795   C     0.83338   0.16667   0.83606   0.00000  Uiso   1.00
C796   C     0.85943   0.02401   0.77749   0.00000  Uiso   1.00
C797   C     0.80723   0.30933   0.72252   0.00000  Uiso   1.00
C798   C     0.80724   0.02398   0.72251   0.00000  Uiso   1.00
C799   C     0.85944   0.30935   0.77748   0.00000  Uiso   1.00
C800   C     0.68798   0.12627   0.75874   0.00000  Uiso   1.00
H801   H     0.88029   0.04222   0.79945   0.00000  Uiso   1.00
H802   H     0.96244   0.23844   0.73417   0.00000  Uiso   1.00
H803   H     0.96248   0.09492   0.76593   0.00000  Uiso   1.00
H804   H     0.70419   0.23842   0.73408   0.00000  Uiso   1.00
H805   H     0.91588   0.20524   0.99001   0.00000  Uiso   1.00
H806   H     0.92900   0.21895   0.54785   0.00000  Uiso   1.00
H807   H     0.92732   0.26226   0.50604   0.00000  Uiso   1.00
H808   H     0.91602   0.12774   0.51000   0.00000  Uiso   1.00
H809   H     0.92885   0.11371   0.95223   0.00000  Uiso   1.00
H810   H     0.92709   0.07059   0.99421   0.00000  Uiso   1.00
H811   H     0.75148   0.20540   0.51011   0.00000  Uiso   1.00
H812   H     0.78637   0.29111   0.70056   0.00000  Uiso   1.00
H813   H     0.73835   0.21939   0.95235   0.00000  Uiso   1.00
H814   H     0.74023   0.26253   0.99434   0.00000  Uiso   1.00
H815   H     0.75120   0.12792   0.98988   0.00000  Uiso   1.00
H816   H     0.73828   0.11365   0.54757   0.00000  Uiso   1.00
H817   H     0.74007   0.07071   0.50540   0.00000  Uiso   1.00
H818   H     0.78639   0.04218   0.70054   0.00000  Uiso   1.00
H819   H     0.88029   0.29115   0.79944   0.00000  Uiso   1.00
H820   H     0.86512   0.23114   0.61125   0.00000  Uiso   1.00
H821   H     0.86506   0.10209   0.88884   0.00000  Uiso   1.00
H822   H     0.80195   0.23124   0.88892   0.00000  Uiso   1.00
H823   H     0.80176   0.10211   0.61100   0.00000  Uiso   1.00
H824   H     0.70422   0.09489   0.76582   0.00000  Uiso   1.00
N825   N     0.83333   0.28573   0.75000   0.00000  Uiso   1.00
N826   N     0.83333   0.04760   0.75000   0.00000  Uiso   1.00
O827   O     0.77226   0.20487   0.74999   0.00000  Uiso   1.00
O828   O     0.86973   0.09385   0.97488   0.00000  Uiso   1.00
O829   O     0.79755   0.23937   0.97494   0.00000  Uiso   1.00
O830   O     0.79743   0.09388   0.52494   0.00000  Uiso   1.00
O831   O     0.89441   0.12846   0.75000   0.00000  Uiso   1.00
O832   O     0.89441   0.20487   0.75000   0.00000  Uiso   1.00
O833   O     0.77226   0.12846   0.74999   0.00000  Uiso   1.00
O834   O     0.83333   0.20489   0.68453   0.00000  Uiso   1.00
O835   O     0.83334   0.12845   0.81547   0.00000  Uiso   1.00
O836   O     0.83334   0.20489   0.81547   0.00000  Uiso   1.00
O837   O     0.83333   0.12845   0.68453   0.00000  Uiso   1.00
O838   O     0.86990   0.23926   0.52526   0.00000  Uiso   1.00
Zn839  Zn    0.83333   0.21771   0.75000   0.00000  Uiso   1.00
Zn840  Zn    0.83333   0.11563   0.75000   0.00000  Uiso   1.00
C841   C     0.08662   0.50000   0.74997   0.00000  Uiso   1.00
C842   C     0.31202   0.54039   0.74126   0.00000  Uiso   1.00
C843   C     0.31204   0.45962   0.75879   0.00000  Uiso   1.00
C844   C     0.02130   0.54038   0.74121   0.00000  Uiso   1.00
C845   C     0.18602   0.53593   0.54727   0.00000  Uiso   1.00
C846   C     0.18595   0.46390   0.95279   0.00000  Uiso   1.00
C847   C     0.14795   0.53602   0.95283   0.00000  Uiso   1.00
C848   C     0.14788   0.46388   0.54711   0.00000  Uiso   1.00
C849   C     0.18467   0.53628   0.59335   0.00000  Uiso   1.00
C850   C     0.18466   0.46362   0.90670   0.00000  Uiso   1.00
C851   C     0.14909   0.53636   0.90674   0.00000  Uiso   1.00
C852   C     0.24672   0.50000   0.75003   0.00000  Uiso   1.00
C853   C     0.14896   0.46362   0.59321   0.00000  Uiso   1.00
C854   C     0.16674   0.49998   0.61612   0.00000  Uiso   1.00
C855   C     0.16682   0.50000   0.88388   0.00000  Uiso   1.00
C856   C     0.16700   0.49990   0.52409   0.00000  Uiso   1.00
C857   C     0.16698   0.49995   0.97591   0.00000  Uiso   1.00
C858   C     0.29086   0.50001   0.75004   0.00000  Uiso   1.00
C859   C     0.04247   0.49999   0.74996   0.00000  Uiso   1.00
C860   C     0.24564   0.56373   0.51726   0.00000  Uiso   1.00
C861   C     0.24554   0.43582   0.98285   0.00000  Uiso   1.00
C862   C     0.08845   0.56398   0.98296   0.00000  Uiso   1.00
C863   C     0.16665   0.50000   0.66394   0.00000  Uiso   1.00
C864   C     0.08829   0.43589   0.51693   0.00000  Uiso   1.00
C865   C     0.16671   0.50000   0.83606   0.00000  Uiso   1.00
C866   C     0.19277   0.35734   0.77749   0.00000  Uiso   1.00
C867   C     0.14056   0.64266   0.72252   0.00000  Uiso   1.00
C868   C     0.14057   0.35732   0.72251   0.00000  Uiso   1.00
C869   C     0.19277   0.64269   0.77748   0.00000  Uiso   1.00
C870   C     0.02132   0.45961   0.75874   0.00000  Uiso   1.00
H871   H     0.21362   0.37556   0.79945   0.00000  Uiso   1.00
H872   H     0.29577   0.57177   0.73417   0.00000  Uiso   1.00
H873   H     0.29581   0.42825   0.76593   0.00000  Uiso   1.00
H874   H     0.03752   0.57175   0.73408   0.00000  Uiso   1.00
H875   H     0.24922   0.53858   0.99001   0.00000  Uiso   1.00
H876   H     0.26233   0.55228   0.54785   0.00000  Uiso   1.00
H877   H     0.26066   0.59559   0.50604   0.00000  Uiso   1.00
H878   H     0.24935   0.46107   0.51000   0.00000  Uiso   1.00
H879   H     0.26218   0.44704   0.95223   0.00000  Uiso   1.00
H880   H     0.26043   0.40392   0.99421   0.00000  Uiso   1.00
H881   H     0.08481   0.53873   0.51011   0.00000  Uiso   1.00
H882   H     0.11970   0.62445   0.70056   0.00000  Uiso   1.00
H883   H     0.07169   0.55273   0.95235   0.00000  Uiso   1.00
H884   H     0.07357   0.59586   0.99434   0.00000  Uiso   1.00
H885   H     0.08453   0.46126   0.98988   0.00000  Uiso   1.00
H886   H     0.07161   0.44699   0.54757   0.00000  Uiso   1.00
H887   H     0.07341   0.40404   0.50540   0.00000  Uiso   1.00
H888   H     0.11972   0.37552   0.70054   0.00000  Uiso   1.00
H889   H     0.21363   0.62449   0.79944   0.00000  Uiso   1.00
H890   H     0.19845   0.56447   0.61125   0.00000  Uiso   1.00
H891   H     0.19840   0.43542   0.88884   0.00000  Uiso   1.00
H892   H     0.13529   0.56457   0.88892   0.00000  Uiso   1.00
H893   H     0.13509   0.43545   0.61100   0.00000  Uiso   1.00
H894   H     0.03756   0.42823   0.76582   0.00000  Uiso   1.00
N895   N     0.16667   0.61907   0.75000   0.00000  Uiso   1.00
N896   N     0.16667   0.38093   0.75000   0.00000  Uiso   1.00
O897   O     0.10559   0.53821   0.74999   0.00000  Uiso   1.00
O898   O     0.20306   0.42719   0.97488   0.00000  Uiso   1.00
O899   O     0.13088   0.57270   0.97494   0.00000  Uiso   1.00
O900   O     0.13076   0.42722   0.52494   0.00000  Uiso   1.00
O901   O     0.22774   0.46179   0.75000   0.00000  Uiso   1.00
O902   O     0.22774   0.53821   0.75000   0.00000  Uiso   1.00
O903   O     0.10559   0.46179   0.74999   0.00000  Uiso   1.00
O904   O     0.16666   0.53822   0.68453   0.00000  Uiso   1.00
O905   O     0.16667   0.46178   0.81547   0.00000  Uiso   1.00
O906   O     0.16667   0.53822   0.81547   0.00000  Uiso   1.00
O907   O     0.16666   0.46178   0.68453   0.00000  Uiso   1.00
O908   O     0.20323   0.57259   0.52526   0.00000  Uiso   1.00
Zn909  Zn    0.16667   0.55104   0.75000   0.00000  Uiso   1.00
Zn910  Zn    0.16667   0.44896   0.75000   0.00000  Uiso   1.00
C911   C     0.41995   0.50000   0.74997   0.00000  Uiso   1.00
C912   C     0.64535   0.54039   0.74126   0.00000  Uiso   1.00
C913   C     0.64537   0.45962   0.75879   0.00000  Uiso   1.00
C914   C     0.35463   0.54038   0.74121   0.00000  Uiso   1.00
C915   C     0.51935   0.53593   0.54727   0.00000  Uiso   1.00
C916   C     0.51928   0.46390   0.95279   0.00000  Uiso   1.00
C917   C     0.48129   0.53602   0.95283   0.00000  Uiso   1.00
C918   C     0.48121   0.46388   0.54711   0.00000  Uiso   1.00
C919   C     0.51800   0.53628   0.59335   0.00000  Uiso   1.00
C920   C     0.51799   0.46362   0.90670   0.00000  Uiso   1.00
C921   C     0.48242   0.53636   0.90674   0.00000  Uiso   1.00
C922   C     0.58005   0.50000   0.75003   0.00000  Uiso   1.00
C923   C     0.48229   0.46362   0.59321   0.00000  Uiso   1.00
C924   C     0.50008   0.49998   0.61612   0.00000  Uiso   1.00
C925   C     0.50015   0.50000   0.88388   0.00000  Uiso   1.00
C926   C     0.50033   0.49990   0.52409   0.00000  Uiso   1.00
C927   C     0.50032   0.49995   0.97591   0.00000  Uiso   1.00
C928   C     0.62419   0.50001   0.75004   0.00000  Uiso   1.00
C929   C     0.37581   0.49999   0.74996   0.00000  Uiso   1.00
C930   C     0.57897   0.56373   0.51726   0.00000  Uiso   1.00
C931   C     0.57887   0.43582   0.98285   0.00000  Uiso   1.00
C932   C     0.42179   0.56398   0.98296   0.00000  Uiso   1.00
C933   C     0.49999   0.50000   0.66394   0.00000  Uiso   1.00
C934   C     0.42163   0.43589   0.51693   0.00000  Uiso   1.00
C935   C     0.50004   0.50000   0.83606   0.00000  Uiso   1.00
C936   C     0.52610   0.35734   0.77749   0.00000  Uiso   1.00
C937   C     0.47390   0.64266   0.72252   0.00000  Uiso   1.00
C938   C     0.47390   0.35732   0.72251   0.00000  Uiso   1.00
C939   C     0.52610   0.64269   0.77748   0.00000  Uiso   1.00
C940   C     0.35465   0.45961   0.75874   0.00000  Uiso   1.00
H941   H     0.54695   0.37556   0.79945   0.00000  Uiso   1.00
H942   H     0.62911   0.57177   0.73417   0.00000  Uiso   1.00
H943   H     0.62914   0.42825   0.76593   0.00000  Uiso   1.00
H944   H     0.37085   0.57175   0.73408   0.00000  Uiso   1.00
H945   H     0.58255   0.53858   0.99001   0.00000  Uiso   1.00
H946   H     0.59566   0.55228   0.54785   0.00000  Uiso   1.00
H947   H     0.59399   0.59559   0.50604   0.00000  Uiso   1.00
H948   H     0.58268   0.46107   0.51000   0.00000  Uiso   1.00
H949   H     0.59552   0.44704   0.95223   0.00000  Uiso   1.00
H950   H     0.59376   0.40392   0.99421   0.00000  Uiso   1.00
H951   H     0.41814   0.53873   0.51011   0.00000  Uiso   1.00
H952   H     0.45304   0.62445   0.70056   0.00000  Uiso   1.00
H953   H     0.40502   0.55273   0.95235   0.00000  Uiso   1.00
H954   H     0.40690   0.59586   0.99434   0.00000  Uiso   1.00
H955   H     0.41786   0.46126   0.98988   0.00000  Uiso   1.00
H956   H     0.40495   0.44699   0.54757   0.00000  Uiso   1.00
H957   H     0.40674   0.40404   0.50540   0.00000  Uiso   1.00
H958   H     0.45305   0.37552   0.70054   0.00000  Uiso   1.00
H959   H     0.54696   0.62449   0.79944   0.00000  Uiso   1.00
H960   H     0.53179   0.56447   0.61125   0.00000  Uiso   1.00
H961   H     0.53173   0.43542   0.88884   0.00000  Uiso   1.00
H962   H     0.46862   0.56457   0.88892   0.00000  Uiso   1.00
H963   H     0.46842   0.43545   0.61100   0.00000  Uiso   1.00
H964   H     0.37089   0.42823   0.76582   0.00000  Uiso   1.00
N965   N     0.50000   0.61907   0.75000   0.00000  Uiso   1.00
N966   N     0.50000   0.38093   0.75000   0.00000  Uiso   1.00
O967   O     0.43892   0.53821   0.74999   0.00000  Uiso   1.00
O968   O     0.53639   0.42719   0.97488   0.00000  Uiso   1.00
O969   O     0.46422   0.57270   0.97494   0.00000  Uiso   1.00
O970   O     0.46409   0.42722   0.52494   0.00000  Uiso   1.00
O971   O     0.56108   0.46179   0.75000   0.00000  Uiso   1.00
O972   O     0.56108   0.53821   0.75000   0.00000  Uiso   1.00
O973   O     0.43892   0.46179   0.74999   0.00000  Uiso   1.00
O974   O     0.50000   0.53822   0.68453   0.00000  Uiso   1.00
O975   O     0.50000   0.46178   0.81547   0.00000  Uiso   1.00
O976   O     0.50000   0.53822   0.81547   0.00000  Uiso   1.00
O977   O     0.50000   0.46178   0.68453   0.00000  Uiso   1.00
O978   O     0.53657   0.57259   0.52526   0.00000  Uiso   1.00
Zn979  Zn    0.50000   0.55104   0.75000   0.00000  Uiso   1.00
Zn980  Zn    0.50000   0.44896   0.75000   0.00000  Uiso   1.00
C981   C     0.75328   0.50000   0.74997   0.00000  Uiso   1.00
C982   C     0.97868   0.54039   0.74126   0.00000  Uiso   1.00
C983   C     0.97870   0.45962   0.75879   0.00000  Uiso   1.00
C984   C     0.68796   0.54038   0.74121   0.00000  Uiso   1.00
C985   C     0.85268   0.53593   0.54727   0.00000  Uiso   1.00
C986   C     0.85261   0.46390   0.95279   0.00000  Uiso   1.00
C987   C     0.81462   0.53602   0.95283   0.00000  Uiso   1.00
C988   C     0.81454   0.46388   0.54711   0.00000  Uiso   1.00
C989   C     0.85134   0.53628   0.59335   0.00000  Uiso   1.00
C990   C     0.85132   0.46362   0.90670   0.00000  Uiso   1.00
C991   C     0.81576   0.53636   0.90674   0.00000  Uiso   1.00
C992   C     0.91338   0.50000   0.75003   0.00000  Uiso   1.00
C993   C     0.81563   0.46362   0.59321   0.00000  Uiso   1.00
C994   C     0.83341   0.49998   0.61612   0.00000  Uiso   1.00
C995   C     0.83349   0.50000   0.88388   0.00000  Uiso   1.00
C996   C     0.83367   0.49990   0.52409   0.00000  Uiso   1.00
C997   C     0.83365   0.49995   0.97591   0.00000  Uiso   1.00
C998   C     0.95752   0.50001   0.75004   0.00000  Uiso   1.00
C999   C     0.70914   0.49999   0.74996   0.00000  Uiso   1.00
C1000  C     0.91231   0.56373   0.51726   0.00000  Uiso   1.00
C1001  C     0.91221   0.43582   0.98285   0.00000  Uiso   1.00
C1002  C     0.75512   0.56398   0.98296   0.00000  Uiso   1.00
C1003  C     0.83332   0.50000   0.66394   0.00000  Uiso   1.00
C1004  C     0.75496   0.43589   0.51693   0.00000  Uiso   1.00
C1005  C     0.83338   0.50000   0.83606   0.00000  Uiso   1.00
C1006  C     0.85943   0.35734   0.77749   0.00000  Uiso   1.00
C1007  C     0.80723   0.64266   0.72252   0.00000  Uiso   1.00
C1008  C     0.80724   0.35732   0.72251   0.00000  Uiso   1.00
C1009  C     0.85944   0.64269   0.77748   0.00000  Uiso   1.00
C1010  C     0.68798   0.45961   0.75874   0.00000  Uiso   1.00
H1011  H     0.88029   0.37556   0.79945   0.00000  Uiso   1.00
H1012  H     0.96244   0.57177   0.73417   0.00000  Uiso   1.00
H1013  H     0.96248   0.42825   0.76593   0.00000  Uiso   1.00
H1014  H     0.70419   0.57175   0.73408   0.00000  Uiso   1.00
H1015  H     0.91588   0.53858   0.99001   0.00000  Uiso   1.00
H1016  H     0.92900   0.55228   0.54785   0.00000  Uiso   1.00
H1017  H     0.92732   0.59559   0.50604   0.00000  Uiso   1.00
H1018  H     0.91602   0.46107   0.51000   0.00000  Uiso   1.00
H1019  H     0.92885   0.44704   0.95223   0.00000  Uiso   1.00
H1020  H     0.92709   0.40392   0.99421   0.00000  Uiso   1.00
H1021  H     0.75148   0.53873   0.51011   0.00000  Uiso   1.00
H1022  H     0.78637   0.62445   0.70056   0.00000  Uiso   1.00
H1023  H     0.73835   0.55273   0.95235   0.00000  Uiso   1.00
H1024  H     0.74023   0.59586   0.99434   0.00000  Uiso   1.00
H1025  H     0.75120   0.46126   0.98988   0.00000  Uiso   1.00
H1026  H     0.73828   0.44699   0.54757   0.00000  Uiso   1.00
H1027  H     0.74007   0.40404   0.50540   0.00000  Uiso   1.00
H1028  H     0.78639   0.37552   0.70054   0.00000  Uiso   1.00
H1029  H     0.88029   0.62449   0.79944   0.00000  Uiso   1.00
H1030  H     0.86512   0.56447   0.61125   0.00000  Uiso   1.00
H1031  H     0.86506   0.43542   0.88884   0.00000  Uiso   1.00
H1032  H     0.80195   0.56457   0.88892   0.00000  Uiso   1.00
H1033  H     0.80176   0.43545   0.61100   0.00000  Uiso   1.00
H1034  H     0.70422   0.42823   0.76582   0.00000  Uiso   1.00
N1035  N     0.83333   0.61907   0.75000   0.00000  Uiso   1.00
N1036  N     0.83333   0.38093   0.75000   0.00000  Uiso   1.00
O1037  O     0.77226   0.53821   0.74999   0.00000  Uiso   1.00
O1038  O     0.86973   0.42719   0.97488   0.00000  Uiso   1.00
O1039  O     0.79755   0.57270   0.97494   0.00000  Uiso   1.00
O1040  O     0.79743   0.42722   0.52494   0.00000  Uiso   1.00
O1041  O     0.89441   0.46179   0.75000   0.00000  Uiso   1.00
O1042  O     0.89441   0.53821   0.75000   0.00000  Uiso   1.00
O1043  O     0.77226   0.46179   0.74999   0.00000  Uiso   1.00
O1044  O     0.83333   0.53822   0.68453   0.00000  Uiso   1.00
O1045  O     0.83334   0.46178   0.81547   0.00000  Uiso   1.00
O1046  O     0.83334   0.53822   0.81547   0.00000  Uiso   1.00
O1047  O     0.83333   0.46178   0.68453   0.00000  Uiso   1.00
O1048  O     0.86990   0.57259   0.52526   0.00000  Uiso   1.00
Zn1049 Zn    0.83333   0.55104   0.75000   0.00000  Uiso   1.00
Zn1050 Zn    0.83333   0.44896   0.75000   0.00000  Uiso   1.00
C1051  C     0.08662   0.83333   0.74997   0.00000  Uiso   1.00
C1052  C     0.31202   0.87373   0.74126   0.00000  Uiso   1.00
C1053  C     0.31204   0.79295   0.75879   0.00000  Uiso   1.00
C1054  C     0.02130   0.87372   0.74121   0.00000  Uiso   1.00
C1055  C     0.18602   0.86927   0.54727   0.00000  Uiso   1.00
C1056  C     0.18595   0.79724   0.95279   0.00000  Uiso   1.00
C1057  C     0.14795   0.86936   0.95283   0.00000  Uiso   1.00
C1058  C     0.14788   0.79722   0.54711   0.00000  Uiso   1.00
C1059  C     0.18467   0.86961   0.59335   0.00000  Uiso   1.00
C1060  C     0.18466   0.79696   0.90670   0.00000  Uiso   1.00
C1061  C     0.14909   0.86969   0.90674   0.00000  Uiso   1.00
C1062  C     0.24672   0.83334   0.75003   0.00000  Uiso   1.00
C1063  C     0.14896   0.79695   0.59321   0.00000  Uiso   1.00
C1064  C     0.16674   0.83331   0.61612   0.00000  Uiso   1.00
C1065  C     0.16682   0.83333   0.88388   0.00000  Uiso   1.00
C1066  C     0.16700   0.83323   0.52409   0.00000  Uiso   1.00
C1067  C     0.16698   0.83328   0.97591   0.00000  Uiso   1.00
C1068  C     0.29086   0.83334   0.75004   0.00000  Uiso   1.00
C1069  C     0.04247   0.83332   0.74996   0.00000  Uiso   1.00
C1070  C     0.24564   0.89707   0.51726   0.00000  Uiso   1.00
C1071  C     0.24554   0.76916   0.98285   0.00000  Uiso   1.00
C1072  C     0.08845   0.89732   0.98296   0.00000  Uiso   1.00
C1073  C     0.16665   0.83333   0.66394   0.00000  Uiso   1.00
C1074  C     0.08829   0.76923   0.51693   0.00000  Uiso   1.00
C1075  C     0.16671   0.83333   0.83606   0.00000  Uiso   1.00
C1076  C     0.19277   0.69067   0.77749   0.00000  Uiso   1.00
C1077  C     0.14056   0.97600   0.72252   0.00000  Uiso   1.00
C1078  C     0.14057   0.69065   0.72251   0.00000  Uiso   1.00
C1079  C     0.19277   0.97602   0.77748   0.00000  Uiso   1.00
C1080  C     0.02132   0.79294   0.75874   0.00000  Uiso   1.00
H1081  H     0.21362   0.70889   0.79945   0.00000  Uiso   1.00
H1082  H     0.29577   0.90510   0.73417   0.00000  Uiso   1.00
H1083  H     0.29581   0.76158   0.76593   0.00000  Uiso   1.00
H1084  H     0.03752   0.90509   0.73408   0.00000  Uiso   1.00
H1085  H     0.24922   0.87191   0.99001   0.00000  Uiso   1.00
H1086  H     0.26233   0.88562   0.54785   0.00000  Uiso   1.00
H1087  H     0.26066   0.92892   0.50604   0.00000  Uiso   1.00
H1088  H     0.24935   0.79441   0.51000   0.00000  Uiso   1.00
H1089  H     0.26218   0.78038   0.95223   0.00000  Uiso   1.00
H1090  H     0.26043   0.73726   0.99421   0.00000  Uiso   1.00
H1091  H     0.08481   0.87207   0.51011   0.00000  Uiso   1.00
H1092  H     0.11970   0.95778   0.70056   0.00000  Uiso   1.00
H1093  H     0.07169   0.88606   0.95235   0.00000  Uiso   1.00
H1094  H     0.07357   0.92919   0.99434   0.00000  Uiso   1.00
H1095  H     0.08453   0.79459   0.98988   0.00000  Uiso   1.00
H1096  H     0.07161   0.78032   0.54757   0.00000  Uiso   1.00
H1097  H     0.07341   0.73737   0.50540   0.00000  Uiso   1.00
H1098  H     0.11972   0.70885   0.70054   0.00000  Uiso   1.00
H1099  H     0.21363   0.95782   0.79944   0.00000  Uiso   1.00
H1100  H     0.19845   0.89781   0.61125   0.00000  Uiso   1.00
H1101  H     0.19840   0.76876   0.88884   0.00000  Uiso   1.00
H1102  H     0.13529   0.89791   0.88892   0.00000  Uiso   1.00
H1103  H     0.13509   0.76878   0.61100   0.00000  Uiso   1.00
H1104  H     0.03756   0.76156   0.76582   0.00000  Uiso   1.00
N1105  N     0.16667   0.95240   0.75000   0.00000  Uiso   1.00
N1106  N     0.16667   0.71427   0.75000   0.00000  Uiso   1.00
O1107  O     0.10559   0.87154   0.74999   0.00000  Uiso   1.00
O1108  O     0.20306   0.76052   0.97488   0.00000  Uiso   1.00
O1109  O     0.13088   0.90604   0.97494   0.00000  Uiso   1.00
O1110  O     0.13076   0.76055   0.52494   0.00000  Uiso   1.00
O1111  O     0.22774   0.79513   0.75000   0.00000  Uiso   1.00
O1112  O     0.22774   0.87154   0.75000   0.00000  Uiso   1.00
O1113  O     0.10559   0.79513   0.74999   0.00000  Uiso   1.00
O1114  O     0.16666   0.87155   0.68453   0.00000  Uiso   1.00
O1115  O     0.16667   0.79511   0.81547   0.00000  Uiso   1.00
O1116  O     0.16667   0.87155   0.81547   0.00000  Uiso   1.00
O1117  O     0.16666   0.79511   0.68453   0.00000  Uiso   1.00
O1118  O     0.20323   0.90593   0.52526   0.00000  Uiso   1.00
Zn1119 Zn    0.16667   0.88437   0.75000   0.00000  Uiso   1.00
Zn1120 Zn    0.16667   0.78229   0.75000   0.00000  Uiso   1.00
C1121  C     0.41995   0.83333   0.74997   0.00000  Uiso   1.00
C1122  C     0.64535   0.87373   0.74126   0.00000  Uiso   1.00
C1123  C     0.64537   0.79295   0.75879   0.00000  Uiso   1.00
C1124  C     0.35463   0.87372   0.74121   0.00000  Uiso   1.00
C1125  C     0.51935   0.86927   0.54727   0.00000  Uiso   1.00
C1126  C     0.51928   0.79724   0.95279   0.00000  Uiso   1.00
C1127  C     0.48129   0.86936   0.95283   0.00000  Uiso   1.00
C1128  C     0.48121   0.79722   0.54711   0.00000  Uiso   1.00
C1129  C     0.51800   0.86961   0.59335   0.00000  Uiso   1.00
C1130  C     0.51799   0.79696   0.90670   0.00000  Uiso   1.00
C1131  C     0.48242   0.86969   0.90674   0.00000  Uiso   1.00
C1132  C     0.58005   0.83334   0.75003   0.00000  Uiso   1.00
C1133  C     0.48229   0.79695   0.59321   0.00000  Uiso   1.00
C1134  C     0.50008   0.83331   0.61612   0.00000  Uiso   1.00
C1135  C     0.50015   0.83333   0.88388   0.00000  Uiso   1.00
C1136  C     0.50033   0.83323   0.52409   0.00000  Uiso   1.00
C1137  C     0.50032   0.83328   0.97591   0.00000  Uiso   1.00
C1138  C     0.62419   0.83334   0.75004   0.00000  Uiso   1.00
C1139  C     0.37581   0.83332   0.74996   0.00000  Uiso   1.00
C1140  C     0.57897   0.89707   0.51726   0.00000  Uiso   1.00
C1141  C     0.57887   0.76916   0.98285   0.00000  Uiso   1.00
C1142  C     0.42179   0.89732   0.98296   0.00000  Uiso   1.00
C1143  C     0.49999   0.83333   0.66394   0.00000  Uiso   1.00
C1144  C     0.42163   0.76923   0.51693   0.00000  Uiso   1.00
C1145  C     0.50004   0.83333   0.83606   0.00000  Uiso   1.00
C1146  C     0.52610   0.69067   0.77749   0.00000  Uiso   1.00
C1147  C     0.47390   0.97600   0.72252   0.00000  Uiso   1.00
C1148  C     0.47390   0.69065   0.72251   0.00000  Uiso   1.00
C1149  C     0.52610   0.97602   0.77748   0.00000  Uiso   1.00
C1150  C     0.35465   0.79294   0.75874   0.00000  Uiso   1.00
H1151  H     0.54695   0.70889   0.79945   0.00000  Uiso   1.00
H1152  H     0.62911   0.90510   0.73417   0.00000  Uiso   1.00
H1153  H     0.62914   0.76158   0.76593   0.00000  Uiso   1.00
H1154  H     0.37085   0.90509   0.73408   0.00000  Uiso   1.00
H1155  H     0.58255   0.87191   0.99001   0.00000  Uiso   1.00
H1156  H     0.59566   0.88562   0.54785   0.00000  Uiso   1.00
H1157  H     0.59399   0.92892   0.50604   0.00000  Uiso   1.00
H1158  H     0.58268   0.79441   0.51000   0.00000  Uiso   1.00
H1159  H     0.59552   0.78038   0.95223   0.00000  Uiso   1.00
H1160  H     0.59376   0.73726   0.99421   0.00000  Uiso   1.00
H1161  H     0.41814   0.87207   0.51011   0.00000  Uiso   1.00
H1162  H     0.45304   0.95778   0.70056   0.00000  Uiso   1.00
H1163  H     0.40502   0.88606   0.95235   0.00000  Uiso   1.00
H1164  H     0.40690   0.92919   0.99434   0.00000  Uiso   1.00
H1165  H     0.41786   0.79459   0.98988   0.00000  Uiso   1.00
H1166  H     0.40495   0.78032   0.54757   0.00000  Uiso   1.00
H1167  H     0.40674   0.73737   0.50540   0.00000  Uiso   1.00
H1168  H     0.45305   0.70885   0.70054   0.00000  Uiso   1.00
H1169  H     0.54696   0.95782   0.79944   0.00000  Uiso   1.00
H1170  H     0.53179   0.89781   0.61125   0.00000  Uiso   1.00
H1171  H     0.53173   0.76876   0.88884   0.00000  Uiso   1.00
H1172  H     0.46862   0.89791   0.88892   0.00000  Uiso   1.00
H1173  H     0.46842   0.76878   0.61100   0.00000  Uiso   1.00
H1174  H     0.37089   0.76156   0.76582   0.00000  Uiso   1.00
N1175  N     0.50000   0.95240   0.75000   0.00000  Uiso   1.00
N1176  N     0.50000   0.71427   0.75000   0.00000  Uiso   1.00
O1177  O     0.43892   0.87154   0.74999   0.00000  Uiso   1.00
O1178  O     0.53639   0.76052   0.97488   0.00000  Uiso   1.00
O1179  O     0.46422   0.90604   0.97494   0.00000  Uiso   1.00
O1180  O     0.46409   0.76055   0.52494   0.00000  Uiso   1.00
O1181  O     0.56108   0.79513   0.75000   0.00000  Uiso   1.00
O1182  O     0.56108   0.87154   0.75000   0.00000  Uiso   1.00
O1183  O     0.43892   0.79513   0.74999   0.00000  Uiso   1.00
O1184  O     0.50000   0.87155   0.68453   0.00000  Uiso   1.00
O1185  O     0.50000   0.79511   0.81547   0.00000  Uiso   1.00
O1186  O     0.50000   0.87155   0.81547   0.00000  Uiso   1.00
O1187  O     0.50000   0.79511   0.68453   0.00000  Uiso   1.00
O1188  O     0.53657   0.90593   0.52526   0.00000  Uiso   1.00
Zn1189 Zn    0.50000   0.88437   0.75000   0.00000  Uiso   1.00
Zn1190 Zn    0.50000   0.78229   0.75000   0.00000  Uiso   1.00
C1191  C     0.75328   0.83333   0.74997   0.00000  Uiso   1.00
C1192  C     0.97868   0.87373   0.74126   0.00000  Uiso   1.00
C1193  C     0.97870   0.79295   0.75879   0.00000  Uiso   1.00
C1194  C     0.68796   0.87372   0.74121   0.00000  Uiso   1.00
C1195  C     0.85268   0.86927   0.54727   0.00000  Uiso   1.00
C1196  C     0.85261   0.79724   0.95279   0.00000  Uiso   1.00
C1197  C     0.81462   0.86936   0.95283   0.00000  Uiso   1.00
C1198  C     0.81454   0.79722   0.54711   0.00000  Uiso   1.00
C1199  C     0.85134   0.86961   0.59335   0.00000  Uiso   1.00
C1200  C     0.85132   0.79696   0.90670   0.00000  Uiso   1.00
C1201  C     0.81576   0.86969   0.90674   0.00000  Uiso   1.00
C1202  C     0.91338   0.83334   0.75003   0.00000  Uiso   1.00
C1203  C     0.81563   0.79695   0.59321   0.00000  Uiso   1.00
C1204  C     0.83341   0.83331   0.61612   0.00000  Uiso   1.00
C1205  C     0.83349   0.83333   0.88388   0.00000  Uiso   1.00
C1206  C     0.83367   0.83323   0.52409   0.00000  Uiso   1.00
C1207  C     0.83365   0.83328   0.97591   0.00000  Uiso   1.00
C1208  C     0.95752   0.83334   0.75004   0.00000  Uiso   1.00
C1209  C     0.70914   0.83332   0.74996   0.00000  Uiso   1.00
C1210  C     0.91231   0.89707   0.51726   0.00000  Uiso   1.00
C1211  C     0.91221   0.76916   0.98285   0.00000  Uiso   1.00
C1212  C     0.75512   0.89732   0.98296   0.00000  Uiso   1.00
C1213  C     0.83332   0.83333   0.66394   0.00000  Uiso   1.00
C1214  C     0.75496   0.76923   0.51693   0.00000  Uiso   1.00
C1215  C     0.83338   0.83333   0.83606   0.00000  Uiso   1.00
C1216  C     0.85943   0.69067   0.77749   0.00000  Uiso   1.00
C1217  C     0.80723   0.97600   0.72252   0.00000  Uiso   1.00
C1218  C     0.80724   0.69065   0.72251   0.00000  Uiso   1.00
C1219  C     0.85944   0.97602   0.77748   0.00000  Uiso   1.00
C1220  C     0.68798   0.79294   0.75874   0.00000  Uiso   1.00
H1221  H     0.88029   0.70889   0.79945   0.00000  Uiso   1.00
H1222  H     0.96244   0.90510   0.73417   0.00000  Uiso   1.00
H1223  H     0.96248   0.76158   0.76593   0.00000  Uiso   1.00
H1224  H     0.70419   0.90509   0.73408   0.00000  Uiso   1.00
H1225  H     0.91588   0.87191   0.99001   0.00000  Uiso   1.00
H1226  H     0.92900   0.88562   0.54785   0.00000  Uiso   1.00
H1227  H     0.92732   0.92892   0.50604   0.00000  Uiso   1.00
H1228  H     0.91602   0.79441   0.51000   0.00000  Uiso   1.00
H1229  H     0.92885   0.78038   0.95223   0.00000  Uiso   1.00
H1230  H     0.92709   0.73726   0.99421   0.00000  Uiso   1.00
H1231  H     0.75148   0.87207   0.51011   0.00000  Uiso   1.00
H1232  H     0.78637   0.95778   0.70056   0.00000  Uiso   1.00
H1233  H     0.73835   0.88606   0.95235   0.00000  Uiso   1.00
H1234  H     0.74023   0.92919   0.99434   0.00000  Uiso   1.00
H1235  H     0.75120   0.79459   0.98988   0.00000  Uiso   1.00
H1236  H     0.73828   0.78032   0.54757   0.00000  Uiso   1.00
H1237  H     0.74007   0.73737   0.50540   0.00000  Uiso   1.00
H1238  H     0.78639   0.70885   0.70054   0.00000  Uiso   1.00
H1239  H     0.88029   0.95782   0.79944   0.00000  Uiso   1.00
H1240  H     0.86512   0.89781   0.61125   0.00000  Uiso   1.00
H1241  H     0.86506   0.76876   0.88884   0.00000  Uiso   1.00
H1242  H     0.80195   0.89791   0.88892   0.00000  Uiso   1.00
H1243  H     0.80176   0.76878   0.61100   0.00000  Uiso   1.00
H1244  H     0.70422   0.76156   0.76582   0.00000  Uiso   1.00
N1245  N     0.83333   0.95240   0.75000   0.00000  Uiso   1.00
N1246  N     0.83333   0.71427   0.75000   0.00000  Uiso   1.00
O1247  O     0.77226   0.87154   0.74999   0.00000  Uiso   1.00
O1248  O     0.86973   0.76052   0.97488   0.00000  Uiso   1.00
O1249  O     0.79755   0.90604   0.97494   0.00000  Uiso   1.00
O1250  O     0.79743   0.76055   0.52494   0.00000  Uiso   1.00
O1251  O     0.89441   0.79513   0.75000   0.00000  Uiso   1.00
O1252  O     0.89441   0.87154   0.75000   0.00000  Uiso   1.00
O1253  O     0.77226   0.79513   0.74999   0.00000  Uiso   1.00
O1254  O     0.83333   0.87155   0.68453   0.00000  Uiso   1.00
O1255  O     0.83334   0.79511   0.81547   0.00000  Uiso   1.00
O1256  O     0.83334   0.87155   0.81547   0.00000  Uiso   1.00
O1257  O     0.83333   0.79511   0.68453   0.00000  Uiso   1.00
O1258  O     0.86990   0.90593   0.52526   0.00000  Uiso   1.00
Zn1259 Zn    0.83333   0.88437   0.75000   0.00000  Uiso   1.00
Zn1260 Zn    0.83333   0.78229   0.75000   0.00000  Uiso   1.00
loop_
_geom_bond_atom_site_label_1
_geom_bond_atom_site_label_2
_geom_bond_distance
_geom_bond_site_symmetry_2
_ccdc_geom_bond_type
C1     O57     1.281   .     A
C1     O63     1.281   .     A
C1     C19     1.419   .     S
C2     C18     1.397   .     A
C2     H32     1.084   .     S
C2     C74     1.370   .     S
C3     C18     1.397   .     A
C3     H33     1.084   .     S
C3     C100    1.370   .     S
C4     C19     1.397   .     A
C4     H34     1.084   .     S
C4     C142    1.370   1_455 S
C5     C9      1.384   .     A
C5     O68     1.383   .     S
C5     C16     1.409   .     A
C6     C10     1.384   .     A
C6     O58     1.383   .     S
C6     C17     1.409   .     A
C7     C11     1.384   .     A
C7     O59     1.383   .     S
C7     C17     1.409   .     A
C8     C13     1.384   .     A
C8     C16     1.409   .     A
C8     O60     1.383   .     S
C9     C14     1.395   .     A
C9     H50     1.084   .     S
C10    C15     1.396   .     A
C10    H51     1.084   .     S
C11    H52     1.084   .     S
C11    C15     1.395   .     A
C12    O61     1.281   .     A
C12    C18     1.419   .     S
C12    O62     1.281   .     A
C13    H53     1.084   .     S
C13    C14     1.396   .     A
C14    C23     1.435   .     S
C15    C25     1.435   .     S
C16    C647    1.446   1_554 S
C17    C646    1.446   .     S
C19    C30     1.397   .     A
C20    H37     1.109   .     S
C20    O68     1.409   .     S
C20    H36     1.115   .     S
C20    H665    1.110   1_554 S
C21    H39     1.115   .     S
C21    O58     1.409   .     S
C21    H40     1.109   .     S
C21    H668    1.110   .     S
C22    H43     1.115   .     S
C22    O59     1.409   .     S
C22    H44     1.109   .     S
C22    H671    1.110   .     S
C23    O64     1.286   .     A
C23    O67     1.286   .     A
C24    O60     1.409   .     S
C24    H46     1.115   .     S
C24    H47     1.109   .     S
C24    H675    1.110   1_554 S
C25    O65     1.286   .     A
C25    O66     1.286   .     A
C26    H31     1.082   .     S
C26    N56     1.366   .     A
C26    C449    1.416   1_545 S
C27    H42     1.082   .     S
C27    N55     1.366   .     A
C27    C238    1.416   .     S
C28    N56     1.366   .     A
C28    H48     1.082   .     S
C28    C447    1.416   1_545 S
C29    H49     1.082   .     S
C29    N55     1.366   .     A
C29    C236    1.416   .     S
C30    H54     1.084   .     S
C30    C143    1.370   1_455 S
H35    C650    1.110   .     S
H38    C651    1.110   1_554 S
H41    C652    1.110   1_554 S
H45    C654    1.110   .     S
N55    Zn69    2.007   .     S
N56    Zn70    2.007   .     S
O57    Zn69    1.999   .     S
O61    Zn70    1.999   .     S
O62    Zn69    1.999   .     S
O63    Zn70    1.999   .     S
O64    Zn69    2.001   .     S
O65    Zn70    2.001   .     S
O66    Zn69    2.001   .     S
O67    Zn70    2.001   .     S
C71    O127    1.281   .     A
C71    O133    1.281   .     A
C71    C89     1.419   .     S
C72    C88     1.397   .     A
C72    H102    1.084   .     S
C72    C144    1.370   .     S
C73    C88     1.397   .     A
C73    H103    1.084   .     S
C73    C170    1.370   .     S
C74    C89     1.397   .     A
C74    H104    1.084   .     S
C75    C79     1.384   .     A
C75    O138    1.383   .     S
C75    C86     1.409   .     A
C76    C80     1.384   .     A
C76    O128    1.383   .     S
C76    C87     1.409   .     A
C77    C81     1.384   .     A
C77    O129    1.383   .     S
C77    C87     1.409   .     A
C78    C83     1.384   .     A
C78    C86     1.409   .     A
C78    O130    1.383   .     S
C79    C84     1.395   .     A
C79    H120    1.084   .     S
C80    C85     1.396   .     A
C80    H121    1.084   .     S
C81    H122    1.084   .     S
C81    C85     1.395   .     A
C82    O131    1.281   .     A
C82    C88     1.419   .     S
C82    O132    1.281   .     A
C83    H123    1.084   .     S
C83    C84     1.396   .     A
C84    C93     1.435   .     S
C85    C95     1.435   .     S
C86    C717    1.446   1_554 S
C87    C716    1.446   .     S
C89    C100    1.397   .     A
C90    H107    1.109   .     S
C90    O138    1.409   .     S
C90    H106    1.115   .     S
C90    H735    1.110   1_554 S
C91    H109    1.115   .     S
C91    O128    1.409   .     S
C91    H110    1.109   .     S
C91    H738    1.110   .     S
C92    H113    1.115   .     S
C92    O129    1.409   .     S
C92    H114    1.109   .     S
C92    H741    1.110   .     S
C93    O134    1.286   .     A
C93    O137    1.286   .     A
C94    O130    1.409   .     S
C94    H116    1.115   .     S
C94    H117    1.109   .     S
C94    H745    1.110   1_554 S
C95    O135    1.286   .     A
C95    O136    1.286   .     A
C96    H101    1.082   .     S
C96    N126    1.366   .     A
C96    C519    1.416   1_545 S
C97    H112    1.082   .     S
C97    N125    1.366   .     A
C97    C308    1.416   .     S
C98    N126    1.366   .     A
C98    H118    1.082   .     S
C98    C517    1.416   1_545 S
C99    H119    1.082   .     S
C99    N125    1.366   .     A
C99    C306    1.416   .     S
C100   H124    1.084   .     S
H105   C720    1.110   .     S
H108   C721    1.110   1_554 S
H111   C722    1.110   1_554 S
H115   C724    1.110   .     S
N125   Zn139   2.007   .     S
N126   Zn140   2.007   .     S
O127   Zn139   1.999   .     S
O131   Zn140   1.999   .     S
O132   Zn139   1.999   .     S
O133   Zn140   1.999   .     S
O134   Zn139   2.001   .     S
O135   Zn140   2.001   .     S
O136   Zn139   2.001   .     S
O137   Zn140   2.001   .     S
C141   O197    1.281   .     A
C141   O203    1.281   .     A
C141   C159    1.419   .     S
C142   C158    1.397   .     A
C142   H172    1.084   .     S
C142   C4      1.370   1_655 S
C143   C158    1.397   .     A
C143   H173    1.084   .     S
C143   C30     1.370   1_655 S
C144   C159    1.397   .     A
C144   H174    1.084   .     S
C145   C149    1.384   .     A
C145   O208    1.383   .     S
C145   C156    1.409   .     A
C146   C150    1.384   .     A
C146   O198    1.383   .     S
C146   C157    1.409   .     A
C147   C151    1.384   .     A
C147   O199    1.383   .     S
C147   C157    1.409   .     A
C148   C153    1.384   .     A
C148   C156    1.409   .     A
C148   O200    1.383   .     S
C149   C154    1.395   .     A
C149   H190    1.084   .     S
C150   C155    1.396   .     A
C150   H191    1.084   .     S
C151   H192    1.084   .     S
C151   C155    1.395   .     A
C152   O201    1.281   .     A
C152   C158    1.419   .     S
C152   O202    1.281   .     A
C153   H193    1.084   .     S
C153   C154    1.396   .     A
C154   C163    1.435   .     S
C155   C165    1.435   .     S
C156   C787    1.446   1_554 S
C157   C786    1.446   .     S
C159   C170    1.397   .     A
C160   H177    1.109   .     S
C160   O208    1.409   .     S
C160   H176    1.115   .     S
C160   H805    1.110   1_554 S
C161   H179    1.115   .     S
C161   O198    1.409   .     S
C161   H180    1.109   .     S
C161   H808    1.110   .     S
C162   H183    1.115   .     S
C162   O199    1.409   .     S
C162   H184    1.109   .     S
C162   H811    1.110   .     S
C163   O204    1.286   .     A
C163   O207    1.286   .     A
C164   O200    1.409   .     S
C164   H186    1.115   .     S
C164   H187    1.109   .     S
C164   H815    1.110   1_554 S
C165   O205    1.286   .     A
C165   O206    1.286   .     A
C166   H171    1.082   .     S
C166   N196    1.366   .     A
C166   C589    1.416   1_545 S
C167   H182    1.082   .     S
C167   N195    1.366   .     A
C167   C378    1.416   .     S
C168   N196    1.366   .     A
C168   H188    1.082   .     S
C168   C587    1.416   1_545 S
C169   H189    1.082   .     S
C169   N195    1.366   .     A
C169   C376    1.416   .     S
C170   H194    1.084   .     S
H175   C790    1.110   .     S
H178   C791    1.110   1_554 S
H181   C792    1.110   1_554 S
H185   C794    1.110   .     S
N195   Zn209   2.007   .     S
N196   Zn210   2.007   .     S
O197   Zn209   1.999   .     S
O201   Zn210   1.999   .     S
O202   Zn209   1.999   .     S
O203   Zn210   1.999   .     S
O204   Zn209   2.001   .     S
O205   Zn210   2.001   .     S
O206   Zn209   2.001   .     S
O207   Zn210   2.001   .     S
C211   O267    1.281   .     A
C211   O273    1.281   .     A
C211   C229    1.419   .     S
C212   C228    1.397   .     A
C212   H242    1.084   .     S
C212   C284    1.370   .     S
C213   C228    1.397   .     A
C213   H243    1.084   .     S
C213   C310    1.370   .     S
C214   C229    1.397   .     A
C214   H244    1.084   .     S
C214   C352    1.370   1_455 S
C215   C219    1.384   .     A
C215   O278    1.383   .     S
C215   C226    1.409   .     A
C216   C220    1.384   .     A
C216   O268    1.383   .     S
C216   C227    1.409   .     A
C217   C221    1.384   .     A
C217   O269    1.383   .     S
C217   C227    1.409   .     A
C218   C223    1.384   .     A
C218   C226    1.409   .     A
C218   O270    1.383   .     S
C219   C224    1.395   .     A
C219   H260    1.084   .     S
C220   C225    1.396   .     A
C220   H261    1.084   .     S
C221   H262    1.084   .     S
C221   C225    1.395   .     A
C222   O271    1.281   .     A
C222   C228    1.419   .     S
C222   O272    1.281   .     A
C223   H263    1.084   .     S
C223   C224    1.396   .     A
C224   C233    1.435   .     S
C225   C235    1.435   .     S
C226   C857    1.446   1_554 S
C227   C856    1.446   .     S
C229   C240    1.397   .     A
C230   H247    1.109   .     S
C230   O278    1.409   .     S
C230   H246    1.115   .     S
C230   H875    1.110   1_554 S
C231   H249    1.115   .     S
C231   O268    1.409   .     S
C231   H250    1.109   .     S
C231   H878    1.110   .     S
C232   H253    1.115   .     S
C232   O269    1.409   .     S
C232   H254    1.109   .     S
C232   H881    1.110   .     S
C233   O274    1.286   .     A
C233   O277    1.286   .     A
C234   O270    1.409   .     S
C234   H256    1.115   .     S
C234   H257    1.109   .     S
C234   H885    1.110   1_554 S
C235   O275    1.286   .     A
C235   O276    1.286   .     A
C236   H241    1.082   .     S
C236   N266    1.366   .     A
C237   H252    1.082   .     S
C237   N265    1.366   .     A
C237   C448    1.416   .     S
C238   N266    1.366   .     A
C238   H258    1.082   .     S
C239   H259    1.082   .     S
C239   N265    1.366   .     A
C239   C446    1.416   .     S
C240   H264    1.084   .     S
C240   C353    1.370   1_455 S
H245   C860    1.110   .     S
H248   C861    1.110   1_554 S
H251   C862    1.110   1_554 S
H255   C864    1.110   .     S
N265   Zn279   2.007   .     S
N266   Zn280   2.007   .     S
O267   Zn279   1.999   .     S
O271   Zn280   1.999   .     S
O272   Zn279   1.999   .     S
O273   Zn280   1.999   .     S
O274   Zn279   2.001   .     S
O275   Zn280   2.001   .     S
O276   Zn279   2.001   .     S
O277   Zn280   2.001   .     S
C281   O337    1.281   .     A
C281   O343    1.281   .     A
C281   C299    1.419   .     S
C282   C298    1.397   .     A
C282   H312    1.084   .     S
C282   C354    1.370   .     S
C283   C298    1.397   .     A
C283   H313    1.084   .     S
C283   C380    1.370   .     S
C284   C299    1.397   .     A
C284   H314    1.084   .     S
C285   C289    1.384   .     A
C285   O348    1.383   .     S
C285   C296    1.409   .     A
C286   C290    1.384   .     A
C286   O338    1.383   .     S
C286   C297    1.409   .     A
C287   C291    1.384   .     A
C287   O339    1.383   .     S
C287   C297    1.409   .     A
C288   C293    1.384   .     A
C288   C296    1.409   .     A
C288   O340    1.383   .     S
C289   C294    1.395   .     A
C289   H330    1.084   .     S
C290   C295    1.396   .     A
C290   H331    1.084   .     S
C291   H332    1.084   .     S
C291   C295    1.395   .     A
C292   O341    1.281   .     A
C292   C298    1.419   .     S
C292   O342    1.281   .     A
C293   H333    1.084   .     S
C293   C294    1.396   .     A
C294   C303    1.435   .     S
C295   C305    1.435   .     S
C296   C927    1.446   1_554 S
C297   C926    1.446   .     S
C299   C310    1.397   .     A
C300   H317    1.109   .     S
C300   O348    1.409   .     S
C300   H316    1.115   .     S
C300   H945    1.110   1_554 S
C301   H319    1.115   .     S
C301   O338    1.409   .     S
C301   H320    1.109   .     S
C301   H948    1.110   .     S
C302   H323    1.115   .     S
C302   O339    1.409   .     S
C302   H324    1.109   .     S
C302   H951    1.110   .     S
C303   O344    1.286   .     A
C303   O347    1.286   .     A
C304   O340    1.409   .     S
C304   H326    1.115   .     S
C304   H327    1.109   .     S
C304   H955    1.110   1_554 S
C305   O345    1.286   .     A
C305   O346    1.286   .     A
C306   H311    1.082   .     S
C306   N336    1.366   .     A
C307   H322    1.082   .     S
C307   N335    1.366   .     A
C307   C518    1.416   .     S
C308   N336    1.366   .     A
C308   H328    1.082   .     S
C309   H329    1.082   .     S
C309   N335    1.366   .     A
C309   C516    1.416   .     S
C310   H334    1.084   .     S
H315   C930    1.110   .     S
H318   C931    1.110   1_554 S
H321   C932    1.110   1_554 S
H325   C934    1.110   .     S
N335   Zn349   2.007   .     S
N336   Zn350   2.007   .     S
O337   Zn349   1.999   .     S
O341   Zn350   1.999   .     S
O342   Zn349   1.999   .     S
O343   Zn350   1.999   .     S
O344   Zn349   2.001   .     S
O345   Zn350   2.001   .     S
O346   Zn349   2.001   .     S
O347   Zn350   2.001   .     S
C351   O407    1.281   .     A
C351   O413    1.281   .     A
C351   C369    1.419   .     S
C352   C368    1.397   .     A
C352   H382    1.084   .     S
C352   C214    1.370   1_655 S
C353   C368    1.397   .     A
C353   H383    1.084   .     S
C353   C240    1.370   1_655 S
C354   C369    1.397   .     A
C354   H384    1.084   .     S
C355   C359    1.384   .     A
C355   O418    1.383   .     S
C355   C366    1.409   .     A
C356   C360    1.384   .     A
C356   O408    1.383   .     S
C356   C367    1.409   .     A
C357   C361    1.384   .     A
C357   O409    1.383   .     S
C357   C367    1.409   .     A
C358   C363    1.384   .     A
C358   C366    1.409   .     A
C358   O410    1.383   .     S
C359   C364    1.395   .     A
C359   H400    1.084   .     S
C360   C365    1.396   .     A
C360   H401    1.084   .     S
C361   H402    1.084   .     S
C361   C365    1.395   .     A
C362   O411    1.281   .     A
C362   C368    1.419   .     S
C362   O412    1.281   .     A
C363   H403    1.084   .     S
C363   C364    1.396   .     A
C364   C373    1.435   .     S
C365   C375    1.435   .     S
C366   C997    1.446   1_554 S
C367   C996    1.446   .     S
C369   C380    1.397   .     A
C370   H387    1.109   .     S
C370   O418    1.409   .     S
C370   H386    1.115   .     S
C370   H1015   1.110   1_554 S
C371   H389    1.115   .     S
C371   O408    1.409   .     S
C371   H390    1.109   .     S
C371   H1018   1.110   .     S
C372   H393    1.115   .     S
C372   O409    1.409   .     S
C372   H394    1.109   .     S
C372   H1021   1.110   .     S
C373   O414    1.286   .     A
C373   O417    1.286   .     A
C374   O410    1.409   .     S
C374   H396    1.115   .     S
C374   H397    1.109   .     S
C374   H1025   1.110   1_554 S
C375   O415    1.286   .     A
C375   O416    1.286   .     A
C376   H381    1.082   .     S
C376   N406    1.366   .     A
C377   H392    1.082   .     S
C377   N405    1.366   .     A
C377   C588    1.416   .     S
C378   N406    1.366   .     A
C378   H398    1.082   .     S
C379   H399    1.082   .     S
C379   N405    1.366   .     A
C379   C586    1.416   .     S
C380   H404    1.084   .     S
H385   C1000   1.110   .     S
H388   C1001   1.110   1_554 S
H391   C1002   1.110   1_554 S
H395   C1004   1.110   .     S
N405   Zn419   2.007   .     S
N406   Zn420   2.007   .     S
O407   Zn419   1.999   .     S
O411   Zn420   1.999   .     S
O412   Zn419   1.999   .     S
O413   Zn420   1.999   .     S
O414   Zn419   2.001   .     S
O415   Zn420   2.001   .     S
O416   Zn419   2.001   .     S
O417   Zn420   2.001   .     S
C421   O477    1.281   .     A
C421   O483    1.281   .     A
C421   C439    1.419   .     S
C422   C438    1.397   .     A
C422   H452    1.084   .     S
C422   C494    1.370   .     S
C423   C438    1.397   .     A
C423   H453    1.084   .     S
C423   C520    1.370   .     S
C424   C439    1.397   .     A
C424   H454    1.084   .     S
C424   C562    1.370   1_455 S
C425   C429    1.384   .     A
C425   O488    1.383   .     S
C425   C436    1.409   .     A
C426   C430    1.384   .     A
C426   O478    1.383   .     S
C426   C437    1.409   .     A
C427   C431    1.384   .     A
C427   O479    1.383   .     S
C427   C437    1.409   .     A
C428   C433    1.384   .     A
C428   C436    1.409   .     A
C428   O480    1.383   .     S
C429   C434    1.395   .     A
C429   H470    1.084   .     S
C430   C435    1.396   .     A
C430   H471    1.084   .     S
C431   H472    1.084   .     S
C431   C435    1.395   .     A
C432   O481    1.281   .     A
C432   C438    1.419   .     S
C432   O482    1.281   .     A
C433   H473    1.084   .     S
C433   C434    1.396   .     A
C434   C443    1.435   .     S
C435   C445    1.435   .     S
C436   C1067   1.446   1_554 S
C437   C1066   1.446   .     S
C439   C450    1.397   .     A
C440   H457    1.109   .     S
C440   O488    1.409   .     S
C440   H456    1.115   .     S
C440   H1085   1.110   1_554 S
C441   H459    1.115   .     S
C441   O478    1.409   .     S
C441   H460    1.109   .     S
C441   H1088   1.110   .     S
C442   H463    1.115   .     S
C442   O479    1.409   .     S
C442   H464    1.109   .     S
C442   H1091   1.110   .     S
C443   O484    1.286   .     A
C443   O487    1.286   .     A
C444   O480    1.409   .     S
C444   H466    1.115   .     S
C444   H467    1.109   .     S
C444   H1095   1.110   1_554 S
C445   O485    1.286   .     A
C445   O486    1.286   .     A
C446   H451    1.082   .     S
C446   N476    1.366   .     A
C447   H462    1.082   .     S
C447   N475    1.366   .     A
C447   C28     1.416   1_565 S
C448   N476    1.366   .     A
C448   H468    1.082   .     S
C449   H469    1.082   .     S
C449   N475    1.366   .     A
C449   C26     1.416   1_565 S
C450   H474    1.084   .     S
C450   C563    1.370   1_455 S
H455   C1070   1.110   .     S
H458   C1071   1.110   1_554 S
H461   C1072   1.110   1_554 S
H465   C1074   1.110   .     S
N475   Zn489   2.007   .     S
N476   Zn490   2.007   .     S
O477   Zn489   1.999   .     S
O481   Zn490   1.999   .     S
O482   Zn489   1.999   .     S
O483   Zn490   1.999   .     S
O484   Zn489   2.001   .     S
O485   Zn490   2.001   .     S
O486   Zn489   2.001   .     S
O487   Zn490   2.001   .     S
C491   O547    1.281   .     A
C491   O553    1.281   .     A
C491   C509    1.419   .     S
C492   C508    1.397   .     A
C492   H522    1.084   .     S
C492   C564    1.370   .     S
C493   C508    1.397   .     A
C493   H523    1.084   .     S
C493   C590    1.370   .     S
C494   C509    1.397   .     A
C494   H524    1.084   .     S
C495   C499    1.384   .     A
C495   O558    1.383   .     S
C495   C506    1.409   .     A
C496   C500    1.384   .     A
C496   O548    1.383   .     S
C496   C507    1.409   .     A
C497   C501    1.384   .     A
C497   O549    1.383   .     S
C497   C507    1.409   .     A
C498   C503    1.384   .     A
C498   C506    1.409   .     A
C498   O550    1.383   .     S
C499   C504    1.395   .     A
C499   H540    1.084   .     S
C500   C505    1.396   .     A
C500   H541    1.084   .     S
C501   H542    1.084   .     S
C501   C505    1.395   .     A
C502   O551    1.281   .     A
C502   C508    1.419   .     S
C502   O552    1.281   .     A
C503   H543    1.084   .     S
C503   C504    1.396   .     A
C504   C513    1.435   .     S
C505   C515    1.435   .     S
C506   C1137   1.446   1_554 S
C507   C1136   1.446   .     S
C509   C520    1.397   .     A
C510   H527    1.109   .     S
C510   O558    1.409   .     S
C510   H526    1.115   .     S
C510   H1155   1.110   1_554 S
C511   H529    1.115   .     S
C511   O548    1.409   .     S
C511   H530    1.109   .     S
C511   H1158   1.110   .     S
C512   H533    1.115   .     S
C512   O549    1.409   .     S
C512   H534    1.109   .     S
C512   H1161   1.110   .     S
C513   O554    1.286   .     A
C513   O557    1.286   .     A
C514   O550    1.409   .     S
C514   H536    1.115   .     S
C514   H537    1.109   .     S
C514   H1165   1.110   1_554 S
C515   O555    1.286   .     A
C515   O556    1.286   .     A
C516   H521    1.082   .     S
C516   N546    1.366   .     A
C517   H532    1.082   .     S
C517   N545    1.366   .     A
C517   C98     1.416   1_565 S
C518   N546    1.366   .     A
C518   H538    1.082   .     S
C519   H539    1.082   .     S
C519   N545    1.366   .     A
C519   C96     1.416   1_565 S
C520   H544    1.084   .     S
H525   C1140   1.110   .     S
H528   C1141   1.110   1_554 S
H531   C1142   1.110   1_554 S
H535   C1144   1.110   .     S
N545   Zn559   2.007   .     S
N546   Zn560   2.007   .     S
O547   Zn559   1.999   .     S
O551   Zn560   1.999   .     S
O552   Zn559   1.999   .     S
O553   Zn560   1.999   .     S
O554   Zn559   2.001   .     S
O555   Zn560   2.001   .     S
O556   Zn559   2.001   .     S
O557   Zn560   2.001   .     S
C561   O617    1.281   .     A
C561   O623    1.281   .     A
C561   C579    1.419   .     S
C562   C578    1.397   .     A
C562   H592    1.084   .     S
C562   C424    1.370   1_655 S
C563   C578    1.397   .     A
C563   H593    1.084   .     S
C563   C450    1.370   1_655 S
C564   C579    1.397   .     A
C564   H594    1.084   .     S
C565   C569    1.384   .     A
C565   O628    1.383   .     S
C565   C576    1.409   .     A
C566   C570    1.384   .     A
C566   O618    1.383   .     S
C566   C577    1.409   .     A
C567   C571    1.384   .     A
C567   O619    1.383   .     S
C567   C577    1.409   .     A
C568   C573    1.384   .     A
C568   C576    1.409   .     A
C568   O620    1.383   .     S
C569   C574    1.395   .     A
C569   H610    1.084   .     S
C570   C575    1.396   .     A
C570   H611    1.084   .     S
C571   H612    1.084   .     S
C571   C575    1.395   .     A
C572   O621    1.281   .     A
C572   C578    1.419   .     S
C572   O622    1.281   .     A
C573   H613    1.084   .     S
C573   C574    1.396   .     A
C574   C583    1.435   .     S
C575   C585    1.435   .     S
C576   C1207   1.446   1_554 S
C577   C1206   1.446   .     S
C579   C590    1.397   .     A
C580   H597    1.109   .     S
C580   O628    1.409   .     S
C580   H596    1.115   .     S
C580   H1225   1.110   1_554 S
C581   H599    1.115   .     S
C581   O618    1.409   .     S
C581   H600    1.109   .     S
C581   H1228   1.110   .     S
C582   H603    1.115   .     S
C582   O619    1.409   .     S
C582   H604    1.109   .     S
C582   H1231   1.110   .     S
C583   O624    1.286   .     A
C583   O627    1.286   .     A
C584   O620    1.409   .     S
C584   H606    1.115   .     S
C584   H607    1.109   .     S
C584   H1235   1.110   1_554 S
C585   O625    1.286   .     A
C585   O626    1.286   .     A
C586   H591    1.082   .     S
C586   N616    1.366   .     A
C587   H602    1.082   .     S
C587   N615    1.366   .     A
C587   C168    1.416   1_565 S
C588   N616    1.366   .     A
C588   H608    1.082   .     S
C589   H609    1.082   .     S
C589   N615    1.366   .     A
C589   C166    1.416   1_565 S
C590   H614    1.084   .     S
H595   C1210   1.110   .     S
H598   C1211   1.110   1_554 S
H601   C1212   1.110   1_554 S
H605   C1214   1.110   .     S
N615   Zn629   2.007   .     S
N616   Zn630   2.007   .     S
O617   Zn629   1.999   .     S
O621   Zn630   1.999   .     S
O622   Zn629   1.999   .     S
O623   Zn630   1.999   .     S
O624   Zn629   2.001   .     S
O625   Zn630   2.001   .     S
O626   Zn629   2.001   .     S
O627   Zn630   2.001   .     S
C631   O687    1.281   .     A
C631   O693    1.281   .     A
C631   C649    1.419   .     S
C632   C648    1.397   .     A
C632   H662    1.084   .     S
C632   C704    1.370   .     S
C633   C648    1.397   .     A
C633   H663    1.084   .     S
C633   C730    1.370   .     S
C634   C649    1.397   .     A
C634   H664    1.084   .     S
C634   C772    1.370   1_455 S
C635   C639    1.384   .     A
C635   O698    1.383   .     S
C635   C646    1.409   .     A
C636   C640    1.384   .     A
C636   O688    1.383   .     S
C636   C647    1.409   .     A
C637   C641    1.384   .     A
C637   O689    1.383   .     S
C637   C647    1.409   .     A
C638   C643    1.384   .     A
C638   C646    1.409   .     A
C638   O690    1.383   .     S
C639   C644    1.395   .     A
C639   H680    1.084   .     S
C640   C645    1.396   .     A
C640   H681    1.084   .     S
C641   H682    1.084   .     S
C641   C645    1.395   .     A
C642   O691    1.281   .     A
C642   C648    1.419   .     S
C642   O692    1.281   .     A
C643   H683    1.084   .     S
C643   C644    1.396   .     A
C644   C653    1.435   .     S
C645   C655    1.435   .     S
C647   C16     1.446   1_556 S
C649   C660    1.397   .     A
C650   H667    1.109   .     S
C650   O698    1.409   .     S
C650   H666    1.115   .     S
C651   H669    1.115   .     S
C651   O688    1.409   .     S
C651   H670    1.109   .     S
C651   H38     1.110   1_556 S
C652   H673    1.115   .     S
C652   O689    1.409   .     S
C652   H674    1.109   .     S
C652   H41     1.110   1_556 S
C653   O694    1.286   .     A
C653   O697    1.286   .     A
C654   O690    1.409   .     S
C654   H676    1.115   .     S
C654   H677    1.109   .     S
C655   O695    1.286   .     A
C655   O696    1.286   .     A
C656   H661    1.082   .     S
C656   N686    1.366   .     A
C656   C1079   1.416   1_545 S
C657   H672    1.082   .     S
C657   N685    1.366   .     A
C657   C868    1.416   .     S
C658   N686    1.366   .     A
C658   H678    1.082   .     S
C658   C1077   1.416   1_545 S
C659   H679    1.082   .     S
C659   N685    1.366   .     A
C659   C866    1.416   .     S
C660   H684    1.084   .     S
C660   C773    1.370   1_455 S
H665   C20     1.110   1_556 S
H675   C24     1.110   1_556 S
N685   Zn699   2.007   .     S
N686   Zn700   2.007   .     S
O687   Zn699   1.999   .     S
O691   Zn700   1.999   .     S
O692   Zn699   1.999   .     S
O693   Zn700   1.999   .     S
O694   Zn699   2.001   .     S
O695   Zn700   2.001   .     S
O696   Zn699   2.001   .     S
O697   Zn700   2.001   .     S
C701   O757    1.281   .     A
C701   O763    1.281   .     A
C701   C719    1.419   .     S
C702   C718    1.397   .     A
C702   H732    1.084   .     S
C702   C774    1.370   .     S
C703   C718    1.397   .     A
C703   H733    1.084   .     S
C703   C800    1.370   .     S
C704   C719    1.397   .     A
C704   H734    1.084   .     S
C705   C709    1.384   .     A
C705   O768    1.383   .     S
C705   C716    1.409   .     A
C706   C710    1.384   .     A
C706   O758    1.383   .     S
C706   C717    1.409   .     A
C707   C711    1.384   .     A
C707   O759    1.383   .     S
C707   C717    1.409   .     A
C708   C713    1.384   .     A
C708   C716    1.409   .     A
C708   O760    1.383   .     S
C709   C714    1.395   .     A
C709   H750    1.084   .     S
C710   C715    1.396   .     A
C710   H751    1.084   .     S
C711   H752    1.084   .     S
C711   C715    1.395   .     A
C712   O761    1.281   .     A
C712   C718    1.419   .     S
C712   O762    1.281   .     A
C713   H753    1.084   .     S
C713   C714    1.396   .     A
C714   C723    1.435   .     S
C715   C725    1.435   .     S
C717   C86     1.446   1_556 S
C719   C730    1.397   .     A
C720   H737    1.109   .     S
C720   O768    1.409   .     S
C720   H736    1.115   .     S
C721   H739    1.115   .     S
C721   O758    1.409   .     S
C721   H740    1.109   .     S
C721   H108    1.110   1_556 S
C722   H743    1.115   .     S
C722   O759    1.409   .     S
C722   H744    1.109   .     S
C722   H111    1.110   1_556 S
C723   O764    1.286   .     A
C723   O767    1.286   .     A
C724   O760    1.409   .     S
C724   H746    1.115   .     S
C724   H747    1.109   .     S
C725   O765    1.286   .     A
C725   O766    1.286   .     A
C726   H731    1.082   .     S
C726   N756    1.366   .     A
C726   C1149   1.416   1_545 S
C727   H742    1.082   .     S
C727   N755    1.366   .     A
C727   C938    1.416   .     S
C728   N756    1.366   .     A
C728   H748    1.082   .     S
C728   C1147   1.416   1_545 S
C729   H749    1.082   .     S
C729   N755    1.366   .     A
C729   C936    1.416   .     S
C730   H754    1.084   .     S
H735   C90     1.110   1_556 S
H745   C94     1.110   1_556 S
N755   Zn769   2.007   .     S
N756   Zn770   2.007   .     S
O757   Zn769   1.999   .     S
O761   Zn770   1.999   .     S
O762   Zn769   1.999   .     S
O763   Zn770   1.999   .     S
O764   Zn769   2.001   .     S
O765   Zn770   2.001   .     S
O766   Zn769   2.001   .     S
O767   Zn770   2.001   .     S
C771   O827    1.281   .     A
C771   O833    1.281   .     A
C771   C789    1.419   .     S
C772   C788    1.397   .     A
C772   H802    1.084   .     S
C772   C634    1.370   1_655 S
C773   C788    1.397   .     A
C773   H803    1.084   .     S
C773   C660    1.370   1_655 S
C774   C789    1.397   .     A
C774   H804    1.084   .     S
C775   C779    1.384   .     A
C775   O838    1.383   .     S
C775   C786    1.409   .     A
C776   C780    1.384   .     A
C776   O828    1.383   .     S
C776   C787    1.409   .     A
C777   C781    1.384   .     A
C777   O829    1.383   .     S
C777   C787    1.409   .     A
C778   C783    1.384   .     A
C778   C786    1.409   .     A
C778   O830    1.383   .     S
C779   C784    1.395   .     A
C779   H820    1.084   .     S
C780   C785    1.396   .     A
C780   H821    1.084   .     S
C781   H822    1.084   .     S
C781   C785    1.395   .     A
C782   O831    1.281   .     A
C782   C788    1.419   .     S
C782   O832    1.281   .     A
C783   H823    1.084   .     S
C783   C784    1.396   .     A
C784   C793    1.435   .     S
C785   C795    1.435   .     S
C787   C156    1.446   1_556 S
C789   C800    1.397   .     A
C790   H807    1.109   .     S
C790   O838    1.409   .     S
C790   H806    1.115   .     S
C791   H809    1.115   .     S
C791   O828    1.409   .     S
C791   H810    1.109   .     S
C791   H178    1.110   1_556 S
C792   H813    1.115   .     S
C792   O829    1.409   .     S
C792   H814    1.109   .     S
C792   H181    1.110   1_556 S
C793   O834    1.286   .     A
C793   O837    1.286   .     A
C794   O830    1.409   .     S
C794   H816    1.115   .     S
C794   H817    1.109   .     S
C795   O835    1.286   .     A
C795   O836    1.286   .     A
C796   H801    1.082   .     S
C796   N826    1.366   .     A
C796   C1219   1.416   1_545 S
C797   H812    1.082   .     S
C797   N825    1.366   .     A
C797   C1008   1.416   .     S
C798   N826    1.366   .     A
C798   H818    1.082   .     S
C798   C1217   1.416   1_545 S
C799   H819    1.082   .     S
C799   N825    1.366   .     A
C799   C1006   1.416   .     S
C800   H824    1.084   .     S
H805   C160    1.110   1_556 S
H815   C164    1.110   1_556 S
N825   Zn839   2.007   .     S
N826   Zn840   2.007   .     S
O827   Zn839   1.999   .     S
O831   Zn840   1.999   .     S
O832   Zn839   1.999   .     S
O833   Zn840   1.999   .     S
O834   Zn839   2.001   .     S
O835   Zn840   2.001   .     S
O836   Zn839   2.001   .     S
O837   Zn840   2.001   .     S
C841   O897    1.281   .     A
C841   O903    1.281   .     A
C841   C859    1.419   .     S
C842   C858    1.397   .     A
C842   H872    1.084   .     S
C842   C914    1.370   .     S
C843   C858    1.397   .     A
C843   H873    1.084   .     S
C843   C940    1.370   .     S
C844   C859    1.397   .     A
C844   H874    1.084   .     S
C844   C982    1.370   1_455 S
C845   C849    1.384   .     A
C845   O908    1.383   .     S
C845   C856    1.409   .     A
C846   C850    1.384   .     A
C846   O898    1.383   .     S
C846   C857    1.409   .     A
C847   C851    1.384   .     A
C847   O899    1.383   .     S
C847   C857    1.409   .     A
C848   C853    1.384   .     A
C848   C856    1.409   .     A
C848   O900    1.383   .     S
C849   C854    1.395   .     A
C849   H890    1.084   .     S
C850   C855    1.396   .     A
C850   H891    1.084   .     S
C851   H892    1.084   .     S
C851   C855    1.395   .     A
C852   O901    1.281   .     A
C852   C858    1.419   .     S
C852   O902    1.281   .     A
C853   H893    1.084   .     S
C853   C854    1.396   .     A
C854   C863    1.435   .     S
C855   C865    1.435   .     S
C857   C226    1.446   1_556 S
C859   C870    1.397   .     A
C860   H877    1.109   .     S
C860   O908    1.409   .     S
C860   H876    1.115   .     S
C861   H879    1.115   .     S
C861   O898    1.409   .     S
C861   H880    1.109   .     S
C861   H248    1.110   1_556 S
C862   H883    1.115   .     S
C862   O899    1.409   .     S
C862   H884    1.109   .     S
C862   H251    1.110   1_556 S
C863   O904    1.286   .     A
C863   O907    1.286   .     A
C864   O900    1.409   .     S
C864   H886    1.115   .     S
C864   H887    1.109   .     S
C865   O905    1.286   .     A
C865   O906    1.286   .     A
C866   H871    1.082   .     S
C866   N896    1.366   .     A
C867   H882    1.082   .     S
C867   N895    1.366   .     A
C867   C1078   1.416   .     S
C868   N896    1.366   .     A
C868   H888    1.082   .     S
C869   H889    1.082   .     S
C869   N895    1.366   .     A
C869   C1076   1.416   .     S
C870   H894    1.084   .     S
C870   C983    1.370   1_455 S
H875   C230    1.110   1_556 S
H885   C234    1.110   1_556 S
N895   Zn909   2.007   .     S
N896   Zn910   2.007   .     S
O897   Zn909   1.999   .     S
O901   Zn910   1.999   .     S
O902   Zn909   1.999   .     S
O903   Zn910   1.999   .     S
O904   Zn909   2.001   .     S
O905   Zn910   2.001   .     S
O906   Zn909   2.001   .     S
O907   Zn910   2.001   .     S
C911   O967    1.281   .     A
C911   O973    1.281   .     A
C911   C929    1.419   .     S
C912   C928    1.397   .     A
C912   H942    1.084   .     S
C912   C984    1.370   .     S
C913   C928    1.397   .     A
C913   H943    1.084   .     S
C913   C1010   1.370   .     S
C914   C929    1.397   .     A
C914   H944    1.084   .     S
C915   C919    1.384   .     A
C915   O978    1.383   .     S
C915   C926    1.409   .     A
C916   C920    1.384   .     A
C916   O968    1.383   .     S
C916   C927    1.409   .     A
C917   C921    1.384   .     A
C917   O969    1.383   .     S
C917   C927    1.409   .     A
C918   C923    1.384   .     A
C918   C926    1.409   .     A
C918   O970    1.383   .     S
C919   C924    1.395   .     A
C919   H960    1.084   .     S
C920   C925    1.396   .     A
C920   H961    1.084   .     S
C921   H962    1.084   .     S
C921   C925    1.395   .     A
C922   O971    1.281   .     A
C922   C928    1.419   .     S
C922   O972    1.281   .     A
C923   H963    1.084   .     S
C923   C924    1.396   .     A
C924   C933    1.435   .     S
C925   C935    1.435   .     S
C927   C296    1.446   1_556 S
C929   C940    1.397   .     A
C930   H947    1.109   .     S
C930   O978    1.409   .     S
C930   H946    1.115   .     S
C931   H949    1.115   .     S
C931   O968    1.409   .     S
C931   H950    1.109   .     S
C931   H318    1.110   1_556 S
C932   H953    1.115   .     S
C932   O969    1.409   .     S
C932   H954    1.109   .     S
C932   H321    1.110   1_556 S
C933   O974    1.286   .     A
C933   O977    1.286   .     A
C934   O970    1.409   .     S
C934   H956    1.115   .     S
C934   H957    1.109   .     S
C935   O975    1.286   .     A
C935   O976    1.286   .     A
C936   H941    1.082   .     S
C936   N966    1.366   .     A
C937   H952    1.082   .     S
C937   N965    1.366   .     A
C937   C1148   1.416   .     S
C938   N966    1.366   .     A
C938   H958    1.082   .     S
C939   H959    1.082   .     S
C939   N965    1.366   .     A
C939   C1146   1.416   .     S
C940   H964    1.084   .     S
H945   C300    1.110   1_556 S
H955   C304    1.110   1_556 S
N965   Zn979   2.007   .     S
N966   Zn980   2.007   .     S
O967   Zn979   1.999   .     S
O971   Zn980   1.999   .     S
O972   Zn979   1.999   .     S
O973   Zn980   1.999   .     S
O974   Zn979   2.001   .     S
O975   Zn980   2.001   .     S
O976   Zn979   2.001   .     S
O977   Zn980   2.001   .     S
C981   O1037   1.281   .     A
C981   O1043   1.281   .     A
C981   C999    1.419   .     S
C982   C998    1.397   .     A
C982   H1012   1.084   .     S
C982   C844    1.370   1_655 S
C983   C998    1.397   .     A
C983   H1013   1.084   .     S
C983   C870    1.370   1_655 S
C984   C999    1.397   .     A
C984   H1014   1.084   .     S
C985   C989    1.384   .     A
C985   O1048   1.383   .     S
C985   C996    1.409   .     A
C986   C990    1.384   .     A
C986   O1038   1.383   .     S
C986   C997    1.409   .     A
C987   C991    1.384   .     A
C987   O1039   1.383   .     S
C987   C997    1.409   .     A
C988   C993    1.384   .     A
C988   C996    1.409   .     A
C988   O1040   1.383   .     S
C989   C994    1.395   .     A
C989   H1030   1.084   .     S
C990   C995    1.396   .     A
C990   H1031   1.084   .     S
C991   H1032   1.084   .     S
C991   C995    1.395   .     A
C992   O1041   1.281   .     A
C992   C998    1.419   .     S
C992   O1042   1.281   .     A
C993   H1033   1.084   .     S
C993   C994    1.396   .     A
C994   C1003   1.435   .     S
C995   C1005   1.435   .     S
C997   C366    1.446   1_556 S
C999   C1010   1.397   .     A
C1000  H1017   1.109   .     S
C1000  O1048   1.409   .     S
C1000  H1016   1.115   .     S
C1001  H1019   1.115   .     S
C1001  O1038   1.409   .     S
C1001  H1020   1.109   .     S
C1001  H388    1.110   1_556 S
C1002  H1023   1.115   .     S
C1002  O1039   1.409   .     S
C1002  H1024   1.109   .     S
C1002  H391    1.110   1_556 S
C1003  O1044   1.286   .     A
C1003  O1047   1.286   .     A
C1004  O1040   1.409   .     S
C1004  H1026   1.115   .     S
C1004  H1027   1.109   .     S
C1005  O1045   1.286   .     A
C1005  O1046   1.286   .     A
C1006  H1011   1.082   .     S
C1006  N1036   1.366   .     A
C1007  H1022   1.082   .     S
C1007  N1035   1.366   .     A
C1007  C1218   1.416   .     S
C1008  N1036   1.366   .     A
C1008  H1028   1.082   .     S
C1009  H1029   1.082   .     S
C1009  N1035   1.366   .     A
C1009  C1216   1.416   .     S
C1010  H1034   1.084   .     S
H1015  C370    1.110   1_556 S
H1025  C374    1.110   1_556 S
N1035  Zn1049  2.007   .     S
N1036  Zn1050  2.007   .     S
O1037  Zn1049  1.999   .     S
O1041  Zn1050  1.999   .     S
O1042  Zn1049  1.999   .     S
O1043  Zn1050  1.999   .     S
O1044  Zn1049  2.001   .     S
O1045  Zn1050  2.001   .     S
O1046  Zn1049  2.001   .     S
O1047  Zn1050  2.001   .     S
C1051  O1107   1.281   .     A
C1051  O1113   1.281   .     A
C1051  C1069   1.419   .     S
C1052  C1068   1.397   .     A
C1052  H1082   1.084   .     S
C1052  C1124   1.370   .     S
C1053  C1068   1.397   .     A
C1053  H1083   1.084   .     S
C1053  C1150   1.370   .     S
C1054  C1069   1.397   .     A
C1054  H1084   1.084   .     S
C1054  C1192   1.370   1_455 S
C1055  C1059   1.384   .     A
C1055  O1118   1.383   .     S
C1055  C1066   1.409   .     A
C1056  C1060   1.384   .     A
C1056  O1108   1.383   .     S
C1056  C1067   1.409   .     A
C1057  C1061   1.384   .     A
C1057  O1109   1.383   .     S
C1057  C1067   1.409   .     A
C1058  C1063   1.384   .     A
C1058  C1066   1.409   .     A
C1058  O1110   1.383   .     S
C1059  C1064   1.395   .     A
C1059  H1100   1.084   .     S
C1060  C1065   1.396   .     A
C1060  H1101   1.084   .     S
C1061  H1102   1.084   .     S
C1061  C1065   1.395   .     A
C1062  O1111   1.281   .     A
C1062  C1068   1.419   .     S
C1062  O1112   1.281   .     A
C1063  H1103   1.084   .     S
C1063  C1064   1.396   .     A
C1064  C1073   1.435   .     S
C1065  C1075   1.435   .     S
C1067  C436    1.446   1_556 S
C1069  C1080   1.397   .     A
C1070  H1087   1.109   .     S
C1070  O1118   1.409   .     S
C1070  H1086   1.115   .     S
C1071  H1089   1.115   .     S
C1071  O1108   1.409   .     S
C1071  H1090   1.109   .     S
C1071  H458    1.110   1_556 S
C1072  H1093   1.115   .     S
C1072  O1109   1.409   .     S
C1072  H1094   1.109   .     S
C1072  H461    1.110   1_556 S
C1073  O1114   1.286   .     A
C1073  O1117   1.286   .     A
C1074  O1110   1.409   .     S
C1074  H1096   1.115   .     S
C1074  H1097   1.109   .     S
C1075  O1115   1.286   .     A
C1075  O1116   1.286   .     A
C1076  H1081   1.082   .     S
C1076  N1106   1.366   .     A
C1077  H1092   1.082   .     S
C1077  N1105   1.366   .     A
C1077  C658    1.416   1_565 S
C1078  N1106   1.366   .     A
C1078  H1098   1.082   .     S
C1079  H1099   1.082   .     S
C1079  N1105   1.366   .     A
C1079  C656    1.416   1_565 S
C1080  H1104   1.084   .     S
C1080  C1193   1.370   1_455 S
H1085  C440    1.110   1_556 S
H1095  C444    1.110   1_556 S
N1105  Zn1119  2.007   .     S
N1106  Zn1120  2.007   .     S
O1107  Zn1119  1.999   .     S
O1111  Zn1120  1.999   .     S
O1112  Zn1119  1.999   .     S
O1113  Zn1120  1.999   .     S
O1114  Zn1119  2.001   .     S
O1115  Zn1120  2.001   .     S
O1116  Zn1119  2.001   .     S
O1117  Zn1120  2.001   .     S
C1121  O1177   1.281   .     A
C1121  O1183   1.281   .     A
C1121  C1139   1.419   .     S
C1122  C1138   1.397   .     A
C1122  H1152   1.084   .     S
C1122  C1194   1.370   .     S
C1123  C1138   1.397   .     A
C1123  H1153   1.084   .     S
C1123  C1220   1.370   .     S
C1124  C1139   1.397   .     A
C1124  H1154   1.084   .     S
C1125  C1129   1.384   .     A
C1125  O1188   1.383   .     S
C1125  C1136   1.409   .     A
C1126  C1130   1.384   .     A
C1126  O1178   1.383   .     S
C1126  C1137   1.409   .     A
C1127  C1131   1.384   .     A
C1127  O1179   1.383   .     S
C1127  C1137   1.409   .     A
C1128  C1133   1.384   .     A
C1128  C1136   1.409   .     A
C1128  O1180   1.383   .     S
C1129  C1134   1.395   .     A
C1129  H1170   1.084   .     S
C1130  C1135   1.396   .     A
C1130  H1171   1.084   .     S
C1131  H1172   1.084   .     S
C1131  C1135   1.395   .     A
C1132  O1181   1.281   .     A
C1132  C1138   1.419   .     S
C1132  O1182   1.281   .     A
C1133  H1173   1.084   .     S
C1133  C1134   1.396   .     A
C1134  C1143   1.435   .     S
C1135  C1145   1.435   .     S
C1137  C506    1.446   1_556 S
C1139  C1150   1.397   .     A
C1140  H1157   1.109   .     S
C1140  O1188   1.409   .     S
C1140  H1156   1.115   .     S
C1141  H1159   1.115   .     S
C1141  O1178   1.409   .     S
C1141  H1160   1.109   .     S
C1141  H528    1.110   1_556 S
C1142  H1163   1.115   .     S
C1142  O1179   1.409   .     S
C1142  H1164   1.109   .     S
C1142  H531    1.110   1_556 S
C1143  O1184   1.286   .     A
C1143  O1187   1.286   .     A
C1144  O1180   1.409   .     S
C1144  H1166   1.115   .     S
C1144  H1167   1.109   .     S
C1145  O1185   1.286   .     A
C1145  O1186   1.286   .     A
C1146  H1151   1.082   .     S
C1146  N1176   1.366   .     A
C1147  H1162   1.082   .     S
C1147  N1175   1.366   .     A
C1147  C728    1.416   1_565 S
C1148  N1176   1.366   .     A
C1148  H1168   1.082   .     S
C1149  H1169   1.082   .     S
C1149  N1175   1.366   .     A
C1149  C726    1.416   1_565 S
C1150  H1174   1.084   .     S
H1155  C510    1.110   1_556 S
H1165  C514    1.110   1_556 S
N1175  Zn1189  2.007   .     S
N1176  Zn1190  2.007   .     S
O1177  Zn1189  1.999   .     S
O1181  Zn1190  1.999   .     S
O1182  Zn1189  1.999   .     S
O1183  Zn1190  1.999   .     S
O1184  Zn1189  2.001   .     S
O1185  Zn1190  2.001   .     S
O1186  Zn1189  2.001   .     S
O1187  Zn1190  2.001   .     S
C1191  O1247   1.281   .     A
C1191  O1253   1.281   .     A
C1191  C1209   1.419   .     S
C1192  C1208   1.397   .     A
C1192  H1222   1.084   .     S
C1192  C1054   1.370   1_655 S
C1193  C1208   1.397   .     A
C1193  H1223   1.084   .     S
C1193  C1080   1.370   1_655 S
C1194  C1209   1.397   .     A
C1194  H1224   1.084   .     S
C1195  C1199   1.384   .     A
C1195  O1258   1.383   .     S
C1195  C1206   1.409   .     A
C1196  C1200   1.384   .     A
C1196  O1248   1.383   .     S
C1196  C1207   1.409   .     A
C1197  C1201   1.384   .     A
C1197  O1249   1.383   .     S
C1197  C1207   1.409   .     A
C1198  C1203   1.384   .     A
C1198  C1206   1.409   .     A
C1198  O1250   1.383   .     S
C1199  C1204   1.395   .     A
C1199  H1240   1.084   .     S
C1200  C1205   1.396   .     A
C1200  H1241   1.084   .     S
C1201  H1242   1.084   .     S
C1201  C1205   1.395   .     A
C1202  O1251   1.281   .     A
C1202  C1208   1.419   .     S
C1202  O1252   1.281   .     A
C1203  H1243   1.084   .     S
C1203  C1204   1.396   .     A
C1204  C1213   1.435   .     S
C1205  C1215   1.435   .     S
C1207  C576    1.446   1_556 S
C1209  C1220   1.397   .     A
C1210  H1227   1.109   .     S
C1210  O1258   1.409   .     S
C1210  H1226   1.115   .     S
C1211  H1229   1.115   .     S
C1211  O1248   1.409   .     S
C1211  H1230   1.109   .     S
C1211  H598    1.110   1_556 S
C1212  H1233   1.115   .     S
C1212  O1249   1.409   .     S
C1212  H1234   1.109   .     S
C1212  H601    1.110   1_556 S
C1213  O1254   1.286   .     A
C1213  O1257   1.286   .     A
C1214  O1250   1.409   .     S
C1214  H1236   1.115   .     S
C1214  H1237   1.109   .     S
C1215  O1255   1.286   .     A
C1215  O1256   1.286   .     A
C1216  H1221   1.082   .     S
C1216  N1246   1.366   .     A
C1217  H1232   1.082   .     S
C1217  N1245   1.366   .     A
C1217  C798    1.416   1_565 S
C1218  N1246   1.366   .     A
C1218  H1238   1.082   .     S
C1219  H1239   1.082   .     S
C1219  N1245   1.366   .     A
C1219  C796    1.416   1_565 S
C1220  H1244   1.084   .     S
H1225  C580    1.110   1_556 S
H1235  C584    1.110   1_556 S
N1245  Zn1259  2.007   .     S
N1246  Zn1260  2.007   .     S
O1247  Zn1259  1.999   .     S
O1251  Zn1260  1.999   .     S
O1252  Zn1259  1.999   .     S
O1253  Zn1260  1.999   .     S
O1254  Zn1259  2.001   .     S
O1255  Zn1260  2.001   .     S
O1256  Zn1259  2.001   .     S
O1257  Zn1260  2.001   .     S
