data_str_m3_o2_o5_pcu_sym.89
_audit_creation_date              2020-01-03
_audit_creation_method            'Materials Studio'
_symmetry_space_group_name_H-M    'P1'
_symmetry_Int_Tables_number       1
_symmetry_cell_setting            triclinic
loop_
_symmetry_equiv_pos_as_xyz
  x,y,z
_cell_length_a                    29.8862
_cell_length_b                    28.3825
_cell_length_c                    26.7246
_cell_angle_alpha                 90.0013
_cell_angle_beta                  90.0323
_cell_angle_gamma                 90.0007
loop_
_atom_site_label
_atom_site_type_symbol
_atom_site_fract_x
_atom_site_fract_y
_atom_site_fract_z
_atom_site_U_iso_or_equiv
_atom_site_adp_type
_atom_site_occupancy
Br1    Br    0.12355   0.29341   0.06759   0.00000  Uiso   1.00
Br2    Br    0.37638   0.20665   0.06758   0.00000  Uiso   1.00
Br3    Br    0.37645   0.29344   0.26572   0.00000  Uiso   1.00
Br4    Br    0.12362   0.20667   0.26575   0.00000  Uiso   1.00
C5     C     0.16405   0.25000   0.16666   0.00000  Uiso   1.00
C6     C     0.22880   0.44735   0.12837   0.00000  Uiso   1.00
C7     C     0.24999   0.25000   0.07286   0.00000  Uiso   1.00
C8     C     0.25001   0.25000   0.26047   0.00000  Uiso   1.00
C9     C     0.25000   0.02667   0.16667   0.00000  Uiso   1.00
C10    C     0.25000   0.47330   0.16667   0.00000  Uiso   1.00
C11    C     0.24999   0.25001   0.02179   0.00000  Uiso   1.00
C12    C     0.25001   0.25001   0.31154   0.00000  Uiso   1.00
C13    C     0.04706   0.26863   0.12564   0.00000  Uiso   1.00
C14    C     0.45291   0.23143   0.12565   0.00000  Uiso   1.00
C15    C     0.45294   0.26864   0.20769   0.00000  Uiso   1.00
C16    C     0.33595   0.25000   0.16667   0.00000  Uiso   1.00
C17    C     0.04709   0.23144   0.20768   0.00000  Uiso   1.00
C18    C     0.09331   0.26878   0.12543   0.00000  Uiso   1.00
C19    C     0.40666   0.23124   0.12545   0.00000  Uiso   1.00
C20    C     0.40669   0.26879   0.20790   0.00000  Uiso   1.00
C21    C     0.09334   0.23125   0.20789   0.00000  Uiso   1.00
C22    C     0.11631   0.25000   0.16665   0.00000  Uiso   1.00
C23    C     0.38369   0.25000   0.16668   0.00000  Uiso   1.00
C24    C     0.02411   0.25004   0.16666   0.00000  Uiso   1.00
C25    C     0.47589   0.25004   0.16667   0.00000  Uiso   1.00
C26    C     0.21495   0.10221   0.14627   0.00000  Uiso   1.00
C27    C     0.27092   0.39776   0.20416   0.00000  Uiso   1.00
C28    C     0.28505   0.10221   0.18706   0.00000  Uiso   1.00
C29    C     0.22908   0.39776   0.12918   0.00000  Uiso   1.00
C30    C     0.21421   0.05262   0.14602   0.00000  Uiso   1.00
C31    C     0.27120   0.44735   0.20496   0.00000  Uiso   1.00
C32    C     0.28579   0.05263   0.18731   0.00000  Uiso   1.00
H33    H     0.18724   0.12151   0.13020   0.00000  Uiso   1.00
H34    H     0.28742   0.46506   0.23589   0.00000  Uiso   1.00
H35    H     0.31462   0.03492   0.20299   0.00000  Uiso   1.00
H36    H     0.21257   0.46506   0.09745   0.00000  Uiso   1.00
H37    H     0.28741   0.37843   0.23378   0.00000  Uiso   1.00
H38    H     0.31276   0.12151   0.20314   0.00000  Uiso   1.00
H39    H     0.21259   0.37842   0.09955   0.00000  Uiso   1.00
H40    H     0.02899   0.28318   0.09404   0.00000  Uiso   1.00
H41    H     0.47095   0.21688   0.09406   0.00000  Uiso   1.00
H42    H     0.47101   0.28320   0.23928   0.00000  Uiso   1.00
H43    H     0.02905   0.21690   0.23928   0.00000  Uiso   1.00
H44    H     0.18538   0.03491   0.13034   0.00000  Uiso   1.00
N45    N     0.25000   0.12623   0.16667   0.00000  Uiso   1.00
N46    N     0.25000   0.37377   0.16667   0.00000  Uiso   1.00
O47    O     0.18453   0.28974   0.16667   0.00000  Uiso   1.00
O48    O     0.31547   0.21026   0.16666   0.00000  Uiso   1.00
O49    O     0.31547   0.28974   0.16666   0.00000  Uiso   1.00
O50    O     0.18453   0.21026   0.16667   0.00000  Uiso   1.00
O51    O     0.25000   0.28973   0.09511   0.00000  Uiso   1.00
O52    O     0.25000   0.21027   0.23822   0.00000  Uiso   1.00
O53    O     0.25000   0.28973   0.23822   0.00000  Uiso   1.00
O54    O     0.25000   0.21027   0.09511   0.00000  Uiso   1.00
Zn55   Zn    0.25000   0.30307   0.16667   0.00000  Uiso   1.00
Zn56   Zn    0.25000   0.19693   0.16667   0.00000  Uiso   1.00
Br57   Br    0.62355   0.29341   0.06759   0.00000  Uiso   1.00
Br58   Br    0.87638   0.20665   0.06758   0.00000  Uiso   1.00
Br59   Br    0.87645   0.29344   0.26572   0.00000  Uiso   1.00
Br60   Br    0.62362   0.20667   0.26575   0.00000  Uiso   1.00
C61    C     0.66405   0.25000   0.16666   0.00000  Uiso   1.00
C62    C     0.72880   0.44735   0.12837   0.00000  Uiso   1.00
C63    C     0.74999   0.25000   0.07286   0.00000  Uiso   1.00
C64    C     0.75001   0.25000   0.26047   0.00000  Uiso   1.00
C65    C     0.75000   0.02667   0.16667   0.00000  Uiso   1.00
C66    C     0.75000   0.47330   0.16667   0.00000  Uiso   1.00
C67    C     0.74999   0.25001   0.02179   0.00000  Uiso   1.00
C68    C     0.75001   0.25001   0.31154   0.00000  Uiso   1.00
C69    C     0.54706   0.26863   0.12564   0.00000  Uiso   1.00
C70    C     0.95291   0.23143   0.12565   0.00000  Uiso   1.00
C71    C     0.95294   0.26864   0.20769   0.00000  Uiso   1.00
C72    C     0.83595   0.25000   0.16667   0.00000  Uiso   1.00
C73    C     0.54709   0.23144   0.20768   0.00000  Uiso   1.00
C74    C     0.59331   0.26878   0.12543   0.00000  Uiso   1.00
C75    C     0.90666   0.23124   0.12545   0.00000  Uiso   1.00
C76    C     0.90669   0.26879   0.20790   0.00000  Uiso   1.00
C77    C     0.59334   0.23125   0.20789   0.00000  Uiso   1.00
C78    C     0.61631   0.25000   0.16665   0.00000  Uiso   1.00
C79    C     0.88369   0.25000   0.16668   0.00000  Uiso   1.00
C80    C     0.52411   0.25004   0.16666   0.00000  Uiso   1.00
C81    C     0.97589   0.25004   0.16667   0.00000  Uiso   1.00
C82    C     0.71495   0.10221   0.14627   0.00000  Uiso   1.00
C83    C     0.77092   0.39776   0.20416   0.00000  Uiso   1.00
C84    C     0.78505   0.10221   0.18706   0.00000  Uiso   1.00
C85    C     0.72908   0.39776   0.12918   0.00000  Uiso   1.00
C86    C     0.71421   0.05262   0.14602   0.00000  Uiso   1.00
C87    C     0.77120   0.44735   0.20496   0.00000  Uiso   1.00
C88    C     0.78579   0.05263   0.18731   0.00000  Uiso   1.00
H89    H     0.68724   0.12151   0.13020   0.00000  Uiso   1.00
H90    H     0.78742   0.46506   0.23589   0.00000  Uiso   1.00
H91    H     0.81462   0.03492   0.20299   0.00000  Uiso   1.00
H92    H     0.71257   0.46506   0.09745   0.00000  Uiso   1.00
H93    H     0.78741   0.37843   0.23378   0.00000  Uiso   1.00
H94    H     0.81276   0.12151   0.20314   0.00000  Uiso   1.00
H95    H     0.71259   0.37842   0.09955   0.00000  Uiso   1.00
H96    H     0.52899   0.28318   0.09404   0.00000  Uiso   1.00
H97    H     0.97095   0.21688   0.09406   0.00000  Uiso   1.00
H98    H     0.97101   0.28320   0.23928   0.00000  Uiso   1.00
H99    H     0.52905   0.21690   0.23928   0.00000  Uiso   1.00
H100   H     0.68538   0.03491   0.13034   0.00000  Uiso   1.00
N101   N     0.75000   0.12623   0.16667   0.00000  Uiso   1.00
N102   N     0.75000   0.37377   0.16667   0.00000  Uiso   1.00
O103   O     0.68453   0.28974   0.16667   0.00000  Uiso   1.00
O104   O     0.81547   0.21026   0.16666   0.00000  Uiso   1.00
O105   O     0.81547   0.28974   0.16666   0.00000  Uiso   1.00
O106   O     0.68453   0.21026   0.16667   0.00000  Uiso   1.00
O107   O     0.75000   0.28973   0.09511   0.00000  Uiso   1.00
O108   O     0.75000   0.21027   0.23822   0.00000  Uiso   1.00
O109   O     0.75000   0.28973   0.23822   0.00000  Uiso   1.00
O110   O     0.75000   0.21027   0.09511   0.00000  Uiso   1.00
Zn111  Zn    0.75000   0.30307   0.16667   0.00000  Uiso   1.00
Zn112  Zn    0.75000   0.19693   0.16667   0.00000  Uiso   1.00
Br113  Br    0.12355   0.79341   0.06759   0.00000  Uiso   1.00
Br114  Br    0.37638   0.70665   0.06758   0.00000  Uiso   1.00
Br115  Br    0.37645   0.79344   0.26572   0.00000  Uiso   1.00
Br116  Br    0.12362   0.70667   0.26575   0.00000  Uiso   1.00
C117   C     0.16405   0.75000   0.16666   0.00000  Uiso   1.00
C118   C     0.22880   0.94735   0.12837   0.00000  Uiso   1.00
C119   C     0.24999   0.75000   0.07286   0.00000  Uiso   1.00
C120   C     0.25001   0.75000   0.26047   0.00000  Uiso   1.00
C121   C     0.25000   0.52667   0.16667   0.00000  Uiso   1.00
C122   C     0.25000   0.97330   0.16667   0.00000  Uiso   1.00
C123   C     0.24999   0.75001   0.02179   0.00000  Uiso   1.00
C124   C     0.25001   0.75001   0.31154   0.00000  Uiso   1.00
C125   C     0.04706   0.76863   0.12564   0.00000  Uiso   1.00
C126   C     0.45291   0.73143   0.12565   0.00000  Uiso   1.00
C127   C     0.45294   0.76864   0.20769   0.00000  Uiso   1.00
C128   C     0.33595   0.75000   0.16667   0.00000  Uiso   1.00
C129   C     0.04709   0.73144   0.20768   0.00000  Uiso   1.00
C130   C     0.09331   0.76878   0.12543   0.00000  Uiso   1.00
C131   C     0.40666   0.73124   0.12545   0.00000  Uiso   1.00
C132   C     0.40669   0.76879   0.20790   0.00000  Uiso   1.00
C133   C     0.09334   0.73125   0.20789   0.00000  Uiso   1.00
C134   C     0.11631   0.75000   0.16665   0.00000  Uiso   1.00
C135   C     0.38369   0.75000   0.16668   0.00000  Uiso   1.00
C136   C     0.02411   0.75004   0.16666   0.00000  Uiso   1.00
C137   C     0.47589   0.75004   0.16667   0.00000  Uiso   1.00
C138   C     0.21495   0.60221   0.14627   0.00000  Uiso   1.00
C139   C     0.27092   0.89776   0.20416   0.00000  Uiso   1.00
C140   C     0.28505   0.60221   0.18706   0.00000  Uiso   1.00
C141   C     0.22908   0.89776   0.12918   0.00000  Uiso   1.00
C142   C     0.21421   0.55262   0.14602   0.00000  Uiso   1.00
C143   C     0.27120   0.94735   0.20496   0.00000  Uiso   1.00
C144   C     0.28579   0.55263   0.18731   0.00000  Uiso   1.00
H145   H     0.18724   0.62151   0.13020   0.00000  Uiso   1.00
H146   H     0.28742   0.96506   0.23589   0.00000  Uiso   1.00
H147   H     0.31462   0.53492   0.20299   0.00000  Uiso   1.00
H148   H     0.21257   0.96506   0.09745   0.00000  Uiso   1.00
H149   H     0.28741   0.87843   0.23378   0.00000  Uiso   1.00
H150   H     0.31276   0.62151   0.20314   0.00000  Uiso   1.00
H151   H     0.21259   0.87842   0.09955   0.00000  Uiso   1.00
H152   H     0.02899   0.78318   0.09404   0.00000  Uiso   1.00
H153   H     0.47095   0.71688   0.09406   0.00000  Uiso   1.00
H154   H     0.47101   0.78320   0.23928   0.00000  Uiso   1.00
H155   H     0.02905   0.71690   0.23928   0.00000  Uiso   1.00
H156   H     0.18538   0.53491   0.13034   0.00000  Uiso   1.00
N157   N     0.25000   0.62623   0.16667   0.00000  Uiso   1.00
N158   N     0.25000   0.87377   0.16667   0.00000  Uiso   1.00
O159   O     0.18453   0.78974   0.16667   0.00000  Uiso   1.00
O160   O     0.31547   0.71026   0.16666   0.00000  Uiso   1.00
O161   O     0.31547   0.78974   0.16666   0.00000  Uiso   1.00
O162   O     0.18453   0.71026   0.16667   0.00000  Uiso   1.00
O163   O     0.25000   0.78973   0.09511   0.00000  Uiso   1.00
O164   O     0.25000   0.71027   0.23822   0.00000  Uiso   1.00
O165   O     0.25000   0.78973   0.23822   0.00000  Uiso   1.00
O166   O     0.25000   0.71027   0.09511   0.00000  Uiso   1.00
Zn167  Zn    0.25000   0.80307   0.16667   0.00000  Uiso   1.00
Zn168  Zn    0.25000   0.69693   0.16667   0.00000  Uiso   1.00
Br169  Br    0.62355   0.79341   0.06759   0.00000  Uiso   1.00
Br170  Br    0.87638   0.70665   0.06758   0.00000  Uiso   1.00
Br171  Br    0.87645   0.79344   0.26572   0.00000  Uiso   1.00
Br172  Br    0.62362   0.70667   0.26575   0.00000  Uiso   1.00
C173   C     0.66405   0.75000   0.16666   0.00000  Uiso   1.00
C174   C     0.72880   0.94735   0.12837   0.00000  Uiso   1.00
C175   C     0.74999   0.75000   0.07286   0.00000  Uiso   1.00
C176   C     0.75001   0.75000   0.26047   0.00000  Uiso   1.00
C177   C     0.75000   0.52667   0.16667   0.00000  Uiso   1.00
C178   C     0.75000   0.97330   0.16667   0.00000  Uiso   1.00
C179   C     0.74999   0.75001   0.02179   0.00000  Uiso   1.00
C180   C     0.75001   0.75001   0.31154   0.00000  Uiso   1.00
C181   C     0.54706   0.76863   0.12564   0.00000  Uiso   1.00
C182   C     0.95291   0.73143   0.12565   0.00000  Uiso   1.00
C183   C     0.95294   0.76864   0.20769   0.00000  Uiso   1.00
C184   C     0.83595   0.75000   0.16667   0.00000  Uiso   1.00
C185   C     0.54709   0.73144   0.20768   0.00000  Uiso   1.00
C186   C     0.59331   0.76878   0.12543   0.00000  Uiso   1.00
C187   C     0.90666   0.73124   0.12545   0.00000  Uiso   1.00
C188   C     0.90669   0.76879   0.20790   0.00000  Uiso   1.00
C189   C     0.59334   0.73125   0.20789   0.00000  Uiso   1.00
C190   C     0.61631   0.75000   0.16665   0.00000  Uiso   1.00
C191   C     0.88369   0.75000   0.16668   0.00000  Uiso   1.00
C192   C     0.52411   0.75004   0.16666   0.00000  Uiso   1.00
C193   C     0.97589   0.75004   0.16667   0.00000  Uiso   1.00
C194   C     0.71495   0.60221   0.14627   0.00000  Uiso   1.00
C195   C     0.77092   0.89776   0.20416   0.00000  Uiso   1.00
C196   C     0.78505   0.60221   0.18706   0.00000  Uiso   1.00
C197   C     0.72908   0.89776   0.12918   0.00000  Uiso   1.00
C198   C     0.71421   0.55262   0.14602   0.00000  Uiso   1.00
C199   C     0.77120   0.94735   0.20496   0.00000  Uiso   1.00
C200   C     0.78579   0.55263   0.18731   0.00000  Uiso   1.00
H201   H     0.68724   0.62151   0.13020   0.00000  Uiso   1.00
H202   H     0.78742   0.96506   0.23589   0.00000  Uiso   1.00
H203   H     0.81462   0.53492   0.20299   0.00000  Uiso   1.00
H204   H     0.71257   0.96506   0.09745   0.00000  Uiso   1.00
H205   H     0.78741   0.87843   0.23378   0.00000  Uiso   1.00
H206   H     0.81276   0.62151   0.20314   0.00000  Uiso   1.00
H207   H     0.71259   0.87842   0.09955   0.00000  Uiso   1.00
H208   H     0.52899   0.78318   0.09404   0.00000  Uiso   1.00
H209   H     0.97095   0.71688   0.09406   0.00000  Uiso   1.00
H210   H     0.97101   0.78320   0.23928   0.00000  Uiso   1.00
H211   H     0.52905   0.71690   0.23928   0.00000  Uiso   1.00
H212   H     0.68538   0.53491   0.13034   0.00000  Uiso   1.00
N213   N     0.75000   0.62623   0.16667   0.00000  Uiso   1.00
N214   N     0.75000   0.87377   0.16667   0.00000  Uiso   1.00
O215   O     0.68453   0.78974   0.16667   0.00000  Uiso   1.00
O216   O     0.81547   0.71026   0.16666   0.00000  Uiso   1.00
O217   O     0.81547   0.78974   0.16666   0.00000  Uiso   1.00
O218   O     0.68453   0.71026   0.16667   0.00000  Uiso   1.00
O219   O     0.75000   0.78973   0.09511   0.00000  Uiso   1.00
O220   O     0.75000   0.71027   0.23822   0.00000  Uiso   1.00
O221   O     0.75000   0.78973   0.23822   0.00000  Uiso   1.00
O222   O     0.75000   0.71027   0.09511   0.00000  Uiso   1.00
Zn223  Zn    0.75000   0.80307   0.16667   0.00000  Uiso   1.00
Zn224  Zn    0.75000   0.69693   0.16667   0.00000  Uiso   1.00
Br225  Br    0.12355   0.29341   0.40093   0.00000  Uiso   1.00
Br226  Br    0.37638   0.20665   0.40092   0.00000  Uiso   1.00
Br227  Br    0.37645   0.29344   0.59906   0.00000  Uiso   1.00
Br228  Br    0.12362   0.20667   0.59909   0.00000  Uiso   1.00
C229   C     0.16405   0.25000   0.49999   0.00000  Uiso   1.00
C230   C     0.22880   0.44735   0.46170   0.00000  Uiso   1.00
C231   C     0.24999   0.25000   0.40619   0.00000  Uiso   1.00
C232   C     0.25001   0.25000   0.59381   0.00000  Uiso   1.00
C233   C     0.25000   0.02667   0.50000   0.00000  Uiso   1.00
C234   C     0.25000   0.47330   0.50000   0.00000  Uiso   1.00
C235   C     0.24999   0.25001   0.35512   0.00000  Uiso   1.00
C236   C     0.25001   0.25001   0.64488   0.00000  Uiso   1.00
C237   C     0.04706   0.26863   0.45897   0.00000  Uiso   1.00
C238   C     0.45291   0.23143   0.45898   0.00000  Uiso   1.00
C239   C     0.45294   0.26864   0.54102   0.00000  Uiso   1.00
C240   C     0.33595   0.25000   0.50001   0.00000  Uiso   1.00
C241   C     0.04709   0.23144   0.54102   0.00000  Uiso   1.00
C242   C     0.09331   0.26878   0.45876   0.00000  Uiso   1.00
C243   C     0.40666   0.23124   0.45878   0.00000  Uiso   1.00
C244   C     0.40669   0.26879   0.54123   0.00000  Uiso   1.00
C245   C     0.09334   0.23125   0.54122   0.00000  Uiso   1.00
C246   C     0.11631   0.25000   0.49999   0.00000  Uiso   1.00
C247   C     0.38369   0.25000   0.50001   0.00000  Uiso   1.00
C248   C     0.02411   0.25004   0.50000   0.00000  Uiso   1.00
C249   C     0.47589   0.25004   0.50000   0.00000  Uiso   1.00
C250   C     0.21495   0.10221   0.47961   0.00000  Uiso   1.00
C251   C     0.27092   0.39776   0.53749   0.00000  Uiso   1.00
C252   C     0.28505   0.10221   0.52039   0.00000  Uiso   1.00
C253   C     0.22908   0.39776   0.46251   0.00000  Uiso   1.00
C254   C     0.21421   0.05262   0.47936   0.00000  Uiso   1.00
C255   C     0.27120   0.44735   0.53830   0.00000  Uiso   1.00
C256   C     0.28579   0.05263   0.52064   0.00000  Uiso   1.00
H257   H     0.18724   0.12151   0.46353   0.00000  Uiso   1.00
H258   H     0.28742   0.46506   0.56922   0.00000  Uiso   1.00
H259   H     0.31462   0.03492   0.53632   0.00000  Uiso   1.00
H260   H     0.21257   0.46506   0.43078   0.00000  Uiso   1.00
H261   H     0.28741   0.37843   0.56711   0.00000  Uiso   1.00
H262   H     0.31276   0.12151   0.53647   0.00000  Uiso   1.00
H263   H     0.21259   0.37842   0.43289   0.00000  Uiso   1.00
H264   H     0.02899   0.28318   0.42738   0.00000  Uiso   1.00
H265   H     0.47095   0.21688   0.42739   0.00000  Uiso   1.00
H266   H     0.47101   0.28320   0.57261   0.00000  Uiso   1.00
H267   H     0.02905   0.21690   0.57261   0.00000  Uiso   1.00
H268   H     0.18538   0.03491   0.46368   0.00000  Uiso   1.00
N269   N     0.25000   0.12623   0.50000   0.00000  Uiso   1.00
N270   N     0.25000   0.37377   0.50000   0.00000  Uiso   1.00
O271   O     0.18453   0.28974   0.50000   0.00000  Uiso   1.00
O272   O     0.31547   0.21026   0.50000   0.00000  Uiso   1.00
O273   O     0.31547   0.28974   0.50000   0.00000  Uiso   1.00
O274   O     0.18453   0.21026   0.50000   0.00000  Uiso   1.00
O275   O     0.25000   0.28973   0.42845   0.00000  Uiso   1.00
O276   O     0.25000   0.21027   0.57155   0.00000  Uiso   1.00
O277   O     0.25000   0.28973   0.57155   0.00000  Uiso   1.00
O278   O     0.25000   0.21027   0.42845   0.00000  Uiso   1.00
Zn279  Zn    0.25000   0.30307   0.50000   0.00000  Uiso   1.00
Zn280  Zn    0.25000   0.19693   0.50000   0.00000  Uiso   1.00
Br281  Br    0.62355   0.29341   0.40093   0.00000  Uiso   1.00
Br282  Br    0.87638   0.20665   0.40092   0.00000  Uiso   1.00
Br283  Br    0.87645   0.29344   0.59906   0.00000  Uiso   1.00
Br284  Br    0.62362   0.20667   0.59909   0.00000  Uiso   1.00
C285   C     0.66405   0.25000   0.49999   0.00000  Uiso   1.00
C286   C     0.72880   0.44735   0.46170   0.00000  Uiso   1.00
C287   C     0.74999   0.25000   0.40619   0.00000  Uiso   1.00
C288   C     0.75001   0.25000   0.59381   0.00000  Uiso   1.00
C289   C     0.75000   0.02667   0.50000   0.00000  Uiso   1.00
C290   C     0.75000   0.47330   0.50000   0.00000  Uiso   1.00
C291   C     0.74999   0.25001   0.35512   0.00000  Uiso   1.00
C292   C     0.75001   0.25001   0.64488   0.00000  Uiso   1.00
C293   C     0.54706   0.26863   0.45897   0.00000  Uiso   1.00
C294   C     0.95291   0.23143   0.45898   0.00000  Uiso   1.00
C295   C     0.95294   0.26864   0.54102   0.00000  Uiso   1.00
C296   C     0.83595   0.25000   0.50001   0.00000  Uiso   1.00
C297   C     0.54709   0.23144   0.54102   0.00000  Uiso   1.00
C298   C     0.59331   0.26878   0.45876   0.00000  Uiso   1.00
C299   C     0.90666   0.23124   0.45878   0.00000  Uiso   1.00
C300   C     0.90669   0.26879   0.54123   0.00000  Uiso   1.00
C301   C     0.59334   0.23125   0.54122   0.00000  Uiso   1.00
C302   C     0.61631   0.25000   0.49999   0.00000  Uiso   1.00
C303   C     0.88369   0.25000   0.50001   0.00000  Uiso   1.00
C304   C     0.52411   0.25004   0.50000   0.00000  Uiso   1.00
C305   C     0.97589   0.25004   0.50000   0.00000  Uiso   1.00
C306   C     0.71495   0.10221   0.47961   0.00000  Uiso   1.00
C307   C     0.77092   0.39776   0.53749   0.00000  Uiso   1.00
C308   C     0.78505   0.10221   0.52039   0.00000  Uiso   1.00
C309   C     0.72908   0.39776   0.46251   0.00000  Uiso   1.00
C310   C     0.71421   0.05262   0.47936   0.00000  Uiso   1.00
C311   C     0.77120   0.44735   0.53830   0.00000  Uiso   1.00
C312   C     0.78579   0.05263   0.52064   0.00000  Uiso   1.00
H313   H     0.68724   0.12151   0.46353   0.00000  Uiso   1.00
H314   H     0.78742   0.46506   0.56922   0.00000  Uiso   1.00
H315   H     0.81462   0.03492   0.53632   0.00000  Uiso   1.00
H316   H     0.71257   0.46506   0.43078   0.00000  Uiso   1.00
H317   H     0.78741   0.37843   0.56711   0.00000  Uiso   1.00
H318   H     0.81276   0.12151   0.53647   0.00000  Uiso   1.00
H319   H     0.71259   0.37842   0.43289   0.00000  Uiso   1.00
H320   H     0.52899   0.28318   0.42738   0.00000  Uiso   1.00
H321   H     0.97095   0.21688   0.42739   0.00000  Uiso   1.00
H322   H     0.97101   0.28320   0.57261   0.00000  Uiso   1.00
H323   H     0.52905   0.21690   0.57261   0.00000  Uiso   1.00
H324   H     0.68538   0.03491   0.46368   0.00000  Uiso   1.00
N325   N     0.75000   0.12623   0.50000   0.00000  Uiso   1.00
N326   N     0.75000   0.37377   0.50000   0.00000  Uiso   1.00
O327   O     0.68453   0.28974   0.50000   0.00000  Uiso   1.00
O328   O     0.81547   0.21026   0.50000   0.00000  Uiso   1.00
O329   O     0.81547   0.28974   0.50000   0.00000  Uiso   1.00
O330   O     0.68453   0.21026   0.50000   0.00000  Uiso   1.00
O331   O     0.75000   0.28973   0.42845   0.00000  Uiso   1.00
O332   O     0.75000   0.21027   0.57155   0.00000  Uiso   1.00
O333   O     0.75000   0.28973   0.57155   0.00000  Uiso   1.00
O334   O     0.75000   0.21027   0.42845   0.00000  Uiso   1.00
Zn335  Zn    0.75000   0.30307   0.50000   0.00000  Uiso   1.00
Zn336  Zn    0.75000   0.19693   0.50000   0.00000  Uiso   1.00
Br337  Br    0.12355   0.79341   0.40093   0.00000  Uiso   1.00
Br338  Br    0.37638   0.70665   0.40092   0.00000  Uiso   1.00
Br339  Br    0.37645   0.79344   0.59906   0.00000  Uiso   1.00
Br340  Br    0.12362   0.70667   0.59909   0.00000  Uiso   1.00
C341   C     0.16405   0.75000   0.49999   0.00000  Uiso   1.00
C342   C     0.22880   0.94735   0.46170   0.00000  Uiso   1.00
C343   C     0.24999   0.75000   0.40619   0.00000  Uiso   1.00
C344   C     0.25001   0.75000   0.59381   0.00000  Uiso   1.00
C345   C     0.25000   0.52667   0.50000   0.00000  Uiso   1.00
C346   C     0.25000   0.97330   0.50000   0.00000  Uiso   1.00
C347   C     0.24999   0.75001   0.35512   0.00000  Uiso   1.00
C348   C     0.25001   0.75001   0.64488   0.00000  Uiso   1.00
C349   C     0.04706   0.76863   0.45897   0.00000  Uiso   1.00
C350   C     0.45291   0.73143   0.45898   0.00000  Uiso   1.00
C351   C     0.45294   0.76864   0.54102   0.00000  Uiso   1.00
C352   C     0.33595   0.75000   0.50001   0.00000  Uiso   1.00
C353   C     0.04709   0.73144   0.54102   0.00000  Uiso   1.00
C354   C     0.09331   0.76878   0.45876   0.00000  Uiso   1.00
C355   C     0.40666   0.73124   0.45878   0.00000  Uiso   1.00
C356   C     0.40669   0.76879   0.54123   0.00000  Uiso   1.00
C357   C     0.09334   0.73125   0.54122   0.00000  Uiso   1.00
C358   C     0.11631   0.75000   0.49999   0.00000  Uiso   1.00
C359   C     0.38369   0.75000   0.50001   0.00000  Uiso   1.00
C360   C     0.02411   0.75004   0.50000   0.00000  Uiso   1.00
C361   C     0.47589   0.75004   0.50000   0.00000  Uiso   1.00
C362   C     0.21495   0.60221   0.47961   0.00000  Uiso   1.00
C363   C     0.27092   0.89776   0.53749   0.00000  Uiso   1.00
C364   C     0.28505   0.60221   0.52039   0.00000  Uiso   1.00
C365   C     0.22908   0.89776   0.46251   0.00000  Uiso   1.00
C366   C     0.21421   0.55262   0.47936   0.00000  Uiso   1.00
C367   C     0.27120   0.94735   0.53830   0.00000  Uiso   1.00
C368   C     0.28579   0.55263   0.52064   0.00000  Uiso   1.00
H369   H     0.18724   0.62151   0.46353   0.00000  Uiso   1.00
H370   H     0.28742   0.96506   0.56922   0.00000  Uiso   1.00
H371   H     0.31462   0.53492   0.53632   0.00000  Uiso   1.00
H372   H     0.21257   0.96506   0.43078   0.00000  Uiso   1.00
H373   H     0.28741   0.87843   0.56711   0.00000  Uiso   1.00
H374   H     0.31276   0.62151   0.53647   0.00000  Uiso   1.00
H375   H     0.21259   0.87842   0.43289   0.00000  Uiso   1.00
H376   H     0.02899   0.78318   0.42738   0.00000  Uiso   1.00
H377   H     0.47095   0.71688   0.42739   0.00000  Uiso   1.00
H378   H     0.47101   0.78320   0.57261   0.00000  Uiso   1.00
H379   H     0.02905   0.71690   0.57261   0.00000  Uiso   1.00
H380   H     0.18538   0.53491   0.46368   0.00000  Uiso   1.00
N381   N     0.25000   0.62623   0.50000   0.00000  Uiso   1.00
N382   N     0.25000   0.87377   0.50000   0.00000  Uiso   1.00
O383   O     0.18453   0.78974   0.50000   0.00000  Uiso   1.00
O384   O     0.31547   0.71026   0.50000   0.00000  Uiso   1.00
O385   O     0.31547   0.78974   0.50000   0.00000  Uiso   1.00
O386   O     0.18453   0.71026   0.50000   0.00000  Uiso   1.00
O387   O     0.25000   0.78973   0.42845   0.00000  Uiso   1.00
O388   O     0.25000   0.71027   0.57155   0.00000  Uiso   1.00
O389   O     0.25000   0.78973   0.57155   0.00000  Uiso   1.00
O390   O     0.25000   0.71027   0.42845   0.00000  Uiso   1.00
Zn391  Zn    0.25000   0.80307   0.50000   0.00000  Uiso   1.00
Zn392  Zn    0.25000   0.69693   0.50000   0.00000  Uiso   1.00
Br393  Br    0.62355   0.79341   0.40093   0.00000  Uiso   1.00
Br394  Br    0.87638   0.70665   0.40092   0.00000  Uiso   1.00
Br395  Br    0.87645   0.79344   0.59906   0.00000  Uiso   1.00
Br396  Br    0.62362   0.70667   0.59909   0.00000  Uiso   1.00
C397   C     0.66405   0.75000   0.49999   0.00000  Uiso   1.00
C398   C     0.72880   0.94735   0.46170   0.00000  Uiso   1.00
C399   C     0.74999   0.75000   0.40619   0.00000  Uiso   1.00
C400   C     0.75001   0.75000   0.59381   0.00000  Uiso   1.00
C401   C     0.75000   0.52667   0.50000   0.00000  Uiso   1.00
C402   C     0.75000   0.97330   0.50000   0.00000  Uiso   1.00
C403   C     0.74999   0.75001   0.35512   0.00000  Uiso   1.00
C404   C     0.75001   0.75001   0.64488   0.00000  Uiso   1.00
C405   C     0.54706   0.76863   0.45897   0.00000  Uiso   1.00
C406   C     0.95291   0.73143   0.45898   0.00000  Uiso   1.00
C407   C     0.95294   0.76864   0.54102   0.00000  Uiso   1.00
C408   C     0.83595   0.75000   0.50001   0.00000  Uiso   1.00
C409   C     0.54709   0.73144   0.54102   0.00000  Uiso   1.00
C410   C     0.59331   0.76878   0.45876   0.00000  Uiso   1.00
C411   C     0.90666   0.73124   0.45878   0.00000  Uiso   1.00
C412   C     0.90669   0.76879   0.54123   0.00000  Uiso   1.00
C413   C     0.59334   0.73125   0.54122   0.00000  Uiso   1.00
C414   C     0.61631   0.75000   0.49999   0.00000  Uiso   1.00
C415   C     0.88369   0.75000   0.50001   0.00000  Uiso   1.00
C416   C     0.52411   0.75004   0.50000   0.00000  Uiso   1.00
C417   C     0.97589   0.75004   0.50000   0.00000  Uiso   1.00
C418   C     0.71495   0.60221   0.47961   0.00000  Uiso   1.00
C419   C     0.77092   0.89776   0.53749   0.00000  Uiso   1.00
C420   C     0.78505   0.60221   0.52039   0.00000  Uiso   1.00
C421   C     0.72908   0.89776   0.46251   0.00000  Uiso   1.00
C422   C     0.71421   0.55262   0.47936   0.00000  Uiso   1.00
C423   C     0.77120   0.94735   0.53830   0.00000  Uiso   1.00
C424   C     0.78579   0.55263   0.52064   0.00000  Uiso   1.00
H425   H     0.68724   0.62151   0.46353   0.00000  Uiso   1.00
H426   H     0.78742   0.96506   0.56922   0.00000  Uiso   1.00
H427   H     0.81462   0.53492   0.53632   0.00000  Uiso   1.00
H428   H     0.71257   0.96506   0.43078   0.00000  Uiso   1.00
H429   H     0.78741   0.87843   0.56711   0.00000  Uiso   1.00
H430   H     0.81276   0.62151   0.53647   0.00000  Uiso   1.00
H431   H     0.71259   0.87842   0.43289   0.00000  Uiso   1.00
H432   H     0.52899   0.78318   0.42738   0.00000  Uiso   1.00
H433   H     0.97095   0.71688   0.42739   0.00000  Uiso   1.00
H434   H     0.97101   0.78320   0.57261   0.00000  Uiso   1.00
H435   H     0.52905   0.71690   0.57261   0.00000  Uiso   1.00
H436   H     0.68538   0.53491   0.46368   0.00000  Uiso   1.00
N437   N     0.75000   0.62623   0.50000   0.00000  Uiso   1.00
N438   N     0.75000   0.87377   0.50000   0.00000  Uiso   1.00
O439   O     0.68453   0.78974   0.50000   0.00000  Uiso   1.00
O440   O     0.81547   0.71026   0.50000   0.00000  Uiso   1.00
O441   O     0.81547   0.78974   0.50000   0.00000  Uiso   1.00
O442   O     0.68453   0.71026   0.50000   0.00000  Uiso   1.00
O443   O     0.75000   0.78973   0.42845   0.00000  Uiso   1.00
O444   O     0.75000   0.71027   0.57155   0.00000  Uiso   1.00
O445   O     0.75000   0.78973   0.57155   0.00000  Uiso   1.00
O446   O     0.75000   0.71027   0.42845   0.00000  Uiso   1.00
Zn447  Zn    0.75000   0.80307   0.50000   0.00000  Uiso   1.00
Zn448  Zn    0.75000   0.69693   0.50000   0.00000  Uiso   1.00
Br449  Br    0.12355   0.29341   0.73426   0.00000  Uiso   1.00
Br450  Br    0.37638   0.20665   0.73425   0.00000  Uiso   1.00
Br451  Br    0.37645   0.29344   0.93239   0.00000  Uiso   1.00
Br452  Br    0.12362   0.20667   0.93242   0.00000  Uiso   1.00
C453   C     0.16405   0.25000   0.83333   0.00000  Uiso   1.00
C454   C     0.22880   0.44735   0.79504   0.00000  Uiso   1.00
C455   C     0.24999   0.25000   0.73953   0.00000  Uiso   1.00
C456   C     0.25001   0.25000   0.92714   0.00000  Uiso   1.00
C457   C     0.25000   0.02667   0.83333   0.00000  Uiso   1.00
C458   C     0.25000   0.47330   0.83333   0.00000  Uiso   1.00
C459   C     0.24999   0.25001   0.68846   0.00000  Uiso   1.00
C460   C     0.25001   0.25001   0.97821   0.00000  Uiso   1.00
C461   C     0.04706   0.26863   0.79230   0.00000  Uiso   1.00
C462   C     0.45291   0.23143   0.79232   0.00000  Uiso   1.00
C463   C     0.45294   0.26864   0.87436   0.00000  Uiso   1.00
C464   C     0.33595   0.25000   0.83334   0.00000  Uiso   1.00
C465   C     0.04709   0.23144   0.87435   0.00000  Uiso   1.00
C466   C     0.09331   0.26878   0.79209   0.00000  Uiso   1.00
C467   C     0.40666   0.23124   0.79211   0.00000  Uiso   1.00
C468   C     0.40669   0.26879   0.87457   0.00000  Uiso   1.00
C469   C     0.09334   0.23125   0.87455   0.00000  Uiso   1.00
C470   C     0.11631   0.25000   0.83332   0.00000  Uiso   1.00
C471   C     0.38369   0.25000   0.83335   0.00000  Uiso   1.00
C472   C     0.02411   0.25004   0.83333   0.00000  Uiso   1.00
C473   C     0.47589   0.25004   0.83333   0.00000  Uiso   1.00
C474   C     0.21495   0.10221   0.81294   0.00000  Uiso   1.00
C475   C     0.27092   0.39776   0.87082   0.00000  Uiso   1.00
C476   C     0.28505   0.10221   0.85373   0.00000  Uiso   1.00
C477   C     0.22908   0.39776   0.79584   0.00000  Uiso   1.00
C478   C     0.21421   0.05262   0.81269   0.00000  Uiso   1.00
C479   C     0.27120   0.44735   0.87163   0.00000  Uiso   1.00
C480   C     0.28579   0.05263   0.85398   0.00000  Uiso   1.00
H481   H     0.18724   0.12151   0.79686   0.00000  Uiso   1.00
H482   H     0.28742   0.46506   0.90255   0.00000  Uiso   1.00
H483   H     0.31462   0.03492   0.86966   0.00000  Uiso   1.00
H484   H     0.21257   0.46506   0.76411   0.00000  Uiso   1.00
H485   H     0.28741   0.37843   0.90045   0.00000  Uiso   1.00
H486   H     0.31276   0.12151   0.86980   0.00000  Uiso   1.00
H487   H     0.21259   0.37842   0.76622   0.00000  Uiso   1.00
H488   H     0.02899   0.28318   0.76071   0.00000  Uiso   1.00
H489   H     0.47095   0.21688   0.76072   0.00000  Uiso   1.00
H490   H     0.47101   0.28320   0.90594   0.00000  Uiso   1.00
H491   H     0.02905   0.21690   0.90595   0.00000  Uiso   1.00
H492   H     0.18538   0.03491   0.79701   0.00000  Uiso   1.00
N493   N     0.25000   0.12623   0.83333   0.00000  Uiso   1.00
N494   N     0.25000   0.37377   0.83333   0.00000  Uiso   1.00
O495   O     0.18453   0.28974   0.83334   0.00000  Uiso   1.00
O496   O     0.31547   0.21026   0.83333   0.00000  Uiso   1.00
O497   O     0.31547   0.28974   0.83333   0.00000  Uiso   1.00
O498   O     0.18453   0.21026   0.83334   0.00000  Uiso   1.00
O499   O     0.25000   0.28973   0.76178   0.00000  Uiso   1.00
O500   O     0.25000   0.21027   0.90489   0.00000  Uiso   1.00
O501   O     0.25000   0.28973   0.90489   0.00000  Uiso   1.00
O502   O     0.25000   0.21027   0.76178   0.00000  Uiso   1.00
Zn503  Zn    0.25000   0.30307   0.83333   0.00000  Uiso   1.00
Zn504  Zn    0.25000   0.19693   0.83333   0.00000  Uiso   1.00
Br505  Br    0.62355   0.29341   0.73426   0.00000  Uiso   1.00
Br506  Br    0.87638   0.20665   0.73425   0.00000  Uiso   1.00
Br507  Br    0.87645   0.29344   0.93239   0.00000  Uiso   1.00
Br508  Br    0.62362   0.20667   0.93242   0.00000  Uiso   1.00
C509   C     0.66405   0.25000   0.83333   0.00000  Uiso   1.00
C510   C     0.72880   0.44735   0.79504   0.00000  Uiso   1.00
C511   C     0.74999   0.25000   0.73953   0.00000  Uiso   1.00
C512   C     0.75001   0.25000   0.92714   0.00000  Uiso   1.00
C513   C     0.75000   0.02667   0.83333   0.00000  Uiso   1.00
C514   C     0.75000   0.47330   0.83333   0.00000  Uiso   1.00
C515   C     0.74999   0.25001   0.68846   0.00000  Uiso   1.00
C516   C     0.75001   0.25001   0.97821   0.00000  Uiso   1.00
C517   C     0.54706   0.26863   0.79230   0.00000  Uiso   1.00
C518   C     0.95291   0.23143   0.79232   0.00000  Uiso   1.00
C519   C     0.95294   0.26864   0.87436   0.00000  Uiso   1.00
C520   C     0.83595   0.25000   0.83334   0.00000  Uiso   1.00
C521   C     0.54709   0.23144   0.87435   0.00000  Uiso   1.00
C522   C     0.59331   0.26878   0.79209   0.00000  Uiso   1.00
C523   C     0.90666   0.23124   0.79211   0.00000  Uiso   1.00
C524   C     0.90669   0.26879   0.87457   0.00000  Uiso   1.00
C525   C     0.59334   0.23125   0.87455   0.00000  Uiso   1.00
C526   C     0.61631   0.25000   0.83332   0.00000  Uiso   1.00
C527   C     0.88369   0.25000   0.83335   0.00000  Uiso   1.00
C528   C     0.52411   0.25004   0.83333   0.00000  Uiso   1.00
C529   C     0.97589   0.25004   0.83333   0.00000  Uiso   1.00
C530   C     0.71495   0.10221   0.81294   0.00000  Uiso   1.00
C531   C     0.77092   0.39776   0.87082   0.00000  Uiso   1.00
C532   C     0.78505   0.10221   0.85373   0.00000  Uiso   1.00
C533   C     0.72908   0.39776   0.79584   0.00000  Uiso   1.00
C534   C     0.71421   0.05262   0.81269   0.00000  Uiso   1.00
C535   C     0.77120   0.44735   0.87163   0.00000  Uiso   1.00
C536   C     0.78579   0.05263   0.85398   0.00000  Uiso   1.00
H537   H     0.68724   0.12151   0.79686   0.00000  Uiso   1.00
H538   H     0.78742   0.46506   0.90255   0.00000  Uiso   1.00
H539   H     0.81462   0.03492   0.86966   0.00000  Uiso   1.00
H540   H     0.71257   0.46506   0.76411   0.00000  Uiso   1.00
H541   H     0.78741   0.37843   0.90045   0.00000  Uiso   1.00
H542   H     0.81276   0.12151   0.86980   0.00000  Uiso   1.00
H543   H     0.71259   0.37842   0.76622   0.00000  Uiso   1.00
H544   H     0.52899   0.28318   0.76071   0.00000  Uiso   1.00
H545   H     0.97095   0.21688   0.76072   0.00000  Uiso   1.00
H546   H     0.97101   0.28320   0.90594   0.00000  Uiso   1.00
H547   H     0.52905   0.21690   0.90595   0.00000  Uiso   1.00
H548   H     0.68538   0.03491   0.79701   0.00000  Uiso   1.00
N549   N     0.75000   0.12623   0.83333   0.00000  Uiso   1.00
N550   N     0.75000   0.37377   0.83333   0.00000  Uiso   1.00
O551   O     0.68453   0.28974   0.83334   0.00000  Uiso   1.00
O552   O     0.81547   0.21026   0.83333   0.00000  Uiso   1.00
O553   O     0.81547   0.28974   0.83333   0.00000  Uiso   1.00
O554   O     0.68453   0.21026   0.83334   0.00000  Uiso   1.00
O555   O     0.75000   0.28973   0.76178   0.00000  Uiso   1.00
O556   O     0.75000   0.21027   0.90489   0.00000  Uiso   1.00
O557   O     0.75000   0.28973   0.90489   0.00000  Uiso   1.00
O558   O     0.75000   0.21027   0.76178   0.00000  Uiso   1.00
Zn559  Zn    0.75000   0.30307   0.83333   0.00000  Uiso   1.00
Zn560  Zn    0.75000   0.19693   0.83333   0.00000  Uiso   1.00
Br561  Br    0.12355   0.79341   0.73426   0.00000  Uiso   1.00
Br562  Br    0.37638   0.70665   0.73425   0.00000  Uiso   1.00
Br563  Br    0.37645   0.79344   0.93239   0.00000  Uiso   1.00
Br564  Br    0.12362   0.70667   0.93242   0.00000  Uiso   1.00
C565   C     0.16405   0.75000   0.83333   0.00000  Uiso   1.00
C566   C     0.22880   0.94735   0.79504   0.00000  Uiso   1.00
C567   C     0.24999   0.75000   0.73953   0.00000  Uiso   1.00
C568   C     0.25001   0.75000   0.92714   0.00000  Uiso   1.00
C569   C     0.25000   0.52667   0.83333   0.00000  Uiso   1.00
C570   C     0.25000   0.97330   0.83333   0.00000  Uiso   1.00
C571   C     0.24999   0.75001   0.68846   0.00000  Uiso   1.00
C572   C     0.25001   0.75001   0.97821   0.00000  Uiso   1.00
C573   C     0.04706   0.76863   0.79230   0.00000  Uiso   1.00
C574   C     0.45291   0.73143   0.79232   0.00000  Uiso   1.00
C575   C     0.45294   0.76864   0.87436   0.00000  Uiso   1.00
C576   C     0.33595   0.75000   0.83334   0.00000  Uiso   1.00
C577   C     0.04709   0.73144   0.87435   0.00000  Uiso   1.00
C578   C     0.09331   0.76878   0.79209   0.00000  Uiso   1.00
C579   C     0.40666   0.73124   0.79211   0.00000  Uiso   1.00
C580   C     0.40669   0.76879   0.87457   0.00000  Uiso   1.00
C581   C     0.09334   0.73125   0.87455   0.00000  Uiso   1.00
C582   C     0.11631   0.75000   0.83332   0.00000  Uiso   1.00
C583   C     0.38369   0.75000   0.83335   0.00000  Uiso   1.00
C584   C     0.02411   0.75004   0.83333   0.00000  Uiso   1.00
C585   C     0.47589   0.75004   0.83333   0.00000  Uiso   1.00
C586   C     0.21495   0.60221   0.81294   0.00000  Uiso   1.00
C587   C     0.27092   0.89776   0.87082   0.00000  Uiso   1.00
C588   C     0.28505   0.60221   0.85373   0.00000  Uiso   1.00
C589   C     0.22908   0.89776   0.79584   0.00000  Uiso   1.00
C590   C     0.21421   0.55262   0.81269   0.00000  Uiso   1.00
C591   C     0.27120   0.94735   0.87163   0.00000  Uiso   1.00
C592   C     0.28579   0.55263   0.85398   0.00000  Uiso   1.00
H593   H     0.18724   0.62151   0.79686   0.00000  Uiso   1.00
H594   H     0.28742   0.96506   0.90255   0.00000  Uiso   1.00
H595   H     0.31462   0.53492   0.86966   0.00000  Uiso   1.00
H596   H     0.21257   0.96506   0.76411   0.00000  Uiso   1.00
H597   H     0.28741   0.87843   0.90045   0.00000  Uiso   1.00
H598   H     0.31276   0.62151   0.86980   0.00000  Uiso   1.00
H599   H     0.21259   0.87842   0.76622   0.00000  Uiso   1.00
H600   H     0.02899   0.78318   0.76071   0.00000  Uiso   1.00
H601   H     0.47095   0.71688   0.76072   0.00000  Uiso   1.00
H602   H     0.47101   0.78320   0.90594   0.00000  Uiso   1.00
H603   H     0.02905   0.71690   0.90595   0.00000  Uiso   1.00
H604   H     0.18538   0.53491   0.79701   0.00000  Uiso   1.00
N605   N     0.25000   0.62623   0.83333   0.00000  Uiso   1.00
N606   N     0.25000   0.87377   0.83333   0.00000  Uiso   1.00
O607   O     0.18453   0.78974   0.83334   0.00000  Uiso   1.00
O608   O     0.31547   0.71026   0.83333   0.00000  Uiso   1.00
O609   O     0.31547   0.78974   0.83333   0.00000  Uiso   1.00
O610   O     0.18453   0.71026   0.83334   0.00000  Uiso   1.00
O611   O     0.25000   0.78973   0.76178   0.00000  Uiso   1.00
O612   O     0.25000   0.71027   0.90489   0.00000  Uiso   1.00
O613   O     0.25000   0.78973   0.90489   0.00000  Uiso   1.00
O614   O     0.25000   0.71027   0.76178   0.00000  Uiso   1.00
Zn615  Zn    0.25000   0.80307   0.83333   0.00000  Uiso   1.00
Zn616  Zn    0.25000   0.69693   0.83333   0.00000  Uiso   1.00
Br617  Br    0.62355   0.79341   0.73426   0.00000  Uiso   1.00
Br618  Br    0.87638   0.70665   0.73425   0.00000  Uiso   1.00
Br619  Br    0.87645   0.79344   0.93239   0.00000  Uiso   1.00
Br620  Br    0.62362   0.70667   0.93242   0.00000  Uiso   1.00
C621   C     0.66405   0.75000   0.83333   0.00000  Uiso   1.00
C622   C     0.72880   0.94735   0.79504   0.00000  Uiso   1.00
C623   C     0.74999   0.75000   0.73953   0.00000  Uiso   1.00
C624   C     0.75001   0.75000   0.92714   0.00000  Uiso   1.00
C625   C     0.75000   0.52667   0.83333   0.00000  Uiso   1.00
C626   C     0.75000   0.97330   0.83333   0.00000  Uiso   1.00
C627   C     0.74999   0.75001   0.68846   0.00000  Uiso   1.00
C628   C     0.75001   0.75001   0.97821   0.00000  Uiso   1.00
C629   C     0.54706   0.76863   0.79230   0.00000  Uiso   1.00
C630   C     0.95291   0.73143   0.79232   0.00000  Uiso   1.00
C631   C     0.95294   0.76864   0.87436   0.00000  Uiso   1.00
C632   C     0.83595   0.75000   0.83334   0.00000  Uiso   1.00
C633   C     0.54709   0.73144   0.87435   0.00000  Uiso   1.00
C634   C     0.59331   0.76878   0.79209   0.00000  Uiso   1.00
C635   C     0.90666   0.73124   0.79211   0.00000  Uiso   1.00
C636   C     0.90669   0.76879   0.87457   0.00000  Uiso   1.00
C637   C     0.59334   0.73125   0.87455   0.00000  Uiso   1.00
C638   C     0.61631   0.75000   0.83332   0.00000  Uiso   1.00
C639   C     0.88369   0.75000   0.83335   0.00000  Uiso   1.00
C640   C     0.52411   0.75004   0.83333   0.00000  Uiso   1.00
C641   C     0.97589   0.75004   0.83333   0.00000  Uiso   1.00
C642   C     0.71495   0.60221   0.81294   0.00000  Uiso   1.00
C643   C     0.77092   0.89776   0.87082   0.00000  Uiso   1.00
C644   C     0.78505   0.60221   0.85373   0.00000  Uiso   1.00
C645   C     0.72908   0.89776   0.79584   0.00000  Uiso   1.00
C646   C     0.71421   0.55262   0.81269   0.00000  Uiso   1.00
C647   C     0.77120   0.94735   0.87163   0.00000  Uiso   1.00
C648   C     0.78579   0.55263   0.85398   0.00000  Uiso   1.00
H649   H     0.68724   0.62151   0.79686   0.00000  Uiso   1.00
H650   H     0.78742   0.96506   0.90255   0.00000  Uiso   1.00
H651   H     0.81462   0.53492   0.86966   0.00000  Uiso   1.00
H652   H     0.71257   0.96506   0.76411   0.00000  Uiso   1.00
H653   H     0.78741   0.87843   0.90045   0.00000  Uiso   1.00
H654   H     0.81276   0.62151   0.86980   0.00000  Uiso   1.00
H655   H     0.71259   0.87842   0.76622   0.00000  Uiso   1.00
H656   H     0.52899   0.78318   0.76071   0.00000  Uiso   1.00
H657   H     0.97095   0.71688   0.76072   0.00000  Uiso   1.00
H658   H     0.97101   0.78320   0.90594   0.00000  Uiso   1.00
H659   H     0.52905   0.71690   0.90595   0.00000  Uiso   1.00
H660   H     0.68538   0.53491   0.79701   0.00000  Uiso   1.00
N661   N     0.75000   0.62623   0.83333   0.00000  Uiso   1.00
N662   N     0.75000   0.87377   0.83333   0.00000  Uiso   1.00
O663   O     0.68453   0.78974   0.83334   0.00000  Uiso   1.00
O664   O     0.81547   0.71026   0.83333   0.00000  Uiso   1.00
O665   O     0.81547   0.78974   0.83333   0.00000  Uiso   1.00
O666   O     0.68453   0.71026   0.83334   0.00000  Uiso   1.00
O667   O     0.75000   0.78973   0.76178   0.00000  Uiso   1.00
O668   O     0.75000   0.71027   0.90489   0.00000  Uiso   1.00
O669   O     0.75000   0.78973   0.90489   0.00000  Uiso   1.00
O670   O     0.75000   0.71027   0.76178   0.00000  Uiso   1.00
Zn671  Zn    0.75000   0.80307   0.83333   0.00000  Uiso   1.00
Zn672  Zn    0.75000   0.69693   0.83333   0.00000  Uiso   1.00
loop_
_geom_bond_atom_site_label_1
_geom_bond_atom_site_label_2
_geom_bond_distance
_geom_bond_site_symmetry_2
_ccdc_geom_bond_type
Br1    C18     1.922   .     S
Br2    C19     1.922   .     S
Br3    C20     1.922   .     S
Br4    C21     1.922   .     S
C5     O47     1.283   .     A
C5     O50     1.283   .     A
C5     C22     1.427   .     S
C6     C10     1.411   .     A
C6     H36     1.082   .     S
C6     C29     1.408   .     A
C7     O54     1.275   .     A
C7     O51     1.275   .     A
C7     C11     1.365   .     S
C8     O52     1.275   .     A
C8     C12     1.365   .     S
C8     O53     1.275   .     A
C9     C30     1.411   .     A
C9     C32     1.411   .     A
C9     C122    1.515   1_545 S
C10    C31     1.411   .     A
C10    C121    1.515   .     S
C11    C460    1.165   1_554 S
C12    C235    1.165   .     S
C13    C18     1.382   .     A
C13    C24     1.397   .     A
C13    H40     1.084   .     S
C14    H41     1.084   .     S
C14    C25     1.397   .     A
C14    C19     1.382   .     A
C15    C20     1.382   .     A
C15    C25     1.397   .     A
C15    H42     1.084   .     S
C16    O48     1.283   .     A
C16    C23     1.427   .     S
C16    O49     1.283   .     A
C17    H43     1.084   .     S
C17    C24     1.397   .     A
C17    C21     1.382   .     A
C18    C22     1.403   .     A
C19    C23     1.403   .     A
C20    C23     1.403   .     A
C21    C22     1.403   .     A
C24    C81     1.441   1_455 S
C25    C80     1.441   .     S
C26    H33     1.082   .     S
C26    C30     1.408   .     A
C26    N45     1.363   .     A
C27    H37     1.082   .     S
C27    N46     1.363   .     A
C27    C31     1.408   .     A
C28    H38     1.082   .     S
C28    N45     1.363   .     A
C28    C32     1.408   .     A
C29    N46     1.363   .     A
C29    H39     1.082   .     S
C30    H44     1.082   .     S
C31    H34     1.082   .     S
C32    H35     1.082   .     S
N45    Zn56    2.007   .     S
N46    Zn55    2.007   .     S
O47    Zn55    1.993   .     S
O48    Zn56    1.993   .     S
O49    Zn55    1.993   .     S
O50    Zn56    1.993   .     S
O51    Zn55    1.949   .     S
O52    Zn56    1.949   .     S
O53    Zn55    1.949   .     S
O54    Zn56    1.949   .     S
Br57   C74     1.922   .     S
Br58   C75     1.922   .     S
Br59   C76     1.922   .     S
Br60   C77     1.922   .     S
C61    O103    1.283   .     A
C61    O106    1.283   .     A
C61    C78     1.427   .     S
C62    C66     1.411   .     A
C62    H92     1.082   .     S
C62    C85     1.408   .     A
C63    O110    1.275   .     A
C63    O107    1.275   .     A
C63    C67     1.365   .     S
C64    O108    1.275   .     A
C64    C68     1.365   .     S
C64    O109    1.275   .     A
C65    C86     1.411   .     A
C65    C88     1.411   .     A
C65    C178    1.515   1_545 S
C66    C87     1.411   .     A
C66    C177    1.515   .     S
C67    C516    1.165   1_554 S
C68    C291    1.165   .     S
C69    C74     1.382   .     A
C69    C80     1.397   .     A
C69    H96     1.084   .     S
C70    H97     1.084   .     S
C70    C81     1.397   .     A
C70    C75     1.382   .     A
C71    C76     1.382   .     A
C71    C81     1.397   .     A
C71    H98     1.084   .     S
C72    O104    1.283   .     A
C72    C79     1.427   .     S
C72    O105    1.283   .     A
C73    H99     1.084   .     S
C73    C80     1.397   .     A
C73    C77     1.382   .     A
C74    C78     1.403   .     A
C75    C79     1.403   .     A
C76    C79     1.403   .     A
C77    C78     1.403   .     A
C81    C24     1.441   1_655 S
C82    H89     1.082   .     S
C82    C86     1.408   .     A
C82    N101    1.363   .     A
C83    H93     1.082   .     S
C83    N102    1.363   .     A
C83    C87     1.408   .     A
C84    H94     1.082   .     S
C84    N101    1.363   .     A
C84    C88     1.408   .     A
C85    N102    1.363   .     A
C85    H95     1.082   .     S
C86    H100    1.082   .     S
C87    H90     1.082   .     S
C88    H91     1.082   .     S
N101   Zn112   2.007   .     S
N102   Zn111   2.007   .     S
O103   Zn111   1.993   .     S
O104   Zn112   1.993   .     S
O105   Zn111   1.993   .     S
O106   Zn112   1.993   .     S
O107   Zn111   1.949   .     S
O108   Zn112   1.949   .     S
O109   Zn111   1.949   .     S
O110   Zn112   1.949   .     S
Br113  C130    1.922   .     S
Br114  C131    1.922   .     S
Br115  C132    1.922   .     S
Br116  C133    1.922   .     S
C117   O159    1.283   .     A
C117   O162    1.283   .     A
C117   C134    1.427   .     S
C118   C122    1.411   .     A
C118   H148    1.082   .     S
C118   C141    1.408   .     A
C119   O166    1.275   .     A
C119   O163    1.275   .     A
C119   C123    1.365   .     S
C120   O164    1.275   .     A
C120   C124    1.365   .     S
C120   O165    1.275   .     A
C121   C142    1.411   .     A
C121   C144    1.411   .     A
C122   C143    1.411   .     A
C122   C9      1.515   1_565 S
C123   C572    1.165   1_554 S
C124   C347    1.165   .     S
C125   C130    1.382   .     A
C125   C136    1.397   .     A
C125   H152    1.084   .     S
C126   H153    1.084   .     S
C126   C137    1.397   .     A
C126   C131    1.382   .     A
C127   C132    1.382   .     A
C127   C137    1.397   .     A
C127   H154    1.084   .     S
C128   O160    1.283   .     A
C128   C135    1.427   .     S
C128   O161    1.283   .     A
C129   H155    1.084   .     S
C129   C136    1.397   .     A
C129   C133    1.382   .     A
C130   C134    1.403   .     A
C131   C135    1.403   .     A
C132   C135    1.403   .     A
C133   C134    1.403   .     A
C136   C193    1.441   1_455 S
C137   C192    1.441   .     S
C138   H145    1.082   .     S
C138   C142    1.408   .     A
C138   N157    1.363   .     A
C139   H149    1.082   .     S
C139   N158    1.363   .     A
C139   C143    1.408   .     A
C140   H150    1.082   .     S
C140   N157    1.363   .     A
C140   C144    1.408   .     A
C141   N158    1.363   .     A
C141   H151    1.082   .     S
C142   H156    1.082   .     S
C143   H146    1.082   .     S
C144   H147    1.082   .     S
N157   Zn168   2.007   .     S
N158   Zn167   2.007   .     S
O159   Zn167   1.993   .     S
O160   Zn168   1.993   .     S
O161   Zn167   1.993   .     S
O162   Zn168   1.993   .     S
O163   Zn167   1.949   .     S
O164   Zn168   1.949   .     S
O165   Zn167   1.949   .     S
O166   Zn168   1.949   .     S
Br169  C186    1.922   .     S
Br170  C187    1.922   .     S
Br171  C188    1.922   .     S
Br172  C189    1.922   .     S
C173   O215    1.283   .     A
C173   O218    1.283   .     A
C173   C190    1.427   .     S
C174   C178    1.411   .     A
C174   H204    1.082   .     S
C174   C197    1.408   .     A
C175   O222    1.275   .     A
C175   O219    1.275   .     A
C175   C179    1.365   .     S
C176   O220    1.275   .     A
C176   C180    1.365   .     S
C176   O221    1.275   .     A
C177   C198    1.411   .     A
C177   C200    1.411   .     A
C178   C199    1.411   .     A
C178   C65     1.515   1_565 S
C179   C628    1.165   1_554 S
C180   C403    1.165   .     S
C181   C186    1.382   .     A
C181   C192    1.397   .     A
C181   H208    1.084   .     S
C182   H209    1.084   .     S
C182   C193    1.397   .     A
C182   C187    1.382   .     A
C183   C188    1.382   .     A
C183   C193    1.397   .     A
C183   H210    1.084   .     S
C184   O216    1.283   .     A
C184   C191    1.427   .     S
C184   O217    1.283   .     A
C185   H211    1.084   .     S
C185   C192    1.397   .     A
C185   C189    1.382   .     A
C186   C190    1.403   .     A
C187   C191    1.403   .     A
C188   C191    1.403   .     A
C189   C190    1.403   .     A
C193   C136    1.441   1_655 S
C194   H201    1.082   .     S
C194   C198    1.408   .     A
C194   N213    1.363   .     A
C195   H205    1.082   .     S
C195   N214    1.363   .     A
C195   C199    1.408   .     A
C196   H206    1.082   .     S
C196   N213    1.363   .     A
C196   C200    1.408   .     A
C197   N214    1.363   .     A
C197   H207    1.082   .     S
C198   H212    1.082   .     S
C199   H202    1.082   .     S
C200   H203    1.082   .     S
N213   Zn224   2.007   .     S
N214   Zn223   2.007   .     S
O215   Zn223   1.993   .     S
O216   Zn224   1.993   .     S
O217   Zn223   1.993   .     S
O218   Zn224   1.993   .     S
O219   Zn223   1.949   .     S
O220   Zn224   1.949   .     S
O221   Zn223   1.949   .     S
O222   Zn224   1.949   .     S
Br225  C242    1.922   .     S
Br226  C243    1.922   .     S
Br227  C244    1.922   .     S
Br228  C245    1.922   .     S
C229   O271    1.283   .     A
C229   O274    1.283   .     A
C229   C246    1.427   .     S
C230   C234    1.411   .     A
C230   H260    1.082   .     S
C230   C253    1.408   .     A
C231   O278    1.275   .     A
C231   O275    1.275   .     A
C231   C235    1.365   .     S
C232   O276    1.275   .     A
C232   C236    1.365   .     S
C232   O277    1.275   .     A
C233   C254    1.411   .     A
C233   C256    1.411   .     A
C233   C346    1.515   1_545 S
C234   C255    1.411   .     A
C234   C345    1.515   .     S
C236   C459    1.165   .     S
C237   C242    1.382   .     A
C237   C248    1.397   .     A
C237   H264    1.084   .     S
C238   H265    1.084   .     S
C238   C249    1.397   .     A
C238   C243    1.382   .     A
C239   C244    1.382   .     A
C239   C249    1.397   .     A
C239   H266    1.084   .     S
C240   O272    1.283   .     A
C240   C247    1.427   .     S
C240   O273    1.283   .     A
C241   H267    1.084   .     S
C241   C248    1.397   .     A
C241   C245    1.382   .     A
C242   C246    1.403   .     A
C243   C247    1.403   .     A
C244   C247    1.403   .     A
C245   C246    1.403   .     A
C248   C305    1.441   1_455 S
C249   C304    1.441   .     S
C250   H257    1.082   .     S
C250   C254    1.408   .     A
C250   N269    1.363   .     A
C251   H261    1.082   .     S
C251   N270    1.363   .     A
C251   C255    1.408   .     A
C252   H262    1.082   .     S
C252   N269    1.363   .     A
C252   C256    1.408   .     A
C253   N270    1.363   .     A
C253   H263    1.082   .     S
C254   H268    1.082   .     S
C255   H258    1.082   .     S
C256   H259    1.082   .     S
N269   Zn280   2.007   .     S
N270   Zn279   2.007   .     S
O271   Zn279   1.993   .     S
O272   Zn280   1.993   .     S
O273   Zn279   1.993   .     S
O274   Zn280   1.993   .     S
O275   Zn279   1.949   .     S
O276   Zn280   1.949   .     S
O277   Zn279   1.949   .     S
O278   Zn280   1.949   .     S
Br281  C298    1.922   .     S
Br282  C299    1.922   .     S
Br283  C300    1.922   .     S
Br284  C301    1.922   .     S
C285   O327    1.283   .     A
C285   O330    1.283   .     A
C285   C302    1.427   .     S
C286   C290    1.411   .     A
C286   H316    1.082   .     S
C286   C309    1.408   .     A
C287   O334    1.275   .     A
C287   O331    1.275   .     A
C287   C291    1.365   .     S
C288   O332    1.275   .     A
C288   C292    1.365   .     S
C288   O333    1.275   .     A
C289   C310    1.411   .     A
C289   C312    1.411   .     A
C289   C402    1.515   1_545 S
C290   C311    1.411   .     A
C290   C401    1.515   .     S
C292   C515    1.165   .     S
C293   C298    1.382   .     A
C293   C304    1.397   .     A
C293   H320    1.084   .     S
C294   H321    1.084   .     S
C294   C305    1.397   .     A
C294   C299    1.382   .     A
C295   C300    1.382   .     A
C295   C305    1.397   .     A
C295   H322    1.084   .     S
C296   O328    1.283   .     A
C296   C303    1.427   .     S
C296   O329    1.283   .     A
C297   H323    1.084   .     S
C297   C304    1.397   .     A
C297   C301    1.382   .     A
C298   C302    1.403   .     A
C299   C303    1.403   .     A
C300   C303    1.403   .     A
C301   C302    1.403   .     A
C305   C248    1.441   1_655 S
C306   H313    1.082   .     S
C306   C310    1.408   .     A
C306   N325    1.363   .     A
C307   H317    1.082   .     S
C307   N326    1.363   .     A
C307   C311    1.408   .     A
C308   H318    1.082   .     S
C308   N325    1.363   .     A
C308   C312    1.408   .     A
C309   N326    1.363   .     A
C309   H319    1.082   .     S
C310   H324    1.082   .     S
C311   H314    1.082   .     S
C312   H315    1.082   .     S
N325   Zn336   2.007   .     S
N326   Zn335   2.007   .     S
O327   Zn335   1.993   .     S
O328   Zn336   1.993   .     S
O329   Zn335   1.993   .     S
O330   Zn336   1.993   .     S
O331   Zn335   1.949   .     S
O332   Zn336   1.949   .     S
O333   Zn335   1.949   .     S
O334   Zn336   1.949   .     S
Br337  C354    1.922   .     S
Br338  C355    1.922   .     S
Br339  C356    1.922   .     S
Br340  C357    1.922   .     S
C341   O383    1.283   .     A
C341   O386    1.283   .     A
C341   C358    1.427   .     S
C342   C346    1.411   .     A
C342   H372    1.082   .     S
C342   C365    1.408   .     A
C343   O390    1.275   .     A
C343   O387    1.275   .     A
C343   C347    1.365   .     S
C344   O388    1.275   .     A
C344   C348    1.365   .     S
C344   O389    1.275   .     A
C345   C366    1.411   .     A
C345   C368    1.411   .     A
C346   C367    1.411   .     A
C346   C233    1.515   1_565 S
C348   C571    1.165   .     S
C349   C354    1.382   .     A
C349   C360    1.397   .     A
C349   H376    1.084   .     S
C350   H377    1.084   .     S
C350   C361    1.397   .     A
C350   C355    1.382   .     A
C351   C356    1.382   .     A
C351   C361    1.397   .     A
C351   H378    1.084   .     S
C352   O384    1.283   .     A
C352   C359    1.427   .     S
C352   O385    1.283   .     A
C353   H379    1.084   .     S
C353   C360    1.397   .     A
C353   C357    1.382   .     A
C354   C358    1.403   .     A
C355   C359    1.403   .     A
C356   C359    1.403   .     A
C357   C358    1.403   .     A
C360   C417    1.441   1_455 S
C361   C416    1.441   .     S
C362   H369    1.082   .     S
C362   C366    1.408   .     A
C362   N381    1.363   .     A
C363   H373    1.082   .     S
C363   N382    1.363   .     A
C363   C367    1.408   .     A
C364   H374    1.082   .     S
C364   N381    1.363   .     A
C364   C368    1.408   .     A
C365   N382    1.363   .     A
C365   H375    1.082   .     S
C366   H380    1.082   .     S
C367   H370    1.082   .     S
C368   H371    1.082   .     S
N381   Zn392   2.007   .     S
N382   Zn391   2.007   .     S
O383   Zn391   1.993   .     S
O384   Zn392   1.993   .     S
O385   Zn391   1.993   .     S
O386   Zn392   1.993   .     S
O387   Zn391   1.949   .     S
O388   Zn392   1.949   .     S
O389   Zn391   1.949   .     S
O390   Zn392   1.949   .     S
Br393  C410    1.922   .     S
Br394  C411    1.922   .     S
Br395  C412    1.922   .     S
Br396  C413    1.922   .     S
C397   O439    1.283   .     A
C397   O442    1.283   .     A
C397   C414    1.427   .     S
C398   C402    1.411   .     A
C398   H428    1.082   .     S
C398   C421    1.408   .     A
C399   O446    1.275   .     A
C399   O443    1.275   .     A
C399   C403    1.365   .     S
C400   O444    1.275   .     A
C400   C404    1.365   .     S
C400   O445    1.275   .     A
C401   C422    1.411   .     A
C401   C424    1.411   .     A
C402   C423    1.411   .     A
C402   C289    1.515   1_565 S
C404   C627    1.165   .     S
C405   C410    1.382   .     A
C405   C416    1.397   .     A
C405   H432    1.084   .     S
C406   H433    1.084   .     S
C406   C417    1.397   .     A
C406   C411    1.382   .     A
C407   C412    1.382   .     A
C407   C417    1.397   .     A
C407   H434    1.084   .     S
C408   O440    1.283   .     A
C408   C415    1.427   .     S
C408   O441    1.283   .     A
C409   H435    1.084   .     S
C409   C416    1.397   .     A
C409   C413    1.382   .     A
C410   C414    1.403   .     A
C411   C415    1.403   .     A
C412   C415    1.403   .     A
C413   C414    1.403   .     A
C417   C360    1.441   1_655 S
C418   H425    1.082   .     S
C418   C422    1.408   .     A
C418   N437    1.363   .     A
C419   H429    1.082   .     S
C419   N438    1.363   .     A
C419   C423    1.408   .     A
C420   H430    1.082   .     S
C420   N437    1.363   .     A
C420   C424    1.408   .     A
C421   N438    1.363   .     A
C421   H431    1.082   .     S
C422   H436    1.082   .     S
C423   H426    1.082   .     S
C424   H427    1.082   .     S
N437   Zn448   2.007   .     S
N438   Zn447   2.007   .     S
O439   Zn447   1.993   .     S
O440   Zn448   1.993   .     S
O441   Zn447   1.993   .     S
O442   Zn448   1.993   .     S
O443   Zn447   1.949   .     S
O444   Zn448   1.949   .     S
O445   Zn447   1.949   .     S
O446   Zn448   1.949   .     S
Br449  C466    1.922   .     S
Br450  C467    1.922   .     S
Br451  C468    1.922   .     S
Br452  C469    1.922   .     S
C453   O495    1.283   .     A
C453   O498    1.283   .     A
C453   C470    1.427   .     S
C454   C458    1.411   .     A
C454   H484    1.082   .     S
C454   C477    1.408   .     A
C455   O502    1.275   .     A
C455   O499    1.275   .     A
C455   C459    1.365   .     S
C456   O500    1.275   .     A
C456   C460    1.365   .     S
C456   O501    1.275   .     A
C457   C478    1.411   .     A
C457   C480    1.411   .     A
C457   C570    1.515   1_545 S
C458   C479    1.411   .     A
C458   C569    1.515   .     S
C460   C11     1.165   1_556 S
C461   C466    1.382   .     A
C461   C472    1.397   .     A
C461   H488    1.084   .     S
C462   H489    1.084   .     S
C462   C473    1.397   .     A
C462   C467    1.382   .     A
C463   C468    1.382   .     A
C463   C473    1.397   .     A
C463   H490    1.084   .     S
C464   O496    1.283   .     A
C464   C471    1.427   .     S
C464   O497    1.283   .     A
C465   H491    1.084   .     S
C465   C472    1.397   .     A
C465   C469    1.382   .     A
C466   C470    1.403   .     A
C467   C471    1.403   .     A
C468   C471    1.403   .     A
C469   C470    1.403   .     A
C472   C529    1.441   1_455 S
C473   C528    1.441   .     S
C474   H481    1.082   .     S
C474   C478    1.408   .     A
C474   N493    1.363   .     A
C475   H485    1.082   .     S
C475   N494    1.363   .     A
C475   C479    1.408   .     A
C476   H486    1.082   .     S
C476   N493    1.363   .     A
C476   C480    1.408   .     A
C477   N494    1.363   .     A
C477   H487    1.082   .     S
C478   H492    1.082   .     S
C479   H482    1.082   .     S
C480   H483    1.082   .     S
N493   Zn504   2.007   .     S
N494   Zn503   2.007   .     S
O495   Zn503   1.993   .     S
O496   Zn504   1.993   .     S
O497   Zn503   1.993   .     S
O498   Zn504   1.993   .     S
O499   Zn503   1.949   .     S
O500   Zn504   1.949   .     S
O501   Zn503   1.949   .     S
O502   Zn504   1.949   .     S
Br505  C522    1.922   .     S
Br506  C523    1.922   .     S
Br507  C524    1.922   .     S
Br508  C525    1.922   .     S
C509   O551    1.283   .     A
C509   O554    1.283   .     A
C509   C526    1.427   .     S
C510   C514    1.411   .     A
C510   H540    1.082   .     S
C510   C533    1.408   .     A
C511   O558    1.275   .     A
C511   O555    1.275   .     A
C511   C515    1.365   .     S
C512   O556    1.275   .     A
C512   C516    1.365   .     S
C512   O557    1.275   .     A
C513   C534    1.411   .     A
C513   C536    1.411   .     A
C513   C626    1.515   1_545 S
C514   C535    1.411   .     A
C514   C625    1.515   .     S
C516   C67     1.165   1_556 S
C517   C522    1.382   .     A
C517   C528    1.397   .     A
C517   H544    1.084   .     S
C518   H545    1.084   .     S
C518   C529    1.397   .     A
C518   C523    1.382   .     A
C519   C524    1.382   .     A
C519   C529    1.397   .     A
C519   H546    1.084   .     S
C520   O552    1.283   .     A
C520   C527    1.427   .     S
C520   O553    1.283   .     A
C521   H547    1.084   .     S
C521   C528    1.397   .     A
C521   C525    1.382   .     A
C522   C526    1.403   .     A
C523   C527    1.403   .     A
C524   C527    1.403   .     A
C525   C526    1.403   .     A
C529   C472    1.441   1_655 S
C530   H537    1.082   .     S
C530   C534    1.408   .     A
C530   N549    1.363   .     A
C531   H541    1.082   .     S
C531   N550    1.363   .     A
C531   C535    1.408   .     A
C532   H542    1.082   .     S
C532   N549    1.363   .     A
C532   C536    1.408   .     A
C533   N550    1.363   .     A
C533   H543    1.082   .     S
C534   H548    1.082   .     S
C535   H538    1.082   .     S
C536   H539    1.082   .     S
N549   Zn560   2.007   .     S
N550   Zn559   2.007   .     S
O551   Zn559   1.993   .     S
O552   Zn560   1.993   .     S
O553   Zn559   1.993   .     S
O554   Zn560   1.993   .     S
O555   Zn559   1.949   .     S
O556   Zn560   1.949   .     S
O557   Zn559   1.949   .     S
O558   Zn560   1.949   .     S
Br561  C578    1.922   .     S
Br562  C579    1.922   .     S
Br563  C580    1.922   .     S
Br564  C581    1.922   .     S
C565   O607    1.283   .     A
C565   O610    1.283   .     A
C565   C582    1.427   .     S
C566   C570    1.411   .     A
C566   H596    1.082   .     S
C566   C589    1.408   .     A
C567   O614    1.275   .     A
C567   O611    1.275   .     A
C567   C571    1.365   .     S
C568   O612    1.275   .     A
C568   C572    1.365   .     S
C568   O613    1.275   .     A
C569   C590    1.411   .     A
C569   C592    1.411   .     A
C570   C591    1.411   .     A
C570   C457    1.515   1_565 S
C572   C123    1.165   1_556 S
C573   C578    1.382   .     A
C573   C584    1.397   .     A
C573   H600    1.084   .     S
C574   H601    1.084   .     S
C574   C585    1.397   .     A
C574   C579    1.382   .     A
C575   C580    1.382   .     A
C575   C585    1.397   .     A
C575   H602    1.084   .     S
C576   O608    1.283   .     A
C576   C583    1.427   .     S
C576   O609    1.283   .     A
C577   H603    1.084   .     S
C577   C584    1.397   .     A
C577   C581    1.382   .     A
C578   C582    1.403   .     A
C579   C583    1.403   .     A
C580   C583    1.403   .     A
C581   C582    1.403   .     A
C584   C641    1.441   1_455 S
C585   C640    1.441   .     S
C586   H593    1.082   .     S
C586   C590    1.408   .     A
C586   N605    1.363   .     A
C587   H597    1.082   .     S
C587   N606    1.363   .     A
C587   C591    1.408   .     A
C588   H598    1.082   .     S
C588   N605    1.363   .     A
C588   C592    1.408   .     A
C589   N606    1.363   .     A
C589   H599    1.082   .     S
C590   H604    1.082   .     S
C591   H594    1.082   .     S
C592   H595    1.082   .     S
N605   Zn616   2.007   .     S
N606   Zn615   2.007   .     S
O607   Zn615   1.993   .     S
O608   Zn616   1.993   .     S
O609   Zn615   1.993   .     S
O610   Zn616   1.993   .     S
O611   Zn615   1.949   .     S
O612   Zn616   1.949   .     S
O613   Zn615   1.949   .     S
O614   Zn616   1.949   .     S
Br617  C634    1.922   .     S
Br618  C635    1.922   .     S
Br619  C636    1.922   .     S
Br620  C637    1.922   .     S
C621   O663    1.283   .     A
C621   O666    1.283   .     A
C621   C638    1.427   .     S
C622   C626    1.411   .     A
C622   H652    1.082   .     S
C622   C645    1.408   .     A
C623   O670    1.275   .     A
C623   O667    1.275   .     A
C623   C627    1.365   .     S
C624   O668    1.275   .     A
C624   C628    1.365   .     S
C624   O669    1.275   .     A
C625   C646    1.411   .     A
C625   C648    1.411   .     A
C626   C647    1.411   .     A
C626   C513    1.515   1_565 S
C628   C179    1.165   1_556 S
C629   C634    1.382   .     A
C629   C640    1.397   .     A
C629   H656    1.084   .     S
C630   H657    1.084   .     S
C630   C641    1.397   .     A
C630   C635    1.382   .     A
C631   C636    1.382   .     A
C631   C641    1.397   .     A
C631   H658    1.084   .     S
C632   O664    1.283   .     A
C632   C639    1.427   .     S
C632   O665    1.283   .     A
C633   H659    1.084   .     S
C633   C640    1.397   .     A
C633   C637    1.382   .     A
C634   C638    1.403   .     A
C635   C639    1.403   .     A
C636   C639    1.403   .     A
C637   C638    1.403   .     A
C641   C584    1.441   1_655 S
C642   H649    1.082   .     S
C642   C646    1.408   .     A
C642   N661    1.363   .     A
C643   H653    1.082   .     S
C643   N662    1.363   .     A
C643   C647    1.408   .     A
C644   H654    1.082   .     S
C644   N661    1.363   .     A
C644   C648    1.408   .     A
C645   N662    1.363   .     A
C645   H655    1.082   .     S
C646   H660    1.082   .     S
C647   H650    1.082   .     S
C648   H651    1.082   .     S
N661   Zn672   2.007   .     S
N662   Zn671   2.007   .     S
O663   Zn671   1.993   .     S
O664   Zn672   1.993   .     S
O665   Zn671   1.993   .     S
O666   Zn672   1.993   .     S
O667   Zn671   1.949   .     S
O668   Zn672   1.949   .     S
O669   Zn671   1.949   .     S
O670   Zn672   1.949   .     S
