data_str_m3_o10_o18_pcu_sym.132
_audit_creation_date              2020-01-03
_audit_creation_method            'Materials Studio'
_symmetry_space_group_name_H-M    'P1'
_symmetry_Int_Tables_number       1
_symmetry_cell_setting            triclinic
loop_
_symmetry_equiv_pos_as_xyz
  x,y,z
_cell_length_a                    23.8054
_cell_length_b                    25.6807
_cell_length_c                    27.6662
_cell_angle_alpha                 94.8636
_cell_angle_beta                  93.5461
_cell_angle_gamma                 92.1144
loop_
_atom_site_label
_atom_site_type_symbol
_atom_site_fract_x
_atom_site_fract_y
_atom_site_fract_z
_atom_site_U_iso_or_equiv
_atom_site_adp_type
_atom_site_occupancy
C1     C     0.01318   0.26420   0.24581   0.00000  Uiso   1.00
C2     C     0.31255   0.16202   0.15885   0.00000  Uiso   1.00
C3     C     0.03144   0.17687   0.39409   0.00000  Uiso   1.00
C4     C     0.30366   0.15466   0.10575   0.00000  Uiso   1.00
C5     C     0.01286   0.21368   0.47473   0.00000  Uiso   1.00
C6     C     0.30920   0.10124   0.03030   0.00000  Uiso   1.00
C7     C     0.32731   0.20013   0.42650   0.00000  Uiso   1.00
C8     C     0.33163   0.11729   0.07691   0.00000  Uiso   1.00
C9     C     0.08352   0.16159   0.41233   0.00000  Uiso   1.00
C10    C     0.26036   0.18109   0.08446   0.00000  Uiso   1.00
C11    C     0.10001   0.16957   0.46162   0.00000  Uiso   1.00
C12    C     0.32006   0.06934   0.25421   0.00000  Uiso   1.00
C13    C     0.23135   0.16012   0.04101   0.00000  Uiso   1.00
C14    C     0.06668   0.20075   0.49160   0.00000  Uiso   1.00
C15    C     0.25755   0.11954   0.01364   0.00000  Uiso   1.00
C16    C     0.15137   0.15111   0.48042   0.00000  Uiso   1.00
C17    C     0.17637   0.17534   0.02533   0.00000  Uiso   1.00
C18    C     0.14659   0.20367   0.13419   0.00000  Uiso   1.00
C19    C     0.11631   0.03723   0.44063   0.00000  Uiso   1.00
C20    C     0.05688   0.29738   0.16179   0.00000  Uiso   1.00
C21    C     0.30609   0.03795   0.34712   0.00000  Uiso   1.00
C22    C     0.14262   0.06994   0.20526   0.00000  Uiso   1.00
C23    C     0.14299   0.21052   0.05356   0.00000  Uiso   1.00
C24    C     0.19549   0.25917   0.30405   0.00000  Uiso   1.00
C25    C     0.17710   0.10769   0.45644   0.00000  Uiso   1.00
C26    C     0.08826   0.22050   0.03719   0.00000  Uiso   1.00
C27    C     0.23075   0.09471   0.47166   0.00000  Uiso   1.00
C28    C     0.01379   0.31749   0.23504   0.00000  Uiso   1.00
C29    C     0.31907   0.01635   0.26492   0.00000  Uiso   1.00
C30    C     0.02110   0.17138   0.34112   0.00000  Uiso   1.00
Cl31   Cl    0.05964   0.08773   0.09700   0.00000  Uiso   1.00
Cl32   Cl    0.25820   0.21620   0.40932   0.00000  Uiso   1.00
H33    H     0.06333   0.24584   0.05986   0.00000  Uiso   1.00
H34    H     0.09430   0.01080   0.41105   0.00000  Uiso   1.00
H35    H     0.08353   0.05572   0.46252   0.00000  Uiso   1.00
H36    H     0.14304   0.01280   0.46333   0.00000  Uiso   1.00
H37    H     0.02976   0.26177   0.15087   0.00000  Uiso   1.00
H38    H     0.09725   0.28876   0.18110   0.00000  Uiso   1.00
H39    H     0.06754   0.31465   0.12799   0.00000  Uiso   1.00
H40    H     0.27543   0.06929   0.34431   0.00000  Uiso   1.00
H41    H     0.01684   0.05456   0.35087   0.00000  Uiso   1.00
H42    H     0.29862   0.01896   0.38082   0.00000  Uiso   1.00
H43    H     0.10102   0.06938   0.18567   0.00000  Uiso   1.00
H44    H     0.24986   0.06223   0.45214   0.00000  Uiso   1.00
H45    H     0.13992   0.05868   0.24309   0.00000  Uiso   1.00
H46    H     0.16786   0.04050   0.18566   0.00000  Uiso   1.00
H47    H     0.19726   0.27686   0.26876   0.00000  Uiso   1.00
H48    H     0.23787   0.25427   0.32114   0.00000  Uiso   1.00
H49    H     0.17369   0.28664   0.32896   0.00000  Uiso   1.00
H50    H     0.24993   0.21647   0.10450   0.00000  Uiso   1.00
H51    H     0.11310   0.14663   0.38713   0.00000  Uiso   1.00
H52    H     0.31925   0.23521   0.49877   0.00000  Uiso   1.00
H53    H     0.32980   0.07130   0.00867   0.00000  Uiso   1.00
H54    H     0.16267   0.16373   0.12804   0.00000  Uiso   1.00
H55    H     0.10043   0.20091   0.13562   0.00000  Uiso   1.00
H56    H     0.16520   0.22162   0.16969   0.00000  Uiso   1.00
N57    N     0.14695   0.15216   0.23739   0.00000  Uiso   1.00
N58    N     0.18638   0.18117   0.26260   0.00000  Uiso   1.00
O59    O     0.29719   0.24631   0.25309   0.00000  Uiso   1.00
O60    O     0.14920   0.07502   0.41956   0.00000  Uiso   1.00
O61    O     0.02797   0.00082   0.19015   0.00000  Uiso   1.00
O62    O     0.29751   0.33312   0.30724   0.00000  Uiso   1.00
O63    O     0.16906   0.11913   0.20403   0.00000  Uiso   1.00
O64    O     0.16499   0.21134   0.29859   0.00000  Uiso   1.00
O65    O     0.03614   0.08702   0.24690   0.00000  Uiso   1.00
O66    O     0.05822   0.23702   0.24501   0.00000  Uiso   1.00
O67    O     0.27512   0.09632   0.25499   0.00000  Uiso   1.00
O68    O     0.30328   0.17397   0.32247   0.00000  Uiso   1.00
O69    O     0.03005   0.15937   0.17753   0.00000  Uiso   1.00
O70    O     0.06431   0.16467   0.31439   0.00000  Uiso   1.00
O71    O     0.26902   0.16866   0.18561   0.00000  Uiso   1.00
O72    O     0.16164   0.23561   0.09783   0.00000  Uiso   1.00
Zn73   Zn    0.27033   0.17287   0.25539   0.00000  Uiso   1.00
Zn74   Zn    0.06300   0.16046   0.24460   0.00000  Uiso   1.00
C75    C     0.34651   0.26420   0.24581   0.00000  Uiso   1.00
C76    C     0.64588   0.16202   0.15885   0.00000  Uiso   1.00
C77    C     0.36477   0.17687   0.39409   0.00000  Uiso   1.00
C78    C     0.63700   0.15466   0.10575   0.00000  Uiso   1.00
C79    C     0.34619   0.21368   0.47473   0.00000  Uiso   1.00
C80    C     0.64253   0.10124   0.03030   0.00000  Uiso   1.00
C81    C     0.66064   0.20013   0.42650   0.00000  Uiso   1.00
C82    C     0.66497   0.11729   0.07691   0.00000  Uiso   1.00
C83    C     0.41685   0.16159   0.41233   0.00000  Uiso   1.00
C84    C     0.59369   0.18109   0.08446   0.00000  Uiso   1.00
C85    C     0.43335   0.16957   0.46162   0.00000  Uiso   1.00
C86    C     0.65340   0.06934   0.25421   0.00000  Uiso   1.00
C87    C     0.56468   0.16012   0.04101   0.00000  Uiso   1.00
C88    C     0.40001   0.20075   0.49160   0.00000  Uiso   1.00
C89    C     0.59089   0.11954   0.01364   0.00000  Uiso   1.00
C90    C     0.48470   0.15111   0.48042   0.00000  Uiso   1.00
C91    C     0.50970   0.17534   0.02533   0.00000  Uiso   1.00
C92    C     0.47992   0.20367   0.13419   0.00000  Uiso   1.00
C93    C     0.44964   0.03723   0.44063   0.00000  Uiso   1.00
C94    C     0.39022   0.29738   0.16179   0.00000  Uiso   1.00
C95    C     0.63942   0.03795   0.34712   0.00000  Uiso   1.00
C96    C     0.47595   0.06994   0.20526   0.00000  Uiso   1.00
C97    C     0.47632   0.21052   0.05356   0.00000  Uiso   1.00
C98    C     0.52883   0.25917   0.30405   0.00000  Uiso   1.00
C99    C     0.51043   0.10769   0.45644   0.00000  Uiso   1.00
C100   C     0.42160   0.22050   0.03719   0.00000  Uiso   1.00
C101   C     0.56409   0.09471   0.47166   0.00000  Uiso   1.00
C102   C     0.34712   0.31749   0.23504   0.00000  Uiso   1.00
C103   C     0.65240   0.01635   0.26492   0.00000  Uiso   1.00
C104   C     0.35443   0.17138   0.34112   0.00000  Uiso   1.00
Cl105  Cl    0.39297   0.08773   0.09700   0.00000  Uiso   1.00
Cl106  Cl    0.59153   0.21620   0.40932   0.00000  Uiso   1.00
H107   H     0.39666   0.24584   0.05986   0.00000  Uiso   1.00
H108   H     0.42764   0.01080   0.41105   0.00000  Uiso   1.00
H109   H     0.41686   0.05572   0.46252   0.00000  Uiso   1.00
H110   H     0.47637   0.01280   0.46333   0.00000  Uiso   1.00
H111   H     0.36309   0.26177   0.15087   0.00000  Uiso   1.00
H112   H     0.43059   0.28876   0.18110   0.00000  Uiso   1.00
H113   H     0.40087   0.31465   0.12799   0.00000  Uiso   1.00
H114   H     0.60876   0.06929   0.34431   0.00000  Uiso   1.00
H115   H     0.35017   0.05456   0.35087   0.00000  Uiso   1.00
H116   H     0.63195   0.01896   0.38082   0.00000  Uiso   1.00
H117   H     0.43436   0.06938   0.18567   0.00000  Uiso   1.00
H118   H     0.58319   0.06223   0.45214   0.00000  Uiso   1.00
H119   H     0.47325   0.05868   0.24309   0.00000  Uiso   1.00
H120   H     0.50119   0.04050   0.18566   0.00000  Uiso   1.00
H121   H     0.53059   0.27686   0.26876   0.00000  Uiso   1.00
H122   H     0.57120   0.25427   0.32114   0.00000  Uiso   1.00
H123   H     0.50702   0.28664   0.32896   0.00000  Uiso   1.00
H124   H     0.58326   0.21647   0.10450   0.00000  Uiso   1.00
H125   H     0.44643   0.14663   0.38713   0.00000  Uiso   1.00
H126   H     0.65258   0.23521   0.49877   0.00000  Uiso   1.00
H127   H     0.66313   0.07130   0.00867   0.00000  Uiso   1.00
H128   H     0.49601   0.16373   0.12804   0.00000  Uiso   1.00
H129   H     0.43376   0.20091   0.13562   0.00000  Uiso   1.00
H130   H     0.49853   0.22162   0.16969   0.00000  Uiso   1.00
N131   N     0.48029   0.15216   0.23739   0.00000  Uiso   1.00
N132   N     0.51971   0.18117   0.26260   0.00000  Uiso   1.00
O133   O     0.63052   0.24631   0.25309   0.00000  Uiso   1.00
O134   O     0.48253   0.07502   0.41956   0.00000  Uiso   1.00
O135   O     0.36130   0.00082   0.19015   0.00000  Uiso   1.00
O136   O     0.63084   0.33312   0.30724   0.00000  Uiso   1.00
O137   O     0.50240   0.11913   0.20403   0.00000  Uiso   1.00
O138   O     0.49832   0.21134   0.29859   0.00000  Uiso   1.00
O139   O     0.36948   0.08702   0.24690   0.00000  Uiso   1.00
O140   O     0.39155   0.23702   0.24501   0.00000  Uiso   1.00
O141   O     0.60845   0.09632   0.25499   0.00000  Uiso   1.00
O142   O     0.63662   0.17397   0.32247   0.00000  Uiso   1.00
O143   O     0.36338   0.15937   0.17753   0.00000  Uiso   1.00
O144   O     0.39764   0.16467   0.31439   0.00000  Uiso   1.00
O145   O     0.60236   0.16866   0.18561   0.00000  Uiso   1.00
O146   O     0.49498   0.23561   0.09783   0.00000  Uiso   1.00
Zn147  Zn    0.60366   0.17287   0.25539   0.00000  Uiso   1.00
Zn148  Zn    0.39634   0.16046   0.24460   0.00000  Uiso   1.00
C149   C     0.67984   0.26420   0.24581   0.00000  Uiso   1.00
C150   C     0.97922   0.16202   0.15885   0.00000  Uiso   1.00
C151   C     0.69811   0.17687   0.39409   0.00000  Uiso   1.00
C152   C     0.97033   0.15466   0.10575   0.00000  Uiso   1.00
C153   C     0.67953   0.21368   0.47473   0.00000  Uiso   1.00
C154   C     0.97587   0.10124   0.03030   0.00000  Uiso   1.00
C155   C     0.99397   0.20013   0.42650   0.00000  Uiso   1.00
C156   C     0.99830   0.11729   0.07691   0.00000  Uiso   1.00
C157   C     0.75019   0.16159   0.41233   0.00000  Uiso   1.00
C158   C     0.92703   0.18109   0.08446   0.00000  Uiso   1.00
C159   C     0.76668   0.16957   0.46162   0.00000  Uiso   1.00
C160   C     0.98673   0.06934   0.25421   0.00000  Uiso   1.00
C161   C     0.89801   0.16012   0.04101   0.00000  Uiso   1.00
C162   C     0.73334   0.20075   0.49160   0.00000  Uiso   1.00
C163   C     0.92422   0.11954   0.01364   0.00000  Uiso   1.00
C164   C     0.81803   0.15111   0.48042   0.00000  Uiso   1.00
C165   C     0.84304   0.17534   0.02533   0.00000  Uiso   1.00
C166   C     0.81325   0.20367   0.13419   0.00000  Uiso   1.00
C167   C     0.78297   0.03723   0.44063   0.00000  Uiso   1.00
C168   C     0.72355   0.29738   0.16179   0.00000  Uiso   1.00
C169   C     0.97275   0.03795   0.34712   0.00000  Uiso   1.00
C170   C     0.80929   0.06994   0.20526   0.00000  Uiso   1.00
C171   C     0.80966   0.21052   0.05356   0.00000  Uiso   1.00
C172   C     0.86216   0.25917   0.30405   0.00000  Uiso   1.00
C173   C     0.84377   0.10769   0.45644   0.00000  Uiso   1.00
C174   C     0.75493   0.22050   0.03719   0.00000  Uiso   1.00
C175   C     0.89742   0.09471   0.47166   0.00000  Uiso   1.00
C176   C     0.68046   0.31749   0.23504   0.00000  Uiso   1.00
C177   C     0.98574   0.01635   0.26492   0.00000  Uiso   1.00
C178   C     0.68776   0.17138   0.34112   0.00000  Uiso   1.00
Cl179  Cl    0.72630   0.08773   0.09700   0.00000  Uiso   1.00
Cl180  Cl    0.92486   0.21620   0.40932   0.00000  Uiso   1.00
H181   H     0.73000   0.24584   0.05986   0.00000  Uiso   1.00
H182   H     0.76097   0.01080   0.41105   0.00000  Uiso   1.00
H183   H     0.75020   0.05572   0.46252   0.00000  Uiso   1.00
H184   H     0.80971   0.01280   0.46333   0.00000  Uiso   1.00
H185   H     0.69643   0.26177   0.15087   0.00000  Uiso   1.00
H186   H     0.76392   0.28876   0.18110   0.00000  Uiso   1.00
H187   H     0.73421   0.31465   0.12799   0.00000  Uiso   1.00
H188   H     0.94209   0.06929   0.34431   0.00000  Uiso   1.00
H189   H     0.68350   0.05456   0.35087   0.00000  Uiso   1.00
H190   H     0.96528   0.01896   0.38082   0.00000  Uiso   1.00
H191   H     0.76769   0.06938   0.18567   0.00000  Uiso   1.00
H192   H     0.91652   0.06223   0.45214   0.00000  Uiso   1.00
H193   H     0.80659   0.05868   0.24309   0.00000  Uiso   1.00
H194   H     0.83452   0.04050   0.18566   0.00000  Uiso   1.00
H195   H     0.86392   0.27686   0.26876   0.00000  Uiso   1.00
H196   H     0.90453   0.25427   0.32114   0.00000  Uiso   1.00
H197   H     0.84036   0.28664   0.32896   0.00000  Uiso   1.00
H198   H     0.91660   0.21647   0.10450   0.00000  Uiso   1.00
H199   H     0.77976   0.14663   0.38713   0.00000  Uiso   1.00
H200   H     0.98592   0.23521   0.49877   0.00000  Uiso   1.00
H201   H     0.99646   0.07130   0.00867   0.00000  Uiso   1.00
H202   H     0.82934   0.16373   0.12804   0.00000  Uiso   1.00
H203   H     0.76710   0.20091   0.13562   0.00000  Uiso   1.00
H204   H     0.83186   0.22162   0.16969   0.00000  Uiso   1.00
N205   N     0.81362   0.15216   0.23739   0.00000  Uiso   1.00
N206   N     0.85305   0.18117   0.26260   0.00000  Uiso   1.00
O207   O     0.96386   0.24631   0.25309   0.00000  Uiso   1.00
O208   O     0.81586   0.07502   0.41956   0.00000  Uiso   1.00
O209   O     0.69463   0.00082   0.19015   0.00000  Uiso   1.00
O210   O     0.96418   0.33312   0.30724   0.00000  Uiso   1.00
O211   O     0.83573   0.11913   0.20403   0.00000  Uiso   1.00
O212   O     0.83165   0.21134   0.29859   0.00000  Uiso   1.00
O213   O     0.70281   0.08702   0.24690   0.00000  Uiso   1.00
O214   O     0.72488   0.23702   0.24501   0.00000  Uiso   1.00
O215   O     0.94178   0.09632   0.25499   0.00000  Uiso   1.00
O216   O     0.96995   0.17397   0.32247   0.00000  Uiso   1.00
O217   O     0.69672   0.15937   0.17753   0.00000  Uiso   1.00
O218   O     0.73098   0.16467   0.31439   0.00000  Uiso   1.00
O219   O     0.93569   0.16866   0.18561   0.00000  Uiso   1.00
O220   O     0.82831   0.23561   0.09783   0.00000  Uiso   1.00
Zn221  Zn    0.93700   0.17287   0.25539   0.00000  Uiso   1.00
Zn222  Zn    0.72967   0.16046   0.24460   0.00000  Uiso   1.00
C223   C     0.01318   0.59754   0.24581   0.00000  Uiso   1.00
C224   C     0.31255   0.49535   0.15885   0.00000  Uiso   1.00
C225   C     0.03144   0.51021   0.39409   0.00000  Uiso   1.00
C226   C     0.30366   0.48799   0.10575   0.00000  Uiso   1.00
C227   C     0.01286   0.54701   0.47473   0.00000  Uiso   1.00
C228   C     0.30920   0.43457   0.03030   0.00000  Uiso   1.00
C229   C     0.32731   0.53346   0.42650   0.00000  Uiso   1.00
C230   C     0.33163   0.45062   0.07691   0.00000  Uiso   1.00
C231   C     0.08352   0.49492   0.41233   0.00000  Uiso   1.00
C232   C     0.26036   0.51443   0.08446   0.00000  Uiso   1.00
C233   C     0.10001   0.50290   0.46162   0.00000  Uiso   1.00
C234   C     0.32006   0.40267   0.25421   0.00000  Uiso   1.00
C235   C     0.23135   0.49346   0.04101   0.00000  Uiso   1.00
C236   C     0.06668   0.53408   0.49160   0.00000  Uiso   1.00
C237   C     0.25755   0.45287   0.01364   0.00000  Uiso   1.00
C238   C     0.15137   0.48444   0.48042   0.00000  Uiso   1.00
C239   C     0.17637   0.50867   0.02533   0.00000  Uiso   1.00
C240   C     0.14659   0.53700   0.13419   0.00000  Uiso   1.00
C241   C     0.11631   0.37056   0.44063   0.00000  Uiso   1.00
C242   C     0.05688   0.63071   0.16179   0.00000  Uiso   1.00
C243   C     0.30609   0.37128   0.34712   0.00000  Uiso   1.00
C244   C     0.14262   0.40327   0.20526   0.00000  Uiso   1.00
C245   C     0.14299   0.54385   0.05356   0.00000  Uiso   1.00
C246   C     0.19549   0.59250   0.30405   0.00000  Uiso   1.00
C247   C     0.17710   0.44102   0.45644   0.00000  Uiso   1.00
C248   C     0.08826   0.55384   0.03719   0.00000  Uiso   1.00
C249   C     0.23075   0.42805   0.47166   0.00000  Uiso   1.00
C250   C     0.01379   0.65082   0.23504   0.00000  Uiso   1.00
C251   C     0.31907   0.34969   0.26492   0.00000  Uiso   1.00
C252   C     0.02110   0.50471   0.34112   0.00000  Uiso   1.00
Cl253  Cl    0.05964   0.42106   0.09700   0.00000  Uiso   1.00
Cl254  Cl    0.25820   0.54953   0.40932   0.00000  Uiso   1.00
H255   H     0.06333   0.57917   0.05986   0.00000  Uiso   1.00
H256   H     0.09430   0.34413   0.41105   0.00000  Uiso   1.00
H257   H     0.08353   0.38905   0.46252   0.00000  Uiso   1.00
H258   H     0.14304   0.34614   0.46333   0.00000  Uiso   1.00
H259   H     0.02976   0.59510   0.15087   0.00000  Uiso   1.00
H260   H     0.09725   0.62209   0.18110   0.00000  Uiso   1.00
H261   H     0.06754   0.64798   0.12799   0.00000  Uiso   1.00
H262   H     0.27543   0.40262   0.34431   0.00000  Uiso   1.00
H263   H     0.01684   0.38790   0.35087   0.00000  Uiso   1.00
H264   H     0.29862   0.35229   0.38082   0.00000  Uiso   1.00
H265   H     0.10102   0.40271   0.18567   0.00000  Uiso   1.00
H266   H     0.24986   0.39557   0.45214   0.00000  Uiso   1.00
H267   H     0.13992   0.39201   0.24309   0.00000  Uiso   1.00
H268   H     0.16786   0.37383   0.18566   0.00000  Uiso   1.00
H269   H     0.19726   0.61020   0.26876   0.00000  Uiso   1.00
H270   H     0.23787   0.58760   0.32114   0.00000  Uiso   1.00
H271   H     0.17369   0.61997   0.32896   0.00000  Uiso   1.00
H272   H     0.24993   0.54980   0.10450   0.00000  Uiso   1.00
H273   H     0.11310   0.47996   0.38713   0.00000  Uiso   1.00
H274   H     0.31925   0.56854   0.49877   0.00000  Uiso   1.00
H275   H     0.32980   0.40464   0.00867   0.00000  Uiso   1.00
H276   H     0.16267   0.49706   0.12804   0.00000  Uiso   1.00
H277   H     0.10043   0.53425   0.13562   0.00000  Uiso   1.00
H278   H     0.16520   0.55495   0.16969   0.00000  Uiso   1.00
N279   N     0.14695   0.48550   0.23739   0.00000  Uiso   1.00
N280   N     0.18638   0.51450   0.26260   0.00000  Uiso   1.00
O281   O     0.29719   0.57964   0.25309   0.00000  Uiso   1.00
O282   O     0.14920   0.40835   0.41956   0.00000  Uiso   1.00
O283   O     0.02797   0.33415   0.19015   0.00000  Uiso   1.00
O284   O     0.29751   0.66646   0.30724   0.00000  Uiso   1.00
O285   O     0.16906   0.45246   0.20403   0.00000  Uiso   1.00
O286   O     0.16499   0.54467   0.29859   0.00000  Uiso   1.00
O287   O     0.03614   0.42036   0.24690   0.00000  Uiso   1.00
O288   O     0.05822   0.57035   0.24501   0.00000  Uiso   1.00
O289   O     0.27512   0.42965   0.25499   0.00000  Uiso   1.00
O290   O     0.30328   0.50730   0.32247   0.00000  Uiso   1.00
O291   O     0.03005   0.49270   0.17753   0.00000  Uiso   1.00
O292   O     0.06431   0.49801   0.31439   0.00000  Uiso   1.00
O293   O     0.26902   0.50199   0.18561   0.00000  Uiso   1.00
O294   O     0.16164   0.56894   0.09783   0.00000  Uiso   1.00
Zn295  Zn    0.27033   0.50621   0.25539   0.00000  Uiso   1.00
Zn296  Zn    0.06300   0.49379   0.24460   0.00000  Uiso   1.00
C297   C     0.34651   0.59754   0.24581   0.00000  Uiso   1.00
C298   C     0.64588   0.49535   0.15885   0.00000  Uiso   1.00
C299   C     0.36477   0.51021   0.39409   0.00000  Uiso   1.00
C300   C     0.63700   0.48799   0.10575   0.00000  Uiso   1.00
C301   C     0.34619   0.54701   0.47473   0.00000  Uiso   1.00
C302   C     0.64253   0.43457   0.03030   0.00000  Uiso   1.00
C303   C     0.66064   0.53346   0.42650   0.00000  Uiso   1.00
C304   C     0.66497   0.45062   0.07691   0.00000  Uiso   1.00
C305   C     0.41685   0.49492   0.41233   0.00000  Uiso   1.00
C306   C     0.59369   0.51443   0.08446   0.00000  Uiso   1.00
C307   C     0.43335   0.50290   0.46162   0.00000  Uiso   1.00
C308   C     0.65340   0.40267   0.25421   0.00000  Uiso   1.00
C309   C     0.56468   0.49346   0.04101   0.00000  Uiso   1.00
C310   C     0.40001   0.53408   0.49160   0.00000  Uiso   1.00
C311   C     0.59089   0.45287   0.01364   0.00000  Uiso   1.00
C312   C     0.48470   0.48444   0.48042   0.00000  Uiso   1.00
C313   C     0.50970   0.50867   0.02533   0.00000  Uiso   1.00
C314   C     0.47992   0.53700   0.13419   0.00000  Uiso   1.00
C315   C     0.44964   0.37056   0.44063   0.00000  Uiso   1.00
C316   C     0.39022   0.63071   0.16179   0.00000  Uiso   1.00
C317   C     0.63942   0.37128   0.34712   0.00000  Uiso   1.00
C318   C     0.47595   0.40327   0.20526   0.00000  Uiso   1.00
C319   C     0.47632   0.54385   0.05356   0.00000  Uiso   1.00
C320   C     0.52883   0.59250   0.30405   0.00000  Uiso   1.00
C321   C     0.51043   0.44102   0.45644   0.00000  Uiso   1.00
C322   C     0.42160   0.55384   0.03719   0.00000  Uiso   1.00
C323   C     0.56409   0.42805   0.47166   0.00000  Uiso   1.00
C324   C     0.34712   0.65082   0.23504   0.00000  Uiso   1.00
C325   C     0.65240   0.34969   0.26492   0.00000  Uiso   1.00
C326   C     0.35443   0.50471   0.34112   0.00000  Uiso   1.00
Cl327  Cl    0.39297   0.42106   0.09700   0.00000  Uiso   1.00
Cl328  Cl    0.59153   0.54953   0.40932   0.00000  Uiso   1.00
H329   H     0.39666   0.57917   0.05986   0.00000  Uiso   1.00
H330   H     0.42764   0.34413   0.41105   0.00000  Uiso   1.00
H331   H     0.41686   0.38905   0.46252   0.00000  Uiso   1.00
H332   H     0.47637   0.34614   0.46333   0.00000  Uiso   1.00
H333   H     0.36309   0.59510   0.15087   0.00000  Uiso   1.00
H334   H     0.43059   0.62209   0.18110   0.00000  Uiso   1.00
H335   H     0.40087   0.64798   0.12799   0.00000  Uiso   1.00
H336   H     0.60876   0.40262   0.34431   0.00000  Uiso   1.00
H337   H     0.35017   0.38790   0.35087   0.00000  Uiso   1.00
H338   H     0.63195   0.35229   0.38082   0.00000  Uiso   1.00
H339   H     0.43436   0.40271   0.18567   0.00000  Uiso   1.00
H340   H     0.58319   0.39557   0.45214   0.00000  Uiso   1.00
H341   H     0.47325   0.39201   0.24309   0.00000  Uiso   1.00
H342   H     0.50119   0.37383   0.18566   0.00000  Uiso   1.00
H343   H     0.53059   0.61020   0.26876   0.00000  Uiso   1.00
H344   H     0.57120   0.58760   0.32114   0.00000  Uiso   1.00
H345   H     0.50702   0.61997   0.32896   0.00000  Uiso   1.00
H346   H     0.58326   0.54980   0.10450   0.00000  Uiso   1.00
H347   H     0.44643   0.47996   0.38713   0.00000  Uiso   1.00
H348   H     0.65258   0.56854   0.49877   0.00000  Uiso   1.00
H349   H     0.66313   0.40464   0.00867   0.00000  Uiso   1.00
H350   H     0.49601   0.49706   0.12804   0.00000  Uiso   1.00
H351   H     0.43376   0.53425   0.13562   0.00000  Uiso   1.00
H352   H     0.49853   0.55495   0.16969   0.00000  Uiso   1.00
N353   N     0.48029   0.48550   0.23739   0.00000  Uiso   1.00
N354   N     0.51971   0.51450   0.26260   0.00000  Uiso   1.00
O355   O     0.63052   0.57964   0.25309   0.00000  Uiso   1.00
O356   O     0.48253   0.40835   0.41956   0.00000  Uiso   1.00
O357   O     0.36130   0.33415   0.19015   0.00000  Uiso   1.00
O358   O     0.63084   0.66646   0.30724   0.00000  Uiso   1.00
O359   O     0.50240   0.45246   0.20403   0.00000  Uiso   1.00
O360   O     0.49832   0.54467   0.29859   0.00000  Uiso   1.00
O361   O     0.36948   0.42036   0.24690   0.00000  Uiso   1.00
O362   O     0.39155   0.57035   0.24501   0.00000  Uiso   1.00
O363   O     0.60845   0.42965   0.25499   0.00000  Uiso   1.00
O364   O     0.63662   0.50730   0.32247   0.00000  Uiso   1.00
O365   O     0.36338   0.49270   0.17753   0.00000  Uiso   1.00
O366   O     0.39764   0.49801   0.31439   0.00000  Uiso   1.00
O367   O     0.60236   0.50199   0.18561   0.00000  Uiso   1.00
O368   O     0.49498   0.56894   0.09783   0.00000  Uiso   1.00
Zn369  Zn    0.60366   0.50621   0.25539   0.00000  Uiso   1.00
Zn370  Zn    0.39634   0.49379   0.24460   0.00000  Uiso   1.00
C371   C     0.67984   0.59754   0.24581   0.00000  Uiso   1.00
C372   C     0.97922   0.49535   0.15885   0.00000  Uiso   1.00
C373   C     0.69811   0.51021   0.39409   0.00000  Uiso   1.00
C374   C     0.97033   0.48799   0.10575   0.00000  Uiso   1.00
C375   C     0.67953   0.54701   0.47473   0.00000  Uiso   1.00
C376   C     0.97587   0.43457   0.03030   0.00000  Uiso   1.00
C377   C     0.99397   0.53346   0.42650   0.00000  Uiso   1.00
C378   C     0.99830   0.45062   0.07691   0.00000  Uiso   1.00
C379   C     0.75019   0.49492   0.41233   0.00000  Uiso   1.00
C380   C     0.92703   0.51443   0.08446   0.00000  Uiso   1.00
C381   C     0.76668   0.50290   0.46162   0.00000  Uiso   1.00
C382   C     0.98673   0.40267   0.25421   0.00000  Uiso   1.00
C383   C     0.89801   0.49346   0.04101   0.00000  Uiso   1.00
C384   C     0.73334   0.53408   0.49160   0.00000  Uiso   1.00
C385   C     0.92422   0.45287   0.01364   0.00000  Uiso   1.00
C386   C     0.81803   0.48444   0.48042   0.00000  Uiso   1.00
C387   C     0.84304   0.50867   0.02533   0.00000  Uiso   1.00
C388   C     0.81325   0.53700   0.13419   0.00000  Uiso   1.00
C389   C     0.78297   0.37056   0.44063   0.00000  Uiso   1.00
C390   C     0.72355   0.63071   0.16179   0.00000  Uiso   1.00
C391   C     0.97275   0.37128   0.34712   0.00000  Uiso   1.00
C392   C     0.80929   0.40327   0.20526   0.00000  Uiso   1.00
C393   C     0.80966   0.54385   0.05356   0.00000  Uiso   1.00
C394   C     0.86216   0.59250   0.30405   0.00000  Uiso   1.00
C395   C     0.84377   0.44102   0.45644   0.00000  Uiso   1.00
C396   C     0.75493   0.55384   0.03719   0.00000  Uiso   1.00
C397   C     0.89742   0.42805   0.47166   0.00000  Uiso   1.00
C398   C     0.68046   0.65082   0.23504   0.00000  Uiso   1.00
C399   C     0.98574   0.34969   0.26492   0.00000  Uiso   1.00
C400   C     0.68776   0.50471   0.34112   0.00000  Uiso   1.00
Cl401  Cl    0.72630   0.42106   0.09700   0.00000  Uiso   1.00
Cl402  Cl    0.92486   0.54953   0.40932   0.00000  Uiso   1.00
H403   H     0.73000   0.57917   0.05986   0.00000  Uiso   1.00
H404   H     0.76097   0.34413   0.41105   0.00000  Uiso   1.00
H405   H     0.75020   0.38905   0.46252   0.00000  Uiso   1.00
H406   H     0.80971   0.34614   0.46333   0.00000  Uiso   1.00
H407   H     0.69643   0.59510   0.15087   0.00000  Uiso   1.00
H408   H     0.76392   0.62209   0.18110   0.00000  Uiso   1.00
H409   H     0.73421   0.64798   0.12799   0.00000  Uiso   1.00
H410   H     0.94209   0.40262   0.34431   0.00000  Uiso   1.00
H411   H     0.68350   0.38790   0.35087   0.00000  Uiso   1.00
H412   H     0.96528   0.35229   0.38082   0.00000  Uiso   1.00
H413   H     0.76769   0.40271   0.18567   0.00000  Uiso   1.00
H414   H     0.91652   0.39557   0.45214   0.00000  Uiso   1.00
H415   H     0.80659   0.39201   0.24309   0.00000  Uiso   1.00
H416   H     0.83452   0.37383   0.18566   0.00000  Uiso   1.00
H417   H     0.86392   0.61020   0.26876   0.00000  Uiso   1.00
H418   H     0.90453   0.58760   0.32114   0.00000  Uiso   1.00
H419   H     0.84036   0.61997   0.32896   0.00000  Uiso   1.00
H420   H     0.91660   0.54980   0.10450   0.00000  Uiso   1.00
H421   H     0.77976   0.47996   0.38713   0.00000  Uiso   1.00
H422   H     0.98592   0.56854   0.49877   0.00000  Uiso   1.00
H423   H     0.99646   0.40464   0.00867   0.00000  Uiso   1.00
H424   H     0.82934   0.49706   0.12804   0.00000  Uiso   1.00
H425   H     0.76710   0.53425   0.13562   0.00000  Uiso   1.00
H426   H     0.83186   0.55495   0.16969   0.00000  Uiso   1.00
N427   N     0.81362   0.48550   0.23739   0.00000  Uiso   1.00
N428   N     0.85305   0.51450   0.26260   0.00000  Uiso   1.00
O429   O     0.96386   0.57964   0.25309   0.00000  Uiso   1.00
O430   O     0.81586   0.40835   0.41956   0.00000  Uiso   1.00
O431   O     0.69463   0.33415   0.19015   0.00000  Uiso   1.00
O432   O     0.96418   0.66646   0.30724   0.00000  Uiso   1.00
O433   O     0.83573   0.45246   0.20403   0.00000  Uiso   1.00
O434   O     0.83165   0.54467   0.29859   0.00000  Uiso   1.00
O435   O     0.70281   0.42036   0.24690   0.00000  Uiso   1.00
O436   O     0.72488   0.57035   0.24501   0.00000  Uiso   1.00
O437   O     0.94178   0.42965   0.25499   0.00000  Uiso   1.00
O438   O     0.96995   0.50730   0.32247   0.00000  Uiso   1.00
O439   O     0.69672   0.49270   0.17753   0.00000  Uiso   1.00
O440   O     0.73098   0.49801   0.31439   0.00000  Uiso   1.00
O441   O     0.93569   0.50199   0.18561   0.00000  Uiso   1.00
O442   O     0.82831   0.56894   0.09783   0.00000  Uiso   1.00
Zn443  Zn    0.93700   0.50621   0.25539   0.00000  Uiso   1.00
Zn444  Zn    0.72967   0.49379   0.24460   0.00000  Uiso   1.00
C445   C     0.01318   0.93087   0.24581   0.00000  Uiso   1.00
C446   C     0.31255   0.82868   0.15885   0.00000  Uiso   1.00
C447   C     0.03144   0.84354   0.39409   0.00000  Uiso   1.00
C448   C     0.30366   0.82133   0.10575   0.00000  Uiso   1.00
C449   C     0.01286   0.88034   0.47473   0.00000  Uiso   1.00
C450   C     0.30920   0.76791   0.03030   0.00000  Uiso   1.00
C451   C     0.32731   0.86680   0.42650   0.00000  Uiso   1.00
C452   C     0.33163   0.78395   0.07691   0.00000  Uiso   1.00
C453   C     0.08352   0.82826   0.41233   0.00000  Uiso   1.00
C454   C     0.26036   0.84776   0.08446   0.00000  Uiso   1.00
C455   C     0.10001   0.83624   0.46162   0.00000  Uiso   1.00
C456   C     0.32006   0.73600   0.25421   0.00000  Uiso   1.00
C457   C     0.23135   0.82679   0.04101   0.00000  Uiso   1.00
C458   C     0.06668   0.86741   0.49160   0.00000  Uiso   1.00
C459   C     0.25755   0.78620   0.01364   0.00000  Uiso   1.00
C460   C     0.15137   0.81777   0.48042   0.00000  Uiso   1.00
C461   C     0.17637   0.84201   0.02533   0.00000  Uiso   1.00
C462   C     0.14659   0.87034   0.13419   0.00000  Uiso   1.00
C463   C     0.11631   0.70390   0.44063   0.00000  Uiso   1.00
C464   C     0.05688   0.96405   0.16179   0.00000  Uiso   1.00
C465   C     0.30609   0.70461   0.34712   0.00000  Uiso   1.00
C466   C     0.14262   0.73661   0.20526   0.00000  Uiso   1.00
C467   C     0.14299   0.87719   0.05356   0.00000  Uiso   1.00
C468   C     0.19549   0.92584   0.30405   0.00000  Uiso   1.00
C469   C     0.17710   0.77436   0.45644   0.00000  Uiso   1.00
C470   C     0.08826   0.88717   0.03719   0.00000  Uiso   1.00
C471   C     0.23075   0.76138   0.47166   0.00000  Uiso   1.00
C472   C     0.01379   0.98415   0.23504   0.00000  Uiso   1.00
C473   C     0.31907   0.68302   0.26492   0.00000  Uiso   1.00
C474   C     0.02110   0.83804   0.34112   0.00000  Uiso   1.00
Cl475  Cl    0.05964   0.75440   0.09700   0.00000  Uiso   1.00
Cl476  Cl    0.25820   0.88286   0.40932   0.00000  Uiso   1.00
H477   H     0.06333   0.91250   0.05986   0.00000  Uiso   1.00
H478   H     0.09430   0.67747   0.41105   0.00000  Uiso   1.00
H479   H     0.08353   0.72238   0.46252   0.00000  Uiso   1.00
H480   H     0.14304   0.67947   0.46333   0.00000  Uiso   1.00
H481   H     0.02976   0.92843   0.15087   0.00000  Uiso   1.00
H482   H     0.09725   0.95543   0.18110   0.00000  Uiso   1.00
H483   H     0.06754   0.98131   0.12799   0.00000  Uiso   1.00
H484   H     0.27543   0.73595   0.34431   0.00000  Uiso   1.00
H485   H     0.01684   0.72123   0.35087   0.00000  Uiso   1.00
H486   H     0.29862   0.68562   0.38082   0.00000  Uiso   1.00
H487   H     0.10102   0.73604   0.18567   0.00000  Uiso   1.00
H488   H     0.24986   0.72890   0.45214   0.00000  Uiso   1.00
H489   H     0.13992   0.72534   0.24309   0.00000  Uiso   1.00
H490   H     0.16786   0.70717   0.18566   0.00000  Uiso   1.00
H491   H     0.19726   0.94353   0.26876   0.00000  Uiso   1.00
H492   H     0.23787   0.92093   0.32114   0.00000  Uiso   1.00
H493   H     0.17369   0.95331   0.32896   0.00000  Uiso   1.00
H494   H     0.24993   0.88314   0.10450   0.00000  Uiso   1.00
H495   H     0.11310   0.81330   0.38713   0.00000  Uiso   1.00
H496   H     0.31925   0.90188   0.49877   0.00000  Uiso   1.00
H497   H     0.32980   0.73797   0.00867   0.00000  Uiso   1.00
H498   H     0.16267   0.83039   0.12804   0.00000  Uiso   1.00
H499   H     0.10043   0.86758   0.13562   0.00000  Uiso   1.00
H500   H     0.16520   0.88829   0.16969   0.00000  Uiso   1.00
N501   N     0.14695   0.81883   0.23739   0.00000  Uiso   1.00
N502   N     0.18638   0.84784   0.26260   0.00000  Uiso   1.00
O503   O     0.29719   0.91298   0.25309   0.00000  Uiso   1.00
O504   O     0.14920   0.74169   0.41956   0.00000  Uiso   1.00
O505   O     0.02797   0.66748   0.19015   0.00000  Uiso   1.00
O506   O     0.29751   0.99979   0.30724   0.00000  Uiso   1.00
O507   O     0.16906   0.78579   0.20403   0.00000  Uiso   1.00
O508   O     0.16499   0.87800   0.29859   0.00000  Uiso   1.00
O509   O     0.03614   0.75369   0.24690   0.00000  Uiso   1.00
O510   O     0.05822   0.90368   0.24501   0.00000  Uiso   1.00
O511   O     0.27512   0.76298   0.25499   0.00000  Uiso   1.00
O512   O     0.30328   0.84063   0.32247   0.00000  Uiso   1.00
O513   O     0.03005   0.82603   0.17753   0.00000  Uiso   1.00
O514   O     0.06431   0.83134   0.31439   0.00000  Uiso   1.00
O515   O     0.26902   0.83533   0.18561   0.00000  Uiso   1.00
O516   O     0.16164   0.90228   0.09783   0.00000  Uiso   1.00
Zn517  Zn    0.27033   0.83954   0.25539   0.00000  Uiso   1.00
Zn518  Zn    0.06300   0.82713   0.24460   0.00000  Uiso   1.00
C519   C     0.34651   0.93087   0.24581   0.00000  Uiso   1.00
C520   C     0.64588   0.82868   0.15885   0.00000  Uiso   1.00
C521   C     0.36477   0.84354   0.39409   0.00000  Uiso   1.00
C522   C     0.63700   0.82133   0.10575   0.00000  Uiso   1.00
C523   C     0.34619   0.88034   0.47473   0.00000  Uiso   1.00
C524   C     0.64253   0.76791   0.03030   0.00000  Uiso   1.00
C525   C     0.66064   0.86680   0.42650   0.00000  Uiso   1.00
C526   C     0.66497   0.78395   0.07691   0.00000  Uiso   1.00
C527   C     0.41685   0.82826   0.41233   0.00000  Uiso   1.00
C528   C     0.59369   0.84776   0.08446   0.00000  Uiso   1.00
C529   C     0.43335   0.83624   0.46162   0.00000  Uiso   1.00
C530   C     0.65340   0.73600   0.25421   0.00000  Uiso   1.00
C531   C     0.56468   0.82679   0.04101   0.00000  Uiso   1.00
C532   C     0.40001   0.86741   0.49160   0.00000  Uiso   1.00
C533   C     0.59089   0.78620   0.01364   0.00000  Uiso   1.00
C534   C     0.48470   0.81777   0.48042   0.00000  Uiso   1.00
C535   C     0.50970   0.84201   0.02533   0.00000  Uiso   1.00
C536   C     0.47992   0.87034   0.13419   0.00000  Uiso   1.00
C537   C     0.44964   0.70390   0.44063   0.00000  Uiso   1.00
C538   C     0.39022   0.96405   0.16179   0.00000  Uiso   1.00
C539   C     0.63942   0.70461   0.34712   0.00000  Uiso   1.00
C540   C     0.47595   0.73661   0.20526   0.00000  Uiso   1.00
C541   C     0.47632   0.87719   0.05356   0.00000  Uiso   1.00
C542   C     0.52883   0.92584   0.30405   0.00000  Uiso   1.00
C543   C     0.51043   0.77436   0.45644   0.00000  Uiso   1.00
C544   C     0.42160   0.88717   0.03719   0.00000  Uiso   1.00
C545   C     0.56409   0.76138   0.47166   0.00000  Uiso   1.00
C546   C     0.34712   0.98415   0.23504   0.00000  Uiso   1.00
C547   C     0.65240   0.68302   0.26492   0.00000  Uiso   1.00
C548   C     0.35443   0.83804   0.34112   0.00000  Uiso   1.00
Cl549  Cl    0.39297   0.75440   0.09700   0.00000  Uiso   1.00
Cl550  Cl    0.59153   0.88286   0.40932   0.00000  Uiso   1.00
H551   H     0.39666   0.91250   0.05986   0.00000  Uiso   1.00
H552   H     0.42764   0.67747   0.41105   0.00000  Uiso   1.00
H553   H     0.41686   0.72238   0.46252   0.00000  Uiso   1.00
H554   H     0.47637   0.67947   0.46333   0.00000  Uiso   1.00
H555   H     0.36309   0.92843   0.15087   0.00000  Uiso   1.00
H556   H     0.43059   0.95543   0.18110   0.00000  Uiso   1.00
H557   H     0.40087   0.98131   0.12799   0.00000  Uiso   1.00
H558   H     0.60876   0.73595   0.34431   0.00000  Uiso   1.00
H559   H     0.35017   0.72123   0.35087   0.00000  Uiso   1.00
H560   H     0.63195   0.68562   0.38082   0.00000  Uiso   1.00
H561   H     0.43436   0.73604   0.18567   0.00000  Uiso   1.00
H562   H     0.58319   0.72890   0.45214   0.00000  Uiso   1.00
H563   H     0.47325   0.72534   0.24309   0.00000  Uiso   1.00
H564   H     0.50119   0.70717   0.18566   0.00000  Uiso   1.00
H565   H     0.53059   0.94353   0.26876   0.00000  Uiso   1.00
H566   H     0.57120   0.92093   0.32114   0.00000  Uiso   1.00
H567   H     0.50702   0.95331   0.32896   0.00000  Uiso   1.00
H568   H     0.58326   0.88314   0.10450   0.00000  Uiso   1.00
H569   H     0.44643   0.81330   0.38713   0.00000  Uiso   1.00
H570   H     0.65258   0.90188   0.49877   0.00000  Uiso   1.00
H571   H     0.66313   0.73797   0.00867   0.00000  Uiso   1.00
H572   H     0.49601   0.83039   0.12804   0.00000  Uiso   1.00
H573   H     0.43376   0.86758   0.13562   0.00000  Uiso   1.00
H574   H     0.49853   0.88829   0.16969   0.00000  Uiso   1.00
N575   N     0.48029   0.81883   0.23739   0.00000  Uiso   1.00
N576   N     0.51971   0.84784   0.26260   0.00000  Uiso   1.00
O577   O     0.63052   0.91298   0.25309   0.00000  Uiso   1.00
O578   O     0.48253   0.74169   0.41956   0.00000  Uiso   1.00
O579   O     0.36130   0.66748   0.19015   0.00000  Uiso   1.00
O580   O     0.63084   0.99979   0.30724   0.00000  Uiso   1.00
O581   O     0.50240   0.78579   0.20403   0.00000  Uiso   1.00
O582   O     0.49832   0.87800   0.29859   0.00000  Uiso   1.00
O583   O     0.36948   0.75369   0.24690   0.00000  Uiso   1.00
O584   O     0.39155   0.90368   0.24501   0.00000  Uiso   1.00
O585   O     0.60845   0.76298   0.25499   0.00000  Uiso   1.00
O586   O     0.63662   0.84063   0.32247   0.00000  Uiso   1.00
O587   O     0.36338   0.82603   0.17753   0.00000  Uiso   1.00
O588   O     0.39764   0.83134   0.31439   0.00000  Uiso   1.00
O589   O     0.60236   0.83533   0.18561   0.00000  Uiso   1.00
O590   O     0.49498   0.90228   0.09783   0.00000  Uiso   1.00
Zn591  Zn    0.60366   0.83954   0.25539   0.00000  Uiso   1.00
Zn592  Zn    0.39634   0.82713   0.24460   0.00000  Uiso   1.00
C593   C     0.67984   0.93087   0.24581   0.00000  Uiso   1.00
C594   C     0.97922   0.82868   0.15885   0.00000  Uiso   1.00
C595   C     0.69811   0.84354   0.39409   0.00000  Uiso   1.00
C596   C     0.97033   0.82133   0.10575   0.00000  Uiso   1.00
C597   C     0.67953   0.88034   0.47473   0.00000  Uiso   1.00
C598   C     0.97587   0.76791   0.03030   0.00000  Uiso   1.00
C599   C     0.99397   0.86680   0.42650   0.00000  Uiso   1.00
C600   C     0.99830   0.78395   0.07691   0.00000  Uiso   1.00
C601   C     0.75019   0.82826   0.41233   0.00000  Uiso   1.00
C602   C     0.92703   0.84776   0.08446   0.00000  Uiso   1.00
C603   C     0.76668   0.83624   0.46162   0.00000  Uiso   1.00
C604   C     0.98673   0.73600   0.25421   0.00000  Uiso   1.00
C605   C     0.89801   0.82679   0.04101   0.00000  Uiso   1.00
C606   C     0.73334   0.86741   0.49160   0.00000  Uiso   1.00
C607   C     0.92422   0.78620   0.01364   0.00000  Uiso   1.00
C608   C     0.81803   0.81777   0.48042   0.00000  Uiso   1.00
C609   C     0.84304   0.84201   0.02533   0.00000  Uiso   1.00
C610   C     0.81325   0.87034   0.13419   0.00000  Uiso   1.00
C611   C     0.78297   0.70390   0.44063   0.00000  Uiso   1.00
C612   C     0.72355   0.96405   0.16179   0.00000  Uiso   1.00
C613   C     0.97275   0.70461   0.34712   0.00000  Uiso   1.00
C614   C     0.80929   0.73661   0.20526   0.00000  Uiso   1.00
C615   C     0.80966   0.87719   0.05356   0.00000  Uiso   1.00
C616   C     0.86216   0.92584   0.30405   0.00000  Uiso   1.00
C617   C     0.84377   0.77436   0.45644   0.00000  Uiso   1.00
C618   C     0.75493   0.88717   0.03719   0.00000  Uiso   1.00
C619   C     0.89742   0.76138   0.47166   0.00000  Uiso   1.00
C620   C     0.68046   0.98415   0.23504   0.00000  Uiso   1.00
C621   C     0.98574   0.68302   0.26492   0.00000  Uiso   1.00
C622   C     0.68776   0.83804   0.34112   0.00000  Uiso   1.00
Cl623  Cl    0.72630   0.75440   0.09700   0.00000  Uiso   1.00
Cl624  Cl    0.92486   0.88286   0.40932   0.00000  Uiso   1.00
H625   H     0.73000   0.91250   0.05986   0.00000  Uiso   1.00
H626   H     0.76097   0.67747   0.41105   0.00000  Uiso   1.00
H627   H     0.75020   0.72238   0.46252   0.00000  Uiso   1.00
H628   H     0.80971   0.67947   0.46333   0.00000  Uiso   1.00
H629   H     0.69643   0.92843   0.15087   0.00000  Uiso   1.00
H630   H     0.76392   0.95543   0.18110   0.00000  Uiso   1.00
H631   H     0.73421   0.98131   0.12799   0.00000  Uiso   1.00
H632   H     0.94209   0.73595   0.34431   0.00000  Uiso   1.00
H633   H     0.68350   0.72123   0.35087   0.00000  Uiso   1.00
H634   H     0.96528   0.68562   0.38082   0.00000  Uiso   1.00
H635   H     0.76769   0.73604   0.18567   0.00000  Uiso   1.00
H636   H     0.91652   0.72890   0.45214   0.00000  Uiso   1.00
H637   H     0.80659   0.72534   0.24309   0.00000  Uiso   1.00
H638   H     0.83452   0.70717   0.18566   0.00000  Uiso   1.00
H639   H     0.86392   0.94353   0.26876   0.00000  Uiso   1.00
H640   H     0.90453   0.92093   0.32114   0.00000  Uiso   1.00
H641   H     0.84036   0.95331   0.32896   0.00000  Uiso   1.00
H642   H     0.91660   0.88314   0.10450   0.00000  Uiso   1.00
H643   H     0.77976   0.81330   0.38713   0.00000  Uiso   1.00
H644   H     0.98592   0.90188   0.49877   0.00000  Uiso   1.00
H645   H     0.99646   0.73797   0.00867   0.00000  Uiso   1.00
H646   H     0.82934   0.83039   0.12804   0.00000  Uiso   1.00
H647   H     0.76710   0.86758   0.13562   0.00000  Uiso   1.00
H648   H     0.83186   0.88829   0.16969   0.00000  Uiso   1.00
N649   N     0.81362   0.81883   0.23739   0.00000  Uiso   1.00
N650   N     0.85305   0.84784   0.26260   0.00000  Uiso   1.00
O651   O     0.96386   0.91298   0.25309   0.00000  Uiso   1.00
O652   O     0.81586   0.74169   0.41956   0.00000  Uiso   1.00
O653   O     0.69463   0.66748   0.19015   0.00000  Uiso   1.00
O654   O     0.96418   0.99979   0.30724   0.00000  Uiso   1.00
O655   O     0.83573   0.78579   0.20403   0.00000  Uiso   1.00
O656   O     0.83165   0.87800   0.29859   0.00000  Uiso   1.00
O657   O     0.70281   0.75369   0.24690   0.00000  Uiso   1.00
O658   O     0.72488   0.90368   0.24501   0.00000  Uiso   1.00
O659   O     0.94178   0.76298   0.25499   0.00000  Uiso   1.00
O660   O     0.96995   0.84063   0.32247   0.00000  Uiso   1.00
O661   O     0.69672   0.82603   0.17753   0.00000  Uiso   1.00
O662   O     0.73098   0.83134   0.31439   0.00000  Uiso   1.00
O663   O     0.93569   0.83533   0.18561   0.00000  Uiso   1.00
O664   O     0.82831   0.90228   0.09783   0.00000  Uiso   1.00
Zn665  Zn    0.93700   0.83954   0.25539   0.00000  Uiso   1.00
Zn666  Zn    0.72967   0.82713   0.24460   0.00000  Uiso   1.00
C667   C     0.01318   0.26420   0.74581   0.00000  Uiso   1.00
C668   C     0.31255   0.16202   0.65885   0.00000  Uiso   1.00
C669   C     0.03144   0.17687   0.89409   0.00000  Uiso   1.00
C670   C     0.30366   0.15466   0.60575   0.00000  Uiso   1.00
C671   C     0.01286   0.21368   0.97473   0.00000  Uiso   1.00
C672   C     0.30920   0.10124   0.53030   0.00000  Uiso   1.00
C673   C     0.32731   0.20013   0.92650   0.00000  Uiso   1.00
C674   C     0.33163   0.11729   0.57691   0.00000  Uiso   1.00
C675   C     0.08352   0.16159   0.91233   0.00000  Uiso   1.00
C676   C     0.26036   0.18109   0.58446   0.00000  Uiso   1.00
C677   C     0.10001   0.16957   0.96162   0.00000  Uiso   1.00
C678   C     0.32006   0.06934   0.75421   0.00000  Uiso   1.00
C679   C     0.23135   0.16012   0.54101   0.00000  Uiso   1.00
C680   C     0.06668   0.20075   0.99160   0.00000  Uiso   1.00
C681   C     0.25755   0.11954   0.51364   0.00000  Uiso   1.00
C682   C     0.15137   0.15111   0.98042   0.00000  Uiso   1.00
C683   C     0.17637   0.17534   0.52533   0.00000  Uiso   1.00
C684   C     0.14659   0.20367   0.63419   0.00000  Uiso   1.00
C685   C     0.11631   0.03723   0.94063   0.00000  Uiso   1.00
C686   C     0.05688   0.29738   0.66179   0.00000  Uiso   1.00
C687   C     0.30609   0.03795   0.84712   0.00000  Uiso   1.00
C688   C     0.14262   0.06994   0.70526   0.00000  Uiso   1.00
C689   C     0.14299   0.21052   0.55356   0.00000  Uiso   1.00
C690   C     0.19549   0.25917   0.80405   0.00000  Uiso   1.00
C691   C     0.17710   0.10769   0.95644   0.00000  Uiso   1.00
C692   C     0.08826   0.22050   0.53719   0.00000  Uiso   1.00
C693   C     0.23075   0.09471   0.97166   0.00000  Uiso   1.00
C694   C     0.01379   0.31749   0.73504   0.00000  Uiso   1.00
C695   C     0.31907   0.01635   0.76492   0.00000  Uiso   1.00
C696   C     0.02110   0.17138   0.84112   0.00000  Uiso   1.00
Cl697  Cl    0.05964   0.08773   0.59700   0.00000  Uiso   1.00
Cl698  Cl    0.25820   0.21620   0.90932   0.00000  Uiso   1.00
H699   H     0.06333   0.24584   0.55986   0.00000  Uiso   1.00
H700   H     0.09430   0.01080   0.91105   0.00000  Uiso   1.00
H701   H     0.08353   0.05572   0.96252   0.00000  Uiso   1.00
H702   H     0.14304   0.01280   0.96333   0.00000  Uiso   1.00
H703   H     0.02976   0.26177   0.65087   0.00000  Uiso   1.00
H704   H     0.09725   0.28876   0.68110   0.00000  Uiso   1.00
H705   H     0.06754   0.31465   0.62799   0.00000  Uiso   1.00
H706   H     0.27543   0.06929   0.84431   0.00000  Uiso   1.00
H707   H     0.01684   0.05456   0.85087   0.00000  Uiso   1.00
H708   H     0.29862   0.01896   0.88082   0.00000  Uiso   1.00
H709   H     0.10102   0.06938   0.68567   0.00000  Uiso   1.00
H710   H     0.24986   0.06223   0.95214   0.00000  Uiso   1.00
H711   H     0.13992   0.05868   0.74309   0.00000  Uiso   1.00
H712   H     0.16786   0.04050   0.68566   0.00000  Uiso   1.00
H713   H     0.19726   0.27686   0.76876   0.00000  Uiso   1.00
H714   H     0.23787   0.25427   0.82114   0.00000  Uiso   1.00
H715   H     0.17369   0.28664   0.82896   0.00000  Uiso   1.00
H716   H     0.24993   0.21647   0.60450   0.00000  Uiso   1.00
H717   H     0.11310   0.14663   0.88713   0.00000  Uiso   1.00
H718   H     0.31925   0.23521   0.99877   0.00000  Uiso   1.00
H719   H     0.32980   0.07130   0.50867   0.00000  Uiso   1.00
H720   H     0.16267   0.16373   0.62804   0.00000  Uiso   1.00
H721   H     0.10043   0.20091   0.63562   0.00000  Uiso   1.00
H722   H     0.16520   0.22162   0.66969   0.00000  Uiso   1.00
N723   N     0.14695   0.15216   0.73739   0.00000  Uiso   1.00
N724   N     0.18638   0.18117   0.76260   0.00000  Uiso   1.00
O725   O     0.29719   0.24631   0.75309   0.00000  Uiso   1.00
O726   O     0.14920   0.07502   0.91956   0.00000  Uiso   1.00
O727   O     0.02797   0.00082   0.69015   0.00000  Uiso   1.00
O728   O     0.29751   0.33312   0.80724   0.00000  Uiso   1.00
O729   O     0.16906   0.11913   0.70403   0.00000  Uiso   1.00
O730   O     0.16499   0.21134   0.79859   0.00000  Uiso   1.00
O731   O     0.03614   0.08702   0.74690   0.00000  Uiso   1.00
O732   O     0.05822   0.23702   0.74501   0.00000  Uiso   1.00
O733   O     0.27512   0.09632   0.75499   0.00000  Uiso   1.00
O734   O     0.30328   0.17397   0.82247   0.00000  Uiso   1.00
O735   O     0.03005   0.15937   0.67753   0.00000  Uiso   1.00
O736   O     0.06431   0.16467   0.81439   0.00000  Uiso   1.00
O737   O     0.26902   0.16866   0.68561   0.00000  Uiso   1.00
O738   O     0.16164   0.23561   0.59783   0.00000  Uiso   1.00
Zn739  Zn    0.27033   0.17287   0.75539   0.00000  Uiso   1.00
Zn740  Zn    0.06300   0.16046   0.74460   0.00000  Uiso   1.00
C741   C     0.34651   0.26420   0.74581   0.00000  Uiso   1.00
C742   C     0.64588   0.16202   0.65885   0.00000  Uiso   1.00
C743   C     0.36477   0.17687   0.89409   0.00000  Uiso   1.00
C744   C     0.63700   0.15466   0.60575   0.00000  Uiso   1.00
C745   C     0.34619   0.21368   0.97473   0.00000  Uiso   1.00
C746   C     0.64253   0.10124   0.53030   0.00000  Uiso   1.00
C747   C     0.66064   0.20013   0.92650   0.00000  Uiso   1.00
C748   C     0.66497   0.11729   0.57691   0.00000  Uiso   1.00
C749   C     0.41685   0.16159   0.91233   0.00000  Uiso   1.00
C750   C     0.59369   0.18109   0.58446   0.00000  Uiso   1.00
C751   C     0.43335   0.16957   0.96162   0.00000  Uiso   1.00
C752   C     0.65340   0.06934   0.75421   0.00000  Uiso   1.00
C753   C     0.56468   0.16012   0.54101   0.00000  Uiso   1.00
C754   C     0.40001   0.20075   0.99160   0.00000  Uiso   1.00
C755   C     0.59089   0.11954   0.51364   0.00000  Uiso   1.00
C756   C     0.48470   0.15111   0.98042   0.00000  Uiso   1.00
C757   C     0.50970   0.17534   0.52533   0.00000  Uiso   1.00
C758   C     0.47992   0.20367   0.63419   0.00000  Uiso   1.00
C759   C     0.44964   0.03723   0.94063   0.00000  Uiso   1.00
C760   C     0.39022   0.29738   0.66179   0.00000  Uiso   1.00
C761   C     0.63942   0.03795   0.84712   0.00000  Uiso   1.00
C762   C     0.47595   0.06994   0.70526   0.00000  Uiso   1.00
C763   C     0.47632   0.21052   0.55356   0.00000  Uiso   1.00
C764   C     0.52883   0.25917   0.80405   0.00000  Uiso   1.00
C765   C     0.51043   0.10769   0.95644   0.00000  Uiso   1.00
C766   C     0.42160   0.22050   0.53719   0.00000  Uiso   1.00
C767   C     0.56409   0.09471   0.97166   0.00000  Uiso   1.00
C768   C     0.34712   0.31749   0.73504   0.00000  Uiso   1.00
C769   C     0.65240   0.01635   0.76492   0.00000  Uiso   1.00
C770   C     0.35443   0.17138   0.84112   0.00000  Uiso   1.00
Cl771  Cl    0.39297   0.08773   0.59700   0.00000  Uiso   1.00
Cl772  Cl    0.59153   0.21620   0.90932   0.00000  Uiso   1.00
H773   H     0.39666   0.24584   0.55986   0.00000  Uiso   1.00
H774   H     0.42764   0.01080   0.91105   0.00000  Uiso   1.00
H775   H     0.41686   0.05572   0.96252   0.00000  Uiso   1.00
H776   H     0.47637   0.01280   0.96333   0.00000  Uiso   1.00
H777   H     0.36309   0.26177   0.65087   0.00000  Uiso   1.00
H778   H     0.43059   0.28876   0.68110   0.00000  Uiso   1.00
H779   H     0.40087   0.31465   0.62799   0.00000  Uiso   1.00
H780   H     0.60876   0.06929   0.84431   0.00000  Uiso   1.00
H781   H     0.35017   0.05456   0.85087   0.00000  Uiso   1.00
H782   H     0.63195   0.01896   0.88082   0.00000  Uiso   1.00
H783   H     0.43436   0.06938   0.68567   0.00000  Uiso   1.00
H784   H     0.58319   0.06223   0.95214   0.00000  Uiso   1.00
H785   H     0.47325   0.05868   0.74309   0.00000  Uiso   1.00
H786   H     0.50119   0.04050   0.68566   0.00000  Uiso   1.00
H787   H     0.53059   0.27686   0.76876   0.00000  Uiso   1.00
H788   H     0.57120   0.25427   0.82114   0.00000  Uiso   1.00
H789   H     0.50702   0.28664   0.82896   0.00000  Uiso   1.00
H790   H     0.58326   0.21647   0.60450   0.00000  Uiso   1.00
H791   H     0.44643   0.14663   0.88713   0.00000  Uiso   1.00
H792   H     0.65258   0.23521   0.99877   0.00000  Uiso   1.00
H793   H     0.66313   0.07130   0.50867   0.00000  Uiso   1.00
H794   H     0.49601   0.16373   0.62804   0.00000  Uiso   1.00
H795   H     0.43376   0.20091   0.63562   0.00000  Uiso   1.00
H796   H     0.49853   0.22162   0.66969   0.00000  Uiso   1.00
N797   N     0.48029   0.15216   0.73739   0.00000  Uiso   1.00
N798   N     0.51971   0.18117   0.76260   0.00000  Uiso   1.00
O799   O     0.63052   0.24631   0.75309   0.00000  Uiso   1.00
O800   O     0.48253   0.07502   0.91956   0.00000  Uiso   1.00
O801   O     0.36130   0.00082   0.69015   0.00000  Uiso   1.00
O802   O     0.63084   0.33312   0.80724   0.00000  Uiso   1.00
O803   O     0.50240   0.11913   0.70403   0.00000  Uiso   1.00
O804   O     0.49832   0.21134   0.79859   0.00000  Uiso   1.00
O805   O     0.36948   0.08702   0.74690   0.00000  Uiso   1.00
O806   O     0.39155   0.23702   0.74501   0.00000  Uiso   1.00
O807   O     0.60845   0.09632   0.75499   0.00000  Uiso   1.00
O808   O     0.63662   0.17397   0.82247   0.00000  Uiso   1.00
O809   O     0.36338   0.15937   0.67753   0.00000  Uiso   1.00
O810   O     0.39764   0.16467   0.81439   0.00000  Uiso   1.00
O811   O     0.60236   0.16866   0.68561   0.00000  Uiso   1.00
O812   O     0.49498   0.23561   0.59783   0.00000  Uiso   1.00
Zn813  Zn    0.60366   0.17287   0.75539   0.00000  Uiso   1.00
Zn814  Zn    0.39634   0.16046   0.74460   0.00000  Uiso   1.00
C815   C     0.67984   0.26420   0.74581   0.00000  Uiso   1.00
C816   C     0.97922   0.16202   0.65885   0.00000  Uiso   1.00
C817   C     0.69811   0.17687   0.89409   0.00000  Uiso   1.00
C818   C     0.97033   0.15466   0.60575   0.00000  Uiso   1.00
C819   C     0.67953   0.21368   0.97473   0.00000  Uiso   1.00
C820   C     0.97587   0.10124   0.53030   0.00000  Uiso   1.00
C821   C     0.99397   0.20013   0.92650   0.00000  Uiso   1.00
C822   C     0.99830   0.11729   0.57691   0.00000  Uiso   1.00
C823   C     0.75019   0.16159   0.91233   0.00000  Uiso   1.00
C824   C     0.92703   0.18109   0.58446   0.00000  Uiso   1.00
C825   C     0.76668   0.16957   0.96162   0.00000  Uiso   1.00
C826   C     0.98673   0.06934   0.75421   0.00000  Uiso   1.00
C827   C     0.89801   0.16012   0.54101   0.00000  Uiso   1.00
C828   C     0.73334   0.20075   0.99160   0.00000  Uiso   1.00
C829   C     0.92422   0.11954   0.51364   0.00000  Uiso   1.00
C830   C     0.81803   0.15111   0.98042   0.00000  Uiso   1.00
C831   C     0.84304   0.17534   0.52533   0.00000  Uiso   1.00
C832   C     0.81325   0.20367   0.63419   0.00000  Uiso   1.00
C833   C     0.78297   0.03723   0.94063   0.00000  Uiso   1.00
C834   C     0.72355   0.29738   0.66179   0.00000  Uiso   1.00
C835   C     0.97275   0.03795   0.84712   0.00000  Uiso   1.00
C836   C     0.80929   0.06994   0.70526   0.00000  Uiso   1.00
C837   C     0.80966   0.21052   0.55356   0.00000  Uiso   1.00
C838   C     0.86216   0.25917   0.80405   0.00000  Uiso   1.00
C839   C     0.84377   0.10769   0.95644   0.00000  Uiso   1.00
C840   C     0.75493   0.22050   0.53719   0.00000  Uiso   1.00
C841   C     0.89742   0.09471   0.97166   0.00000  Uiso   1.00
C842   C     0.68046   0.31749   0.73504   0.00000  Uiso   1.00
C843   C     0.98574   0.01635   0.76492   0.00000  Uiso   1.00
C844   C     0.68776   0.17138   0.84112   0.00000  Uiso   1.00
Cl845  Cl    0.72630   0.08773   0.59700   0.00000  Uiso   1.00
Cl846  Cl    0.92486   0.21620   0.90932   0.00000  Uiso   1.00
H847   H     0.73000   0.24584   0.55986   0.00000  Uiso   1.00
H848   H     0.76097   0.01080   0.91105   0.00000  Uiso   1.00
H849   H     0.75020   0.05572   0.96252   0.00000  Uiso   1.00
H850   H     0.80971   0.01280   0.96333   0.00000  Uiso   1.00
H851   H     0.69643   0.26177   0.65087   0.00000  Uiso   1.00
H852   H     0.76392   0.28876   0.68110   0.00000  Uiso   1.00
H853   H     0.73421   0.31465   0.62799   0.00000  Uiso   1.00
H854   H     0.94209   0.06929   0.84431   0.00000  Uiso   1.00
H855   H     0.68350   0.05456   0.85087   0.00000  Uiso   1.00
H856   H     0.96528   0.01896   0.88082   0.00000  Uiso   1.00
H857   H     0.76769   0.06938   0.68567   0.00000  Uiso   1.00
H858   H     0.91652   0.06223   0.95214   0.00000  Uiso   1.00
H859   H     0.80659   0.05868   0.74309   0.00000  Uiso   1.00
H860   H     0.83452   0.04050   0.68566   0.00000  Uiso   1.00
H861   H     0.86392   0.27686   0.76876   0.00000  Uiso   1.00
H862   H     0.90453   0.25427   0.82114   0.00000  Uiso   1.00
H863   H     0.84036   0.28664   0.82896   0.00000  Uiso   1.00
H864   H     0.91660   0.21647   0.60450   0.00000  Uiso   1.00
H865   H     0.77976   0.14663   0.88713   0.00000  Uiso   1.00
H866   H     0.98592   0.23521   0.99877   0.00000  Uiso   1.00
H867   H     0.99646   0.07130   0.50867   0.00000  Uiso   1.00
H868   H     0.82934   0.16373   0.62804   0.00000  Uiso   1.00
H869   H     0.76710   0.20091   0.63562   0.00000  Uiso   1.00
H870   H     0.83186   0.22162   0.66969   0.00000  Uiso   1.00
N871   N     0.81362   0.15216   0.73739   0.00000  Uiso   1.00
N872   N     0.85305   0.18117   0.76260   0.00000  Uiso   1.00
O873   O     0.96386   0.24631   0.75309   0.00000  Uiso   1.00
O874   O     0.81586   0.07502   0.91956   0.00000  Uiso   1.00
O875   O     0.69463   0.00082   0.69015   0.00000  Uiso   1.00
O876   O     0.96418   0.33312   0.80724   0.00000  Uiso   1.00
O877   O     0.83573   0.11913   0.70403   0.00000  Uiso   1.00
O878   O     0.83165   0.21134   0.79859   0.00000  Uiso   1.00
O879   O     0.70281   0.08702   0.74690   0.00000  Uiso   1.00
O880   O     0.72488   0.23702   0.74501   0.00000  Uiso   1.00
O881   O     0.94178   0.09632   0.75499   0.00000  Uiso   1.00
O882   O     0.96995   0.17397   0.82247   0.00000  Uiso   1.00
O883   O     0.69672   0.15937   0.67753   0.00000  Uiso   1.00
O884   O     0.73098   0.16467   0.81439   0.00000  Uiso   1.00
O885   O     0.93569   0.16866   0.68561   0.00000  Uiso   1.00
O886   O     0.82831   0.23561   0.59783   0.00000  Uiso   1.00
Zn887  Zn    0.93700   0.17287   0.75539   0.00000  Uiso   1.00
Zn888  Zn    0.72967   0.16046   0.74460   0.00000  Uiso   1.00
C889   C     0.01318   0.59754   0.74581   0.00000  Uiso   1.00
C890   C     0.31255   0.49535   0.65885   0.00000  Uiso   1.00
C891   C     0.03144   0.51021   0.89409   0.00000  Uiso   1.00
C892   C     0.30366   0.48799   0.60575   0.00000  Uiso   1.00
C893   C     0.01286   0.54701   0.97473   0.00000  Uiso   1.00
C894   C     0.30920   0.43457   0.53030   0.00000  Uiso   1.00
C895   C     0.32731   0.53346   0.92650   0.00000  Uiso   1.00
C896   C     0.33163   0.45062   0.57691   0.00000  Uiso   1.00
C897   C     0.08352   0.49492   0.91233   0.00000  Uiso   1.00
C898   C     0.26036   0.51443   0.58446   0.00000  Uiso   1.00
C899   C     0.10001   0.50290   0.96162   0.00000  Uiso   1.00
C900   C     0.32006   0.40267   0.75421   0.00000  Uiso   1.00
C901   C     0.23135   0.49346   0.54101   0.00000  Uiso   1.00
C902   C     0.06668   0.53408   0.99160   0.00000  Uiso   1.00
C903   C     0.25755   0.45287   0.51364   0.00000  Uiso   1.00
C904   C     0.15137   0.48444   0.98042   0.00000  Uiso   1.00
C905   C     0.17637   0.50867   0.52533   0.00000  Uiso   1.00
C906   C     0.14659   0.53700   0.63419   0.00000  Uiso   1.00
C907   C     0.11631   0.37056   0.94063   0.00000  Uiso   1.00
C908   C     0.05688   0.63071   0.66179   0.00000  Uiso   1.00
C909   C     0.30609   0.37128   0.84712   0.00000  Uiso   1.00
C910   C     0.14262   0.40327   0.70526   0.00000  Uiso   1.00
C911   C     0.14299   0.54385   0.55356   0.00000  Uiso   1.00
C912   C     0.19549   0.59250   0.80405   0.00000  Uiso   1.00
C913   C     0.17710   0.44102   0.95644   0.00000  Uiso   1.00
C914   C     0.08826   0.55384   0.53719   0.00000  Uiso   1.00
C915   C     0.23075   0.42805   0.97166   0.00000  Uiso   1.00
C916   C     0.01379   0.65082   0.73504   0.00000  Uiso   1.00
C917   C     0.31907   0.34969   0.76492   0.00000  Uiso   1.00
C918   C     0.02110   0.50471   0.84112   0.00000  Uiso   1.00
Cl919  Cl    0.05964   0.42106   0.59700   0.00000  Uiso   1.00
Cl920  Cl    0.25820   0.54953   0.90932   0.00000  Uiso   1.00
H921   H     0.06333   0.57917   0.55986   0.00000  Uiso   1.00
H922   H     0.09430   0.34413   0.91105   0.00000  Uiso   1.00
H923   H     0.08353   0.38905   0.96252   0.00000  Uiso   1.00
H924   H     0.14304   0.34614   0.96333   0.00000  Uiso   1.00
H925   H     0.02976   0.59510   0.65087   0.00000  Uiso   1.00
H926   H     0.09725   0.62209   0.68110   0.00000  Uiso   1.00
H927   H     0.06754   0.64798   0.62799   0.00000  Uiso   1.00
H928   H     0.27543   0.40262   0.84431   0.00000  Uiso   1.00
H929   H     0.01684   0.38790   0.85087   0.00000  Uiso   1.00
H930   H     0.29862   0.35229   0.88082   0.00000  Uiso   1.00
H931   H     0.10102   0.40271   0.68567   0.00000  Uiso   1.00
H932   H     0.24986   0.39557   0.95214   0.00000  Uiso   1.00
H933   H     0.13992   0.39201   0.74309   0.00000  Uiso   1.00
H934   H     0.16786   0.37383   0.68566   0.00000  Uiso   1.00
H935   H     0.19726   0.61020   0.76876   0.00000  Uiso   1.00
H936   H     0.23787   0.58760   0.82114   0.00000  Uiso   1.00
H937   H     0.17369   0.61997   0.82896   0.00000  Uiso   1.00
H938   H     0.24993   0.54980   0.60450   0.00000  Uiso   1.00
H939   H     0.11310   0.47996   0.88713   0.00000  Uiso   1.00
H940   H     0.31925   0.56854   0.99877   0.00000  Uiso   1.00
H941   H     0.32980   0.40464   0.50867   0.00000  Uiso   1.00
H942   H     0.16267   0.49706   0.62804   0.00000  Uiso   1.00
H943   H     0.10043   0.53425   0.63562   0.00000  Uiso   1.00
H944   H     0.16520   0.55495   0.66969   0.00000  Uiso   1.00
N945   N     0.14695   0.48550   0.73739   0.00000  Uiso   1.00
N946   N     0.18638   0.51450   0.76260   0.00000  Uiso   1.00
O947   O     0.29719   0.57964   0.75309   0.00000  Uiso   1.00
O948   O     0.14920   0.40835   0.91956   0.00000  Uiso   1.00
O949   O     0.02797   0.33415   0.69015   0.00000  Uiso   1.00
O950   O     0.29751   0.66646   0.80724   0.00000  Uiso   1.00
O951   O     0.16906   0.45246   0.70403   0.00000  Uiso   1.00
O952   O     0.16499   0.54467   0.79859   0.00000  Uiso   1.00
O953   O     0.03614   0.42036   0.74690   0.00000  Uiso   1.00
O954   O     0.05822   0.57035   0.74501   0.00000  Uiso   1.00
O955   O     0.27512   0.42965   0.75499   0.00000  Uiso   1.00
O956   O     0.30328   0.50730   0.82247   0.00000  Uiso   1.00
O957   O     0.03005   0.49270   0.67753   0.00000  Uiso   1.00
O958   O     0.06431   0.49801   0.81439   0.00000  Uiso   1.00
O959   O     0.26902   0.50199   0.68561   0.00000  Uiso   1.00
O960   O     0.16164   0.56894   0.59783   0.00000  Uiso   1.00
Zn961  Zn    0.27033   0.50621   0.75539   0.00000  Uiso   1.00
Zn962  Zn    0.06300   0.49379   0.74460   0.00000  Uiso   1.00
C963   C     0.34651   0.59754   0.74581   0.00000  Uiso   1.00
C964   C     0.64588   0.49535   0.65885   0.00000  Uiso   1.00
C965   C     0.36477   0.51021   0.89409   0.00000  Uiso   1.00
C966   C     0.63700   0.48799   0.60575   0.00000  Uiso   1.00
C967   C     0.34619   0.54701   0.97473   0.00000  Uiso   1.00
C968   C     0.64253   0.43457   0.53030   0.00000  Uiso   1.00
C969   C     0.66064   0.53346   0.92650   0.00000  Uiso   1.00
C970   C     0.66497   0.45062   0.57691   0.00000  Uiso   1.00
C971   C     0.41685   0.49492   0.91233   0.00000  Uiso   1.00
C972   C     0.59369   0.51443   0.58446   0.00000  Uiso   1.00
C973   C     0.43335   0.50290   0.96162   0.00000  Uiso   1.00
C974   C     0.65340   0.40267   0.75421   0.00000  Uiso   1.00
C975   C     0.56468   0.49346   0.54101   0.00000  Uiso   1.00
C976   C     0.40001   0.53408   0.99160   0.00000  Uiso   1.00
C977   C     0.59089   0.45287   0.51364   0.00000  Uiso   1.00
C978   C     0.48470   0.48444   0.98042   0.00000  Uiso   1.00
C979   C     0.50970   0.50867   0.52533   0.00000  Uiso   1.00
C980   C     0.47992   0.53700   0.63419   0.00000  Uiso   1.00
C981   C     0.44964   0.37056   0.94063   0.00000  Uiso   1.00
C982   C     0.39022   0.63071   0.66179   0.00000  Uiso   1.00
C983   C     0.63942   0.37128   0.84712   0.00000  Uiso   1.00
C984   C     0.47595   0.40327   0.70526   0.00000  Uiso   1.00
C985   C     0.47632   0.54385   0.55356   0.00000  Uiso   1.00
C986   C     0.52883   0.59250   0.80405   0.00000  Uiso   1.00
C987   C     0.51043   0.44102   0.95644   0.00000  Uiso   1.00
C988   C     0.42160   0.55384   0.53719   0.00000  Uiso   1.00
C989   C     0.56409   0.42805   0.97166   0.00000  Uiso   1.00
C990   C     0.34712   0.65082   0.73504   0.00000  Uiso   1.00
C991   C     0.65240   0.34969   0.76492   0.00000  Uiso   1.00
C992   C     0.35443   0.50471   0.84112   0.00000  Uiso   1.00
Cl993  Cl    0.39297   0.42106   0.59700   0.00000  Uiso   1.00
Cl994  Cl    0.59153   0.54953   0.90932   0.00000  Uiso   1.00
H995   H     0.39666   0.57917   0.55986   0.00000  Uiso   1.00
H996   H     0.42764   0.34413   0.91105   0.00000  Uiso   1.00
H997   H     0.41686   0.38905   0.96252   0.00000  Uiso   1.00
H998   H     0.47637   0.34614   0.96333   0.00000  Uiso   1.00
H999   H     0.36309   0.59510   0.65087   0.00000  Uiso   1.00
H1000  H     0.43059   0.62209   0.68110   0.00000  Uiso   1.00
H1001  H     0.40087   0.64798   0.62799   0.00000  Uiso   1.00
H1002  H     0.60876   0.40262   0.84431   0.00000  Uiso   1.00
H1003  H     0.35017   0.38790   0.85087   0.00000  Uiso   1.00
H1004  H     0.63195   0.35229   0.88082   0.00000  Uiso   1.00
H1005  H     0.43436   0.40271   0.68567   0.00000  Uiso   1.00
H1006  H     0.58319   0.39557   0.95214   0.00000  Uiso   1.00
H1007  H     0.47325   0.39201   0.74309   0.00000  Uiso   1.00
H1008  H     0.50119   0.37383   0.68566   0.00000  Uiso   1.00
H1009  H     0.53059   0.61020   0.76876   0.00000  Uiso   1.00
H1010  H     0.57120   0.58760   0.82114   0.00000  Uiso   1.00
H1011  H     0.50702   0.61997   0.82896   0.00000  Uiso   1.00
H1012  H     0.58326   0.54980   0.60450   0.00000  Uiso   1.00
H1013  H     0.44643   0.47996   0.88713   0.00000  Uiso   1.00
H1014  H     0.65258   0.56854   0.99877   0.00000  Uiso   1.00
H1015  H     0.66313   0.40464   0.50867   0.00000  Uiso   1.00
H1016  H     0.49601   0.49706   0.62804   0.00000  Uiso   1.00
H1017  H     0.43376   0.53425   0.63562   0.00000  Uiso   1.00
H1018  H     0.49853   0.55495   0.66969   0.00000  Uiso   1.00
N1019  N     0.48029   0.48550   0.73739   0.00000  Uiso   1.00
N1020  N     0.51971   0.51450   0.76260   0.00000  Uiso   1.00
O1021  O     0.63052   0.57964   0.75309   0.00000  Uiso   1.00
O1022  O     0.48253   0.40835   0.91956   0.00000  Uiso   1.00
O1023  O     0.36130   0.33415   0.69015   0.00000  Uiso   1.00
O1024  O     0.63084   0.66646   0.80724   0.00000  Uiso   1.00
O1025  O     0.50240   0.45246   0.70403   0.00000  Uiso   1.00
O1026  O     0.49832   0.54467   0.79859   0.00000  Uiso   1.00
O1027  O     0.36948   0.42036   0.74690   0.00000  Uiso   1.00
O1028  O     0.39155   0.57035   0.74501   0.00000  Uiso   1.00
O1029  O     0.60845   0.42965   0.75499   0.00000  Uiso   1.00
O1030  O     0.63662   0.50730   0.82247   0.00000  Uiso   1.00
O1031  O     0.36338   0.49270   0.67753   0.00000  Uiso   1.00
O1032  O     0.39764   0.49801   0.81439   0.00000  Uiso   1.00
O1033  O     0.60236   0.50199   0.68561   0.00000  Uiso   1.00
O1034  O     0.49498   0.56894   0.59783   0.00000  Uiso   1.00
Zn1035 Zn    0.60366   0.50621   0.75539   0.00000  Uiso   1.00
Zn1036 Zn    0.39634   0.49379   0.74460   0.00000  Uiso   1.00
C1037  C     0.67984   0.59754   0.74581   0.00000  Uiso   1.00
C1038  C     0.97922   0.49535   0.65885   0.00000  Uiso   1.00
C1039  C     0.69811   0.51021   0.89409   0.00000  Uiso   1.00
C1040  C     0.97033   0.48799   0.60575   0.00000  Uiso   1.00
C1041  C     0.67953   0.54701   0.97473   0.00000  Uiso   1.00
C1042  C     0.97587   0.43457   0.53030   0.00000  Uiso   1.00
C1043  C     0.99397   0.53346   0.92650   0.00000  Uiso   1.00
C1044  C     0.99830   0.45062   0.57691   0.00000  Uiso   1.00
C1045  C     0.75019   0.49492   0.91233   0.00000  Uiso   1.00
C1046  C     0.92703   0.51443   0.58446   0.00000  Uiso   1.00
C1047  C     0.76668   0.50290   0.96162   0.00000  Uiso   1.00
C1048  C     0.98673   0.40267   0.75421   0.00000  Uiso   1.00
C1049  C     0.89801   0.49346   0.54101   0.00000  Uiso   1.00
C1050  C     0.73334   0.53408   0.99160   0.00000  Uiso   1.00
C1051  C     0.92422   0.45287   0.51364   0.00000  Uiso   1.00
C1052  C     0.81803   0.48444   0.98042   0.00000  Uiso   1.00
C1053  C     0.84304   0.50867   0.52533   0.00000  Uiso   1.00
C1054  C     0.81325   0.53700   0.63419   0.00000  Uiso   1.00
C1055  C     0.78297   0.37056   0.94063   0.00000  Uiso   1.00
C1056  C     0.72355   0.63071   0.66179   0.00000  Uiso   1.00
C1057  C     0.97275   0.37128   0.84712   0.00000  Uiso   1.00
C1058  C     0.80929   0.40327   0.70526   0.00000  Uiso   1.00
C1059  C     0.80966   0.54385   0.55356   0.00000  Uiso   1.00
C1060  C     0.86216   0.59250   0.80405   0.00000  Uiso   1.00
C1061  C     0.84377   0.44102   0.95644   0.00000  Uiso   1.00
C1062  C     0.75493   0.55384   0.53719   0.00000  Uiso   1.00
C1063  C     0.89742   0.42805   0.97166   0.00000  Uiso   1.00
C1064  C     0.68046   0.65082   0.73504   0.00000  Uiso   1.00
C1065  C     0.98574   0.34969   0.76492   0.00000  Uiso   1.00
C1066  C     0.68776   0.50471   0.84112   0.00000  Uiso   1.00
Cl1067 Cl    0.72630   0.42106   0.59700   0.00000  Uiso   1.00
Cl1068 Cl    0.92486   0.54953   0.90932   0.00000  Uiso   1.00
H1069  H     0.73000   0.57917   0.55986   0.00000  Uiso   1.00
H1070  H     0.76097   0.34413   0.91105   0.00000  Uiso   1.00
H1071  H     0.75020   0.38905   0.96252   0.00000  Uiso   1.00
H1072  H     0.80971   0.34614   0.96333   0.00000  Uiso   1.00
H1073  H     0.69643   0.59510   0.65087   0.00000  Uiso   1.00
H1074  H     0.76392   0.62209   0.68110   0.00000  Uiso   1.00
H1075  H     0.73421   0.64798   0.62799   0.00000  Uiso   1.00
H1076  H     0.94209   0.40262   0.84431   0.00000  Uiso   1.00
H1077  H     0.68350   0.38790   0.85087   0.00000  Uiso   1.00
H1078  H     0.96528   0.35229   0.88082   0.00000  Uiso   1.00
H1079  H     0.76769   0.40271   0.68567   0.00000  Uiso   1.00
H1080  H     0.91652   0.39557   0.95214   0.00000  Uiso   1.00
H1081  H     0.80659   0.39201   0.74309   0.00000  Uiso   1.00
H1082  H     0.83452   0.37383   0.68566   0.00000  Uiso   1.00
H1083  H     0.86392   0.61020   0.76876   0.00000  Uiso   1.00
H1084  H     0.90453   0.58760   0.82114   0.00000  Uiso   1.00
H1085  H     0.84036   0.61997   0.82896   0.00000  Uiso   1.00
H1086  H     0.91660   0.54980   0.60450   0.00000  Uiso   1.00
H1087  H     0.77976   0.47996   0.88713   0.00000  Uiso   1.00
H1088  H     0.98592   0.56854   0.99877   0.00000  Uiso   1.00
H1089  H     0.99646   0.40464   0.50867   0.00000  Uiso   1.00
H1090  H     0.82934   0.49706   0.62804   0.00000  Uiso   1.00
H1091  H     0.76710   0.53425   0.63562   0.00000  Uiso   1.00
H1092  H     0.83186   0.55495   0.66969   0.00000  Uiso   1.00
N1093  N     0.81362   0.48550   0.73739   0.00000  Uiso   1.00
N1094  N     0.85305   0.51450   0.76260   0.00000  Uiso   1.00
O1095  O     0.96386   0.57964   0.75309   0.00000  Uiso   1.00
O1096  O     0.81586   0.40835   0.91956   0.00000  Uiso   1.00
O1097  O     0.69463   0.33415   0.69015   0.00000  Uiso   1.00
O1098  O     0.96418   0.66646   0.80724   0.00000  Uiso   1.00
O1099  O     0.83573   0.45246   0.70403   0.00000  Uiso   1.00
O1100  O     0.83165   0.54467   0.79859   0.00000  Uiso   1.00
O1101  O     0.70281   0.42036   0.74690   0.00000  Uiso   1.00
O1102  O     0.72488   0.57035   0.74501   0.00000  Uiso   1.00
O1103  O     0.94178   0.42965   0.75499   0.00000  Uiso   1.00
O1104  O     0.96995   0.50730   0.82247   0.00000  Uiso   1.00
O1105  O     0.69672   0.49270   0.67753   0.00000  Uiso   1.00
O1106  O     0.73098   0.49801   0.81439   0.00000  Uiso   1.00
O1107  O     0.93569   0.50199   0.68561   0.00000  Uiso   1.00
O1108  O     0.82831   0.56894   0.59783   0.00000  Uiso   1.00
Zn1109 Zn    0.93700   0.50621   0.75539   0.00000  Uiso   1.00
Zn1110 Zn    0.72967   0.49379   0.74460   0.00000  Uiso   1.00
C1111  C     0.01318   0.93087   0.74581   0.00000  Uiso   1.00
C1112  C     0.31255   0.82868   0.65885   0.00000  Uiso   1.00
C1113  C     0.03144   0.84354   0.89409   0.00000  Uiso   1.00
C1114  C     0.30366   0.82133   0.60575   0.00000  Uiso   1.00
C1115  C     0.01286   0.88034   0.97473   0.00000  Uiso   1.00
C1116  C     0.30920   0.76791   0.53030   0.00000  Uiso   1.00
C1117  C     0.32731   0.86680   0.92650   0.00000  Uiso   1.00
C1118  C     0.33163   0.78395   0.57691   0.00000  Uiso   1.00
C1119  C     0.08352   0.82826   0.91233   0.00000  Uiso   1.00
C1120  C     0.26036   0.84776   0.58446   0.00000  Uiso   1.00
C1121  C     0.10001   0.83624   0.96162   0.00000  Uiso   1.00
C1122  C     0.32006   0.73600   0.75421   0.00000  Uiso   1.00
C1123  C     0.23135   0.82679   0.54101   0.00000  Uiso   1.00
C1124  C     0.06668   0.86741   0.99160   0.00000  Uiso   1.00
C1125  C     0.25755   0.78620   0.51364   0.00000  Uiso   1.00
C1126  C     0.15137   0.81777   0.98042   0.00000  Uiso   1.00
C1127  C     0.17637   0.84201   0.52533   0.00000  Uiso   1.00
C1128  C     0.14659   0.87034   0.63419   0.00000  Uiso   1.00
C1129  C     0.11631   0.70390   0.94063   0.00000  Uiso   1.00
C1130  C     0.05688   0.96405   0.66179   0.00000  Uiso   1.00
C1131  C     0.30609   0.70461   0.84712   0.00000  Uiso   1.00
C1132  C     0.14262   0.73661   0.70526   0.00000  Uiso   1.00
C1133  C     0.14299   0.87719   0.55356   0.00000  Uiso   1.00
C1134  C     0.19549   0.92584   0.80405   0.00000  Uiso   1.00
C1135  C     0.17710   0.77436   0.95644   0.00000  Uiso   1.00
C1136  C     0.08826   0.88717   0.53719   0.00000  Uiso   1.00
C1137  C     0.23075   0.76138   0.97166   0.00000  Uiso   1.00
C1138  C     0.01379   0.98415   0.73504   0.00000  Uiso   1.00
C1139  C     0.31907   0.68302   0.76492   0.00000  Uiso   1.00
C1140  C     0.02110   0.83804   0.84112   0.00000  Uiso   1.00
Cl1141 Cl    0.05964   0.75440   0.59700   0.00000  Uiso   1.00
Cl1142 Cl    0.25820   0.88286   0.90932   0.00000  Uiso   1.00
H1143  H     0.06333   0.91250   0.55986   0.00000  Uiso   1.00
H1144  H     0.09430   0.67747   0.91105   0.00000  Uiso   1.00
H1145  H     0.08353   0.72238   0.96252   0.00000  Uiso   1.00
H1146  H     0.14304   0.67947   0.96333   0.00000  Uiso   1.00
H1147  H     0.02976   0.92843   0.65087   0.00000  Uiso   1.00
H1148  H     0.09725   0.95543   0.68110   0.00000  Uiso   1.00
H1149  H     0.06754   0.98131   0.62799   0.00000  Uiso   1.00
H1150  H     0.27543   0.73595   0.84431   0.00000  Uiso   1.00
H1151  H     0.01684   0.72123   0.85087   0.00000  Uiso   1.00
H1152  H     0.29862   0.68562   0.88082   0.00000  Uiso   1.00
H1153  H     0.10102   0.73604   0.68567   0.00000  Uiso   1.00
H1154  H     0.24986   0.72890   0.95214   0.00000  Uiso   1.00
H1155  H     0.13992   0.72534   0.74309   0.00000  Uiso   1.00
H1156  H     0.16786   0.70717   0.68566   0.00000  Uiso   1.00
H1157  H     0.19726   0.94353   0.76876   0.00000  Uiso   1.00
H1158  H     0.23787   0.92093   0.82114   0.00000  Uiso   1.00
H1159  H     0.17369   0.95331   0.82896   0.00000  Uiso   1.00
H1160  H     0.24993   0.88314   0.60450   0.00000  Uiso   1.00
H1161  H     0.11310   0.81330   0.88713   0.00000  Uiso   1.00
H1162  H     0.31925   0.90188   0.99877   0.00000  Uiso   1.00
H1163  H     0.32980   0.73797   0.50867   0.00000  Uiso   1.00
H1164  H     0.16267   0.83039   0.62804   0.00000  Uiso   1.00
H1165  H     0.10043   0.86758   0.63562   0.00000  Uiso   1.00
H1166  H     0.16520   0.88829   0.66969   0.00000  Uiso   1.00
N1167  N     0.14695   0.81883   0.73739   0.00000  Uiso   1.00
N1168  N     0.18638   0.84784   0.76260   0.00000  Uiso   1.00
O1169  O     0.29719   0.91298   0.75309   0.00000  Uiso   1.00
O1170  O     0.14920   0.74169   0.91956   0.00000  Uiso   1.00
O1171  O     0.02797   0.66748   0.69015   0.00000  Uiso   1.00
O1172  O     0.29751   0.99979   0.80724   0.00000  Uiso   1.00
O1173  O     0.16906   0.78579   0.70403   0.00000  Uiso   1.00
O1174  O     0.16499   0.87800   0.79859   0.00000  Uiso   1.00
O1175  O     0.03614   0.75369   0.74690   0.00000  Uiso   1.00
O1176  O     0.05822   0.90368   0.74501   0.00000  Uiso   1.00
O1177  O     0.27512   0.76298   0.75499   0.00000  Uiso   1.00
O1178  O     0.30328   0.84063   0.82247   0.00000  Uiso   1.00
O1179  O     0.03005   0.82603   0.67753   0.00000  Uiso   1.00
O1180  O     0.06431   0.83134   0.81439   0.00000  Uiso   1.00
O1181  O     0.26902   0.83533   0.68561   0.00000  Uiso   1.00
O1182  O     0.16164   0.90228   0.59783   0.00000  Uiso   1.00
Zn1183 Zn    0.27033   0.83954   0.75539   0.00000  Uiso   1.00
Zn1184 Zn    0.06300   0.82713   0.74460   0.00000  Uiso   1.00
C1185  C     0.34651   0.93087   0.74581   0.00000  Uiso   1.00
C1186  C     0.64588   0.82868   0.65885   0.00000  Uiso   1.00
C1187  C     0.36477   0.84354   0.89409   0.00000  Uiso   1.00
C1188  C     0.63700   0.82133   0.60575   0.00000  Uiso   1.00
C1189  C     0.34619   0.88034   0.97473   0.00000  Uiso   1.00
C1190  C     0.64253   0.76791   0.53030   0.00000  Uiso   1.00
C1191  C     0.66064   0.86680   0.92650   0.00000  Uiso   1.00
C1192  C     0.66497   0.78395   0.57691   0.00000  Uiso   1.00
C1193  C     0.41685   0.82826   0.91233   0.00000  Uiso   1.00
C1194  C     0.59369   0.84776   0.58446   0.00000  Uiso   1.00
C1195  C     0.43335   0.83624   0.96162   0.00000  Uiso   1.00
C1196  C     0.65340   0.73600   0.75421   0.00000  Uiso   1.00
C1197  C     0.56468   0.82679   0.54101   0.00000  Uiso   1.00
C1198  C     0.40001   0.86741   0.99160   0.00000  Uiso   1.00
C1199  C     0.59089   0.78620   0.51364   0.00000  Uiso   1.00
C1200  C     0.48470   0.81777   0.98042   0.00000  Uiso   1.00
C1201  C     0.50970   0.84201   0.52533   0.00000  Uiso   1.00
C1202  C     0.47992   0.87034   0.63419   0.00000  Uiso   1.00
C1203  C     0.44964   0.70390   0.94063   0.00000  Uiso   1.00
C1204  C     0.39022   0.96405   0.66179   0.00000  Uiso   1.00
C1205  C     0.63942   0.70461   0.84712   0.00000  Uiso   1.00
C1206  C     0.47595   0.73661   0.70526   0.00000  Uiso   1.00
C1207  C     0.47632   0.87719   0.55356   0.00000  Uiso   1.00
C1208  C     0.52883   0.92584   0.80405   0.00000  Uiso   1.00
C1209  C     0.51043   0.77436   0.95644   0.00000  Uiso   1.00
C1210  C     0.42160   0.88717   0.53719   0.00000  Uiso   1.00
C1211  C     0.56409   0.76138   0.97166   0.00000  Uiso   1.00
C1212  C     0.34712   0.98415   0.73504   0.00000  Uiso   1.00
C1213  C     0.65240   0.68302   0.76492   0.00000  Uiso   1.00
C1214  C     0.35443   0.83804   0.84112   0.00000  Uiso   1.00
Cl1215 Cl    0.39297   0.75440   0.59700   0.00000  Uiso   1.00
Cl1216 Cl    0.59153   0.88286   0.90932   0.00000  Uiso   1.00
H1217  H     0.39666   0.91250   0.55986   0.00000  Uiso   1.00
H1218  H     0.42764   0.67747   0.91105   0.00000  Uiso   1.00
H1219  H     0.41686   0.72238   0.96252   0.00000  Uiso   1.00
H1220  H     0.47637   0.67947   0.96333   0.00000  Uiso   1.00
H1221  H     0.36309   0.92843   0.65087   0.00000  Uiso   1.00
H1222  H     0.43059   0.95543   0.68110   0.00000  Uiso   1.00
H1223  H     0.40087   0.98131   0.62799   0.00000  Uiso   1.00
H1224  H     0.60876   0.73595   0.84431   0.00000  Uiso   1.00
H1225  H     0.35017   0.72123   0.85087   0.00000  Uiso   1.00
H1226  H     0.63195   0.68562   0.88082   0.00000  Uiso   1.00
H1227  H     0.43436   0.73604   0.68567   0.00000  Uiso   1.00
H1228  H     0.58319   0.72890   0.95214   0.00000  Uiso   1.00
H1229  H     0.47325   0.72534   0.74309   0.00000  Uiso   1.00
H1230  H     0.50119   0.70717   0.68566   0.00000  Uiso   1.00
H1231  H     0.53059   0.94353   0.76876   0.00000  Uiso   1.00
H1232  H     0.57120   0.92093   0.82114   0.00000  Uiso   1.00
H1233  H     0.50702   0.95331   0.82896   0.00000  Uiso   1.00
H1234  H     0.58326   0.88314   0.60450   0.00000  Uiso   1.00
H1235  H     0.44643   0.81330   0.88713   0.00000  Uiso   1.00
H1236  H     0.65258   0.90188   0.99877   0.00000  Uiso   1.00
H1237  H     0.66313   0.73797   0.50867   0.00000  Uiso   1.00
H1238  H     0.49601   0.83039   0.62804   0.00000  Uiso   1.00
H1239  H     0.43376   0.86758   0.63562   0.00000  Uiso   1.00
H1240  H     0.49853   0.88829   0.66969   0.00000  Uiso   1.00
N1241  N     0.48029   0.81883   0.73739   0.00000  Uiso   1.00
N1242  N     0.51971   0.84784   0.76260   0.00000  Uiso   1.00
O1243  O     0.63052   0.91298   0.75309   0.00000  Uiso   1.00
O1244  O     0.48253   0.74169   0.91956   0.00000  Uiso   1.00
O1245  O     0.36130   0.66748   0.69015   0.00000  Uiso   1.00
O1246  O     0.63084   0.99979   0.80724   0.00000  Uiso   1.00
O1247  O     0.50240   0.78579   0.70403   0.00000  Uiso   1.00
O1248  O     0.49832   0.87800   0.79859   0.00000  Uiso   1.00
O1249  O     0.36948   0.75369   0.74690   0.00000  Uiso   1.00
O1250  O     0.39155   0.90368   0.74501   0.00000  Uiso   1.00
O1251  O     0.60845   0.76298   0.75499   0.00000  Uiso   1.00
O1252  O     0.63662   0.84063   0.82247   0.00000  Uiso   1.00
O1253  O     0.36338   0.82603   0.67753   0.00000  Uiso   1.00
O1254  O     0.39764   0.83134   0.81439   0.00000  Uiso   1.00
O1255  O     0.60236   0.83533   0.68561   0.00000  Uiso   1.00
O1256  O     0.49498   0.90228   0.59783   0.00000  Uiso   1.00
Zn1257 Zn    0.60366   0.83954   0.75539   0.00000  Uiso   1.00
Zn1258 Zn    0.39634   0.82713   0.74460   0.00000  Uiso   1.00
C1259  C     0.67984   0.93087   0.74581   0.00000  Uiso   1.00
C1260  C     0.97922   0.82868   0.65885   0.00000  Uiso   1.00
C1261  C     0.69811   0.84354   0.89409   0.00000  Uiso   1.00
C1262  C     0.97033   0.82133   0.60575   0.00000  Uiso   1.00
C1263  C     0.67953   0.88034   0.97473   0.00000  Uiso   1.00
C1264  C     0.97587   0.76791   0.53030   0.00000  Uiso   1.00
C1265  C     0.99397   0.86680   0.92650   0.00000  Uiso   1.00
C1266  C     0.99830   0.78395   0.57691   0.00000  Uiso   1.00
C1267  C     0.75019   0.82826   0.91233   0.00000  Uiso   1.00
C1268  C     0.92703   0.84776   0.58446   0.00000  Uiso   1.00
C1269  C     0.76668   0.83624   0.96162   0.00000  Uiso   1.00
C1270  C     0.98673   0.73600   0.75421   0.00000  Uiso   1.00
C1271  C     0.89801   0.82679   0.54101   0.00000  Uiso   1.00
C1272  C     0.73334   0.86741   0.99160   0.00000  Uiso   1.00
C1273  C     0.92422   0.78620   0.51364   0.00000  Uiso   1.00
C1274  C     0.81803   0.81777   0.98042   0.00000  Uiso   1.00
C1275  C     0.84304   0.84201   0.52533   0.00000  Uiso   1.00
C1276  C     0.81325   0.87034   0.63419   0.00000  Uiso   1.00
C1277  C     0.78297   0.70390   0.94063   0.00000  Uiso   1.00
C1278  C     0.72355   0.96405   0.66179   0.00000  Uiso   1.00
C1279  C     0.97275   0.70461   0.84712   0.00000  Uiso   1.00
C1280  C     0.80929   0.73661   0.70526   0.00000  Uiso   1.00
C1281  C     0.80966   0.87719   0.55356   0.00000  Uiso   1.00
C1282  C     0.86216   0.92584   0.80405   0.00000  Uiso   1.00
C1283  C     0.84377   0.77436   0.95644   0.00000  Uiso   1.00
C1284  C     0.75493   0.88717   0.53719   0.00000  Uiso   1.00
C1285  C     0.89742   0.76138   0.97166   0.00000  Uiso   1.00
C1286  C     0.68046   0.98415   0.73504   0.00000  Uiso   1.00
C1287  C     0.98574   0.68302   0.76492   0.00000  Uiso   1.00
C1288  C     0.68776   0.83804   0.84112   0.00000  Uiso   1.00
Cl1289 Cl    0.72630   0.75440   0.59700   0.00000  Uiso   1.00
Cl1290 Cl    0.92486   0.88286   0.90932   0.00000  Uiso   1.00
H1291  H     0.73000   0.91250   0.55986   0.00000  Uiso   1.00
H1292  H     0.76097   0.67747   0.91105   0.00000  Uiso   1.00
H1293  H     0.75020   0.72238   0.96252   0.00000  Uiso   1.00
H1294  H     0.80971   0.67947   0.96333   0.00000  Uiso   1.00
H1295  H     0.69643   0.92843   0.65087   0.00000  Uiso   1.00
H1296  H     0.76392   0.95543   0.68110   0.00000  Uiso   1.00
H1297  H     0.73421   0.98131   0.62799   0.00000  Uiso   1.00
H1298  H     0.94209   0.73595   0.84431   0.00000  Uiso   1.00
H1299  H     0.68350   0.72123   0.85087   0.00000  Uiso   1.00
H1300  H     0.96528   0.68562   0.88082   0.00000  Uiso   1.00
H1301  H     0.76769   0.73604   0.68567   0.00000  Uiso   1.00
H1302  H     0.91652   0.72890   0.95214   0.00000  Uiso   1.00
H1303  H     0.80659   0.72534   0.74309   0.00000  Uiso   1.00
H1304  H     0.83452   0.70717   0.68566   0.00000  Uiso   1.00
H1305  H     0.86392   0.94353   0.76876   0.00000  Uiso   1.00
H1306  H     0.90453   0.92093   0.82114   0.00000  Uiso   1.00
H1307  H     0.84036   0.95331   0.82896   0.00000  Uiso   1.00
H1308  H     0.91660   0.88314   0.60450   0.00000  Uiso   1.00
H1309  H     0.77976   0.81330   0.88713   0.00000  Uiso   1.00
H1310  H     0.98592   0.90188   0.99877   0.00000  Uiso   1.00
H1311  H     0.99646   0.73797   0.50867   0.00000  Uiso   1.00
H1312  H     0.82934   0.83039   0.62804   0.00000  Uiso   1.00
H1313  H     0.76710   0.86758   0.63562   0.00000  Uiso   1.00
H1314  H     0.83186   0.88829   0.66969   0.00000  Uiso   1.00
N1315  N     0.81362   0.81883   0.73739   0.00000  Uiso   1.00
N1316  N     0.85305   0.84784   0.76260   0.00000  Uiso   1.00
O1317  O     0.96386   0.91298   0.75309   0.00000  Uiso   1.00
O1318  O     0.81586   0.74169   0.91956   0.00000  Uiso   1.00
O1319  O     0.69463   0.66748   0.69015   0.00000  Uiso   1.00
O1320  O     0.96418   0.99979   0.80724   0.00000  Uiso   1.00
O1321  O     0.83573   0.78579   0.70403   0.00000  Uiso   1.00
O1322  O     0.83165   0.87800   0.79859   0.00000  Uiso   1.00
O1323  O     0.70281   0.75369   0.74690   0.00000  Uiso   1.00
O1324  O     0.72488   0.90368   0.74501   0.00000  Uiso   1.00
O1325  O     0.94178   0.76298   0.75499   0.00000  Uiso   1.00
O1326  O     0.96995   0.84063   0.82247   0.00000  Uiso   1.00
O1327  O     0.69672   0.82603   0.67753   0.00000  Uiso   1.00
O1328  O     0.73098   0.83134   0.81439   0.00000  Uiso   1.00
O1329  O     0.93569   0.83533   0.68561   0.00000  Uiso   1.00
O1330  O     0.82831   0.90228   0.59783   0.00000  Uiso   1.00
Zn1331 Zn    0.93700   0.83954   0.75539   0.00000  Uiso   1.00
Zn1332 Zn    0.72967   0.82713   0.74460   0.00000  Uiso   1.00
loop_
_geom_bond_atom_site_label_1
_geom_bond_atom_site_label_2
_geom_bond_distance
_geom_bond_site_symmetry_2
_ccdc_geom_bond_type
C1     C28     1.425   .     S
C1     O66     1.301   .     A
C1     O207    1.279   1_455 S
C2     C4      1.466   .     S
C2     O71     1.318   .     A
C2     O143    1.293   .     S
C3     C30     1.465   .     S
C3     C9      1.392   .     A
C3     C155    1.416   1_455 S
C4     C8      1.409   .     A
C4     C10     1.384   .     A
C5     C14     1.398   .     A
C5     C155    1.392   1_455 S
C5     H200    1.085   1_455 S
C6     H53     1.084   .     S
C6     C8      1.388   .     A
C6     C15     1.398   .     A
C7     Cl32    1.758   .     S
C7     C77     1.416   .     S
C7     C79     1.392   .     S
C8     Cl105   1.752   .     S
C9     H51     1.079   .     S
C9     C11     1.391   .     A
C10    H50     1.069   .     S
C10    C13     1.404   .     A
C11    C16     1.413   .     A
C11    C14     1.405   .     A
C12    C29     1.417   .     S
C12    O67     1.296   .     A
C12    O139    1.279   .     S
C13    C17     1.432   .     A
C13    C15     1.422   .     A
C14    C692    1.380   .     S
C15    C693    1.384   1_554 S
C16    C25     1.426   .     A
C16    C683    1.427   .     S
C17    C23     1.438   .     A
C17    C682    1.427   1_554 S
C18    H56     1.108   .     S
C18    O72     1.406   .     S
C18    H55     1.102   .     S
C18    H54     1.111   .     S
C19    O60     1.411   .     S
C19    H35     1.113   .     S
C19    H36     1.113   .     S
C19    H34     1.110   .     S
C20    H38     1.109   .     S
C20    H37     1.109   .     S
C20    H39     1.108   .     S
C20    O283    1.404   .     S
C21    H40     1.111   .     S
C21    H42     1.109   .     S
C21    H115    1.114   .     S
C21    O506    1.412   1_545 S
C22    H43     1.098   .     S
C22    H46     1.109   .     S
C22    H45     1.114   .     S
C22    O63     1.394   .     S
C23    C26     1.393   .     A
C23    O72     1.375   .     S
C24    O64     1.396   .     S
C24    H49     1.109   .     S
C24    H47     1.114   .     S
C24    H48     1.103   .     S
C25    O60     1.384   .     S
C25    C27     1.381   .     A
C26    H33     1.084   .     S
C26    C680    1.380   1_554 S
C27    H44     1.084   .     S
C27    C681    1.384   .     S
C28    C399    1.344   1_455 S
C28    O283    1.404   .     S
C29    C546    1.344   1_545 S
C29    O506    1.399   1_545 S
C30    O70     1.312   .     A
C30    O216    1.299   1_455 S
Cl31   C156    1.752   1_455 S
H41    C169    1.114   1_455 S
H52    C79     1.085   .     S
N57    Zn74    2.038   .     S
N57    N58     1.304   .     D
N57    O63     1.345   .     S
N58    O64     1.346   .     S
N58    Zn73    2.038   .     S
O59    Zn73    1.976   .     S
O59    C75     1.279   .     S
O61    C464    1.404   1_545 S
O61    C472    1.404   1_545 S
O62    C243    1.412   .     S
O62    C251    1.399   .     S
O65    Zn74    1.976   .     S
O65    C160    1.279   1_455 S
O66    Zn74    1.973   .     S
O67    Zn73    1.973   .     S
O68    Zn73    1.967   .     S
O68    C104    1.299   .     S
O69    Zn74    1.967   .     S
O69    C150    1.293   1_455 S
O70    Zn74    1.923   .     S
O71    Zn73    1.923   .     S
C75    C102    1.425   .     S
C75    O140    1.301   .     A
C76    C78     1.466   .     S
C76    O145    1.318   .     A
C76    O217    1.293   .     S
C77    C104    1.465   .     S
C77    C83     1.392   .     A
C78    C82     1.409   .     A
C78    C84     1.384   .     A
C79    C88     1.398   .     A
C80    H127    1.084   .     S
C80    C82     1.388   .     A
C80    C89     1.398   .     A
C81    Cl106   1.758   .     S
C81    C151    1.416   .     S
C81    C153    1.392   .     S
C82    Cl179   1.752   .     S
C83    H125    1.079   .     S
C83    C85     1.391   .     A
C84    H124    1.069   .     S
C84    C87     1.404   .     A
C85    C90     1.413   .     A
C85    C88     1.405   .     A
C86    C103    1.417   .     S
C86    O141    1.296   .     A
C86    O213    1.279   .     S
C87    C91     1.432   .     A
C87    C89     1.422   .     A
C88    C766    1.380   .     S
C89    C767    1.384   1_554 S
C90    C99     1.426   .     A
C90    C757    1.427   .     S
C91    C97     1.438   .     A
C91    C756    1.427   1_554 S
C92    H130    1.108   .     S
C92    O146    1.406   .     S
C92    H129    1.102   .     S
C92    H128    1.111   .     S
C93    O134    1.411   .     S
C93    H109    1.113   .     S
C93    H110    1.113   .     S
C93    H108    1.110   .     S
C94    H112    1.109   .     S
C94    H111    1.109   .     S
C94    H113    1.108   .     S
C94    O357    1.404   .     S
C95    H114    1.111   .     S
C95    H116    1.109   .     S
C95    H189    1.114   .     S
C95    O580    1.412   1_545 S
C96    H117    1.098   .     S
C96    H120    1.109   .     S
C96    H119    1.114   .     S
C96    O137    1.394   .     S
C97    C100    1.393   .     A
C97    O146    1.375   .     S
C98    O138    1.396   .     S
C98    H123    1.109   .     S
C98    H121    1.114   .     S
C98    H122    1.103   .     S
C99    O134    1.384   .     S
C99    C101    1.381   .     A
C100   H107    1.084   .     S
C100   C754    1.380   1_554 S
C101   H118    1.084   .     S
C101   C755    1.384   .     S
C102   C251    1.344   .     S
C102   O357    1.404   .     S
C103   C620    1.344   1_545 S
C103   O580    1.399   1_545 S
C104   O144    1.312   .     A
H126   C153    1.085   .     S
N131   Zn148   2.038   .     S
N131   N132    1.304   .     D
N131   O137    1.345   .     S
N132   O138    1.346   .     S
N132   Zn147   2.038   .     S
O133   Zn147   1.976   .     S
O133   C149    1.279   .     S
O135   C538    1.404   1_545 S
O135   C546    1.404   1_545 S
O136   C317    1.412   .     S
O136   C325    1.399   .     S
O139   Zn148   1.976   .     S
O140   Zn148   1.973   .     S
O141   Zn147   1.973   .     S
O142   Zn147   1.967   .     S
O142   C178    1.299   .     S
O143   Zn148   1.967   .     S
O144   Zn148   1.923   .     S
O145   Zn147   1.923   .     S
C149   C176    1.425   .     S
C149   O214    1.301   .     A
C150   C152    1.466   .     S
C150   O219    1.318   .     A
C150   O69     1.293   1_655 S
C151   C178    1.465   .     S
C151   C157    1.392   .     A
C152   C156    1.409   .     A
C152   C158    1.384   .     A
C153   C162    1.398   .     A
C154   H201    1.084   .     S
C154   C156    1.388   .     A
C154   C163    1.398   .     A
C155   Cl180   1.758   .     S
C155   C3      1.416   1_655 S
C155   C5      1.392   1_655 S
C156   Cl31    1.752   1_655 S
C157   H199    1.079   .     S
C157   C159    1.391   .     A
C158   H198    1.069   .     S
C158   C161    1.404   .     A
C159   C164    1.413   .     A
C159   C162    1.405   .     A
C160   C177    1.417   .     S
C160   O215    1.296   .     A
C160   O65     1.279   1_655 S
C161   C165    1.432   .     A
C161   C163    1.422   .     A
C162   C840    1.380   .     S
C163   C841    1.384   1_554 S
C164   C173    1.426   .     A
C164   C831    1.427   .     S
C165   C171    1.438   .     A
C165   C830    1.427   1_554 S
C166   H204    1.108   .     S
C166   O220    1.406   .     S
C166   H203    1.102   .     S
C166   H202    1.111   .     S
C167   O208    1.411   .     S
C167   H183    1.113   .     S
C167   H184    1.113   .     S
C167   H182    1.110   .     S
C168   H186    1.109   .     S
C168   H185    1.109   .     S
C168   H187    1.108   .     S
C168   O431    1.404   .     S
C169   H188    1.111   .     S
C169   H190    1.109   .     S
C169   H41     1.114   1_655 S
C169   O654    1.412   1_545 S
C170   H191    1.098   .     S
C170   H194    1.109   .     S
C170   H193    1.114   .     S
C170   O211    1.394   .     S
C171   C174    1.393   .     A
C171   O220    1.375   .     S
C172   O212    1.396   .     S
C172   H197    1.109   .     S
C172   H195    1.114   .     S
C172   H196    1.103   .     S
C173   O208    1.384   .     S
C173   C175    1.381   .     A
C174   H181    1.084   .     S
C174   C828    1.380   1_554 S
C175   H192    1.084   .     S
C175   C829    1.384   .     S
C176   C325    1.344   .     S
C176   O431    1.404   .     S
C177   C472    1.344   1_645 S
C177   O654    1.399   1_545 S
C178   O218    1.312   .     A
H200   C5      1.085   1_655 S
N205   Zn222   2.038   .     S
N205   N206    1.304   .     D
N205   O211    1.345   .     S
N206   O212    1.346   .     S
N206   Zn221   2.038   .     S
O207   Zn221   1.976   .     S
O207   C1      1.279   1_655 S
O209   C612    1.404   1_545 S
O209   C620    1.404   1_545 S
O210   C391    1.412   .     S
O210   C399    1.399   .     S
O213   Zn222   1.976   .     S
O214   Zn222   1.973   .     S
O215   Zn221   1.973   .     S
O216   Zn221   1.967   .     S
O216   C30     1.299   1_655 S
O217   Zn222   1.967   .     S
O218   Zn222   1.923   .     S
O219   Zn221   1.923   .     S
C223   C250    1.425   .     S
C223   O288    1.301   .     A
C223   O429    1.279   1_455 S
C224   C226    1.466   .     S
C224   O293    1.318   .     A
C224   O365    1.293   .     S
C225   C252    1.465   .     S
C225   C231    1.392   .     A
C225   C377    1.416   1_455 S
C226   C230    1.409   .     A
C226   C232    1.384   .     A
C227   C236    1.398   .     A
C227   C377    1.392   1_455 S
C227   H422    1.085   1_455 S
C228   H275    1.084   .     S
C228   C230    1.388   .     A
C228   C237    1.398   .     A
C229   Cl254   1.758   .     S
C229   C299    1.416   .     S
C229   C301    1.392   .     S
C230   Cl327   1.752   .     S
C231   H273    1.079   .     S
C231   C233    1.391   .     A
C232   H272    1.069   .     S
C232   C235    1.404   .     A
C233   C238    1.413   .     A
C233   C236    1.405   .     A
C234   C251    1.417   .     S
C234   O289    1.296   .     A
C234   O361    1.279   .     S
C235   C239    1.432   .     A
C235   C237    1.422   .     A
C236   C914    1.380   .     S
C237   C915    1.384   1_554 S
C238   C247    1.426   .     A
C238   C905    1.427   .     S
C239   C245    1.438   .     A
C239   C904    1.427   1_554 S
C240   H278    1.108   .     S
C240   O294    1.406   .     S
C240   H277    1.102   .     S
C240   H276    1.111   .     S
C241   O282    1.411   .     S
C241   H257    1.113   .     S
C241   H258    1.113   .     S
C241   H256    1.110   .     S
C242   H260    1.109   .     S
C242   H259    1.109   .     S
C242   H261    1.108   .     S
C242   O505    1.404   .     S
C243   H262    1.111   .     S
C243   H264    1.109   .     S
C243   H337    1.114   .     S
C244   H265    1.098   .     S
C244   H268    1.109   .     S
C244   H267    1.114   .     S
C244   O285    1.394   .     S
C245   C248    1.393   .     A
C245   O294    1.375   .     S
C246   O286    1.396   .     S
C246   H271    1.109   .     S
C246   H269    1.114   .     S
C246   H270    1.103   .     S
C247   O282    1.384   .     S
C247   C249    1.381   .     A
C248   H255    1.084   .     S
C248   C902    1.380   1_554 S
C249   H266    1.084   .     S
C249   C903    1.384   .     S
C250   C621    1.344   1_455 S
C250   O505    1.404   .     S
C252   O292    1.312   .     A
C252   O438    1.299   1_455 S
Cl253  C378    1.752   1_455 S
H263   C391    1.114   1_455 S
H274   C301    1.085   .     S
N279   Zn296   2.038   .     S
N279   N280    1.304   .     D
N279   O285    1.345   .     S
N280   O286    1.346   .     S
N280   Zn295   2.038   .     S
O281   Zn295   1.976   .     S
O281   C297    1.279   .     S
O284   C465    1.412   .     S
O284   C473    1.399   .     S
O287   Zn296   1.976   .     S
O287   C382    1.279   1_455 S
O288   Zn296   1.973   .     S
O289   Zn295   1.973   .     S
O290   Zn295   1.967   .     S
O290   C326    1.299   .     S
O291   Zn296   1.967   .     S
O291   C372    1.293   1_455 S
O292   Zn296   1.923   .     S
O293   Zn295   1.923   .     S
C297   C324    1.425   .     S
C297   O362    1.301   .     A
C298   C300    1.466   .     S
C298   O367    1.318   .     A
C298   O439    1.293   .     S
C299   C326    1.465   .     S
C299   C305    1.392   .     A
C300   C304    1.409   .     A
C300   C306    1.384   .     A
C301   C310    1.398   .     A
C302   H349    1.084   .     S
C302   C304    1.388   .     A
C302   C311    1.398   .     A
C303   Cl328   1.758   .     S
C303   C373    1.416   .     S
C303   C375    1.392   .     S
C304   Cl401   1.752   .     S
C305   H347    1.079   .     S
C305   C307    1.391   .     A
C306   H346    1.069   .     S
C306   C309    1.404   .     A
C307   C312    1.413   .     A
C307   C310    1.405   .     A
C308   C325    1.417   .     S
C308   O363    1.296   .     A
C308   O435    1.279   .     S
C309   C313    1.432   .     A
C309   C311    1.422   .     A
C310   C988    1.380   .     S
C311   C989    1.384   1_554 S
C312   C321    1.426   .     A
C312   C979    1.427   .     S
C313   C319    1.438   .     A
C313   C978    1.427   1_554 S
C314   H352    1.108   .     S
C314   O368    1.406   .     S
C314   H351    1.102   .     S
C314   H350    1.111   .     S
C315   O356    1.411   .     S
C315   H331    1.113   .     S
C315   H332    1.113   .     S
C315   H330    1.110   .     S
C316   H334    1.109   .     S
C316   H333    1.109   .     S
C316   H335    1.108   .     S
C316   O579    1.404   .     S
C317   H336    1.111   .     S
C317   H338    1.109   .     S
C317   H411    1.114   .     S
C318   H339    1.098   .     S
C318   H342    1.109   .     S
C318   H341    1.114   .     S
C318   O359    1.394   .     S
C319   C322    1.393   .     A
C319   O368    1.375   .     S
C320   O360    1.396   .     S
C320   H345    1.109   .     S
C320   H343    1.114   .     S
C320   H344    1.103   .     S
C321   O356    1.384   .     S
C321   C323    1.381   .     A
C322   H329    1.084   .     S
C322   C976    1.380   1_554 S
C323   H340    1.084   .     S
C323   C977    1.384   .     S
C324   C473    1.344   .     S
C324   O579    1.404   .     S
C326   O366    1.312   .     A
H348   C375    1.085   .     S
N353   Zn370   2.038   .     S
N353   N354    1.304   .     D
N353   O359    1.345   .     S
N354   O360    1.346   .     S
N354   Zn369   2.038   .     S
O355   Zn369   1.976   .     S
O355   C371    1.279   .     S
O358   C539    1.412   .     S
O358   C547    1.399   .     S
O361   Zn370   1.976   .     S
O362   Zn370   1.973   .     S
O363   Zn369   1.973   .     S
O364   Zn369   1.967   .     S
O364   C400    1.299   .     S
O365   Zn370   1.967   .     S
O366   Zn370   1.923   .     S
O367   Zn369   1.923   .     S
C371   C398    1.425   .     S
C371   O436    1.301   .     A
C372   C374    1.466   .     S
C372   O441    1.318   .     A
C372   O291    1.293   1_655 S
C373   C400    1.465   .     S
C373   C379    1.392   .     A
C374   C378    1.409   .     A
C374   C380    1.384   .     A
C375   C384    1.398   .     A
C376   H423    1.084   .     S
C376   C378    1.388   .     A
C376   C385    1.398   .     A
C377   Cl402   1.758   .     S
C377   C225    1.416   1_655 S
C377   C227    1.392   1_655 S
C378   Cl253   1.752   1_655 S
C379   H421    1.079   .     S
C379   C381    1.391   .     A
C380   H420    1.069   .     S
C380   C383    1.404   .     A
C381   C386    1.413   .     A
C381   C384    1.405   .     A
C382   C399    1.417   .     S
C382   O437    1.296   .     A
C382   O287    1.279   1_655 S
C383   C387    1.432   .     A
C383   C385    1.422   .     A
C384   C1062   1.380   .     S
C385   C1063   1.384   1_554 S
C386   C395    1.426   .     A
C386   C1053   1.427   .     S
C387   C393    1.438   .     A
C387   C1052   1.427   1_554 S
C388   H426    1.108   .     S
C388   O442    1.406   .     S
C388   H425    1.102   .     S
C388   H424    1.111   .     S
C389   O430    1.411   .     S
C389   H405    1.113   .     S
C389   H406    1.113   .     S
C389   H404    1.110   .     S
C390   H408    1.109   .     S
C390   H407    1.109   .     S
C390   H409    1.108   .     S
C390   O653    1.404   .     S
C391   H410    1.111   .     S
C391   H412    1.109   .     S
C391   H263    1.114   1_655 S
C392   H413    1.098   .     S
C392   H416    1.109   .     S
C392   H415    1.114   .     S
C392   O433    1.394   .     S
C393   C396    1.393   .     A
C393   O442    1.375   .     S
C394   O434    1.396   .     S
C394   H419    1.109   .     S
C394   H417    1.114   .     S
C394   H418    1.103   .     S
C395   O430    1.384   .     S
C395   C397    1.381   .     A
C396   H403    1.084   .     S
C396   C1050   1.380   1_554 S
C397   H414    1.084   .     S
C397   C1051   1.384   .     S
C398   C547    1.344   .     S
C398   O653    1.404   .     S
C399   C28     1.344   1_655 S
C400   O440    1.312   .     A
H422   C227    1.085   1_655 S
N427   Zn444   2.038   .     S
N427   N428    1.304   .     D
N427   O433    1.345   .     S
N428   O434    1.346   .     S
N428   Zn443   2.038   .     S
O429   Zn443   1.976   .     S
O429   C223    1.279   1_655 S
O432   C613    1.412   .     S
O432   C621    1.399   .     S
O435   Zn444   1.976   .     S
O436   Zn444   1.973   .     S
O437   Zn443   1.973   .     S
O438   Zn443   1.967   .     S
O438   C252    1.299   1_655 S
O439   Zn444   1.967   .     S
O440   Zn444   1.923   .     S
O441   Zn443   1.923   .     S
C445   C472    1.425   .     S
C445   O510    1.301   .     A
C445   O651    1.279   1_455 S
C446   C448    1.466   .     S
C446   O515    1.318   .     A
C446   O587    1.293   .     S
C447   C474    1.465   .     S
C447   C453    1.392   .     A
C447   C599    1.416   1_455 S
C448   C452    1.409   .     A
C448   C454    1.384   .     A
C449   C458    1.398   .     A
C449   C599    1.392   1_455 S
C449   H644    1.085   1_455 S
C450   H497    1.084   .     S
C450   C452    1.388   .     A
C450   C459    1.398   .     A
C451   Cl476   1.758   .     S
C451   C521    1.416   .     S
C451   C523    1.392   .     S
C452   Cl549   1.752   .     S
C453   H495    1.079   .     S
C453   C455    1.391   .     A
C454   H494    1.069   .     S
C454   C457    1.404   .     A
C455   C460    1.413   .     A
C455   C458    1.405   .     A
C456   C473    1.417   .     S
C456   O511    1.296   .     A
C456   O583    1.279   .     S
C457   C461    1.432   .     A
C457   C459    1.422   .     A
C458   C1136   1.380   .     S
C459   C1137   1.384   1_554 S
C460   C469    1.426   .     A
C460   C1127   1.427   .     S
C461   C467    1.438   .     A
C461   C1126   1.427   1_554 S
C462   H500    1.108   .     S
C462   O516    1.406   .     S
C462   H499    1.102   .     S
C462   H498    1.111   .     S
C463   O504    1.411   .     S
C463   H479    1.113   .     S
C463   H480    1.113   .     S
C463   H478    1.110   .     S
C464   H482    1.109   .     S
C464   H481    1.109   .     S
C464   H483    1.108   .     S
C464   O61     1.404   1_565 S
C465   H484    1.111   .     S
C465   H486    1.109   .     S
C465   H559    1.114   .     S
C466   H487    1.098   .     S
C466   H490    1.109   .     S
C466   H489    1.114   .     S
C466   O507    1.394   .     S
C467   C470    1.393   .     A
C467   O516    1.375   .     S
C468   O508    1.396   .     S
C468   H493    1.109   .     S
C468   H491    1.114   .     S
C468   H492    1.103   .     S
C469   O504    1.384   .     S
C469   C471    1.381   .     A
C470   H477    1.084   .     S
C470   C1124   1.380   1_554 S
C471   H488    1.084   .     S
C471   C1125   1.384   .     S
C472   C177    1.344   1_465 S
C472   O61     1.404   1_565 S
C474   O514    1.312   .     A
C474   O660    1.299   1_455 S
Cl475  C600    1.752   1_455 S
H485   C613    1.114   1_455 S
H496   C523    1.085   .     S
N501   Zn518   2.038   .     S
N501   N502    1.304   .     D
N501   O507    1.345   .     S
N502   O508    1.346   .     S
N502   Zn517   2.038   .     S
O503   Zn517   1.976   .     S
O503   C519    1.279   .     S
O506   C21     1.412   1_565 S
O506   C29     1.399   1_565 S
O509   Zn518   1.976   .     S
O509   C604    1.279   1_455 S
O510   Zn518   1.973   .     S
O511   Zn517   1.973   .     S
O512   Zn517   1.967   .     S
O512   C548    1.299   .     S
O513   Zn518   1.967   .     S
O513   C594    1.293   1_455 S
O514   Zn518   1.923   .     S
O515   Zn517   1.923   .     S
C519   C546    1.425   .     S
C519   O584    1.301   .     A
C520   C522    1.466   .     S
C520   O589    1.318   .     A
C520   O661    1.293   .     S
C521   C548    1.465   .     S
C521   C527    1.392   .     A
C522   C526    1.409   .     A
C522   C528    1.384   .     A
C523   C532    1.398   .     A
C524   H571    1.084   .     S
C524   C526    1.388   .     A
C524   C533    1.398   .     A
C525   Cl550   1.758   .     S
C525   C595    1.416   .     S
C525   C597    1.392   .     S
C526   Cl623   1.752   .     S
C527   H569    1.079   .     S
C527   C529    1.391   .     A
C528   H568    1.069   .     S
C528   C531    1.404   .     A
C529   C534    1.413   .     A
C529   C532    1.405   .     A
C530   C547    1.417   .     S
C530   O585    1.296   .     A
C530   O657    1.279   .     S
C531   C535    1.432   .     A
C531   C533    1.422   .     A
C532   C1210   1.380   .     S
C533   C1211   1.384   1_554 S
C534   C543    1.426   .     A
C534   C1201   1.427   .     S
C535   C541    1.438   .     A
C535   C1200   1.427   1_554 S
C536   H574    1.108   .     S
C536   O590    1.406   .     S
C536   H573    1.102   .     S
C536   H572    1.111   .     S
C537   O578    1.411   .     S
C537   H553    1.113   .     S
C537   H554    1.113   .     S
C537   H552    1.110   .     S
C538   H556    1.109   .     S
C538   H555    1.109   .     S
C538   H557    1.108   .     S
C538   O135    1.404   1_565 S
C539   H558    1.111   .     S
C539   H560    1.109   .     S
C539   H633    1.114   .     S
C540   H561    1.098   .     S
C540   H564    1.109   .     S
C540   H563    1.114   .     S
C540   O581    1.394   .     S
C541   C544    1.393   .     A
C541   O590    1.375   .     S
C542   O582    1.396   .     S
C542   H567    1.109   .     S
C542   H565    1.114   .     S
C542   H566    1.103   .     S
C543   O578    1.384   .     S
C543   C545    1.381   .     A
C544   H551    1.084   .     S
C544   C1198   1.380   1_554 S
C545   H562    1.084   .     S
C545   C1199   1.384   .     S
C546   C29     1.344   1_565 S
C546   O135    1.404   1_565 S
C548   O588    1.312   .     A
H570   C597    1.085   .     S
N575   Zn592   2.038   .     S
N575   N576    1.304   .     D
N575   O581    1.345   .     S
N576   O582    1.346   .     S
N576   Zn591   2.038   .     S
O577   Zn591   1.976   .     S
O577   C593    1.279   .     S
O580   C95     1.412   1_565 S
O580   C103    1.399   1_565 S
O583   Zn592   1.976   .     S
O584   Zn592   1.973   .     S
O585   Zn591   1.973   .     S
O586   Zn591   1.967   .     S
O586   C622    1.299   .     S
O587   Zn592   1.967   .     S
O588   Zn592   1.923   .     S
O589   Zn591   1.923   .     S
C593   C620    1.425   .     S
C593   O658    1.301   .     A
C594   C596    1.466   .     S
C594   O663    1.318   .     A
C594   O513    1.293   1_655 S
C595   C622    1.465   .     S
C595   C601    1.392   .     A
C596   C600    1.409   .     A
C596   C602    1.384   .     A
C597   C606    1.398   .     A
C598   H645    1.084   .     S
C598   C600    1.388   .     A
C598   C607    1.398   .     A
C599   Cl624   1.758   .     S
C599   C447    1.416   1_655 S
C599   C449    1.392   1_655 S
C600   Cl475   1.752   1_655 S
C601   H643    1.079   .     S
C601   C603    1.391   .     A
C602   H642    1.069   .     S
C602   C605    1.404   .     A
C603   C608    1.413   .     A
C603   C606    1.405   .     A
C604   C621    1.417   .     S
C604   O659    1.296   .     A
C604   O509    1.279   1_655 S
C605   C609    1.432   .     A
C605   C607    1.422   .     A
C606   C1284   1.380   .     S
C607   C1285   1.384   1_554 S
C608   C617    1.426   .     A
C608   C1275   1.427   .     S
C609   C615    1.438   .     A
C609   C1274   1.427   1_554 S
C610   H648    1.108   .     S
C610   O664    1.406   .     S
C610   H647    1.102   .     S
C610   H646    1.111   .     S
C611   O652    1.411   .     S
C611   H627    1.113   .     S
C611   H628    1.113   .     S
C611   H626    1.110   .     S
C612   H630    1.109   .     S
C612   H629    1.109   .     S
C612   H631    1.108   .     S
C612   O209    1.404   1_565 S
C613   H632    1.111   .     S
C613   H634    1.109   .     S
C613   H485    1.114   1_655 S
C614   H635    1.098   .     S
C614   H638    1.109   .     S
C614   H637    1.114   .     S
C614   O655    1.394   .     S
C615   C618    1.393   .     A
C615   O664    1.375   .     S
C616   O656    1.396   .     S
C616   H641    1.109   .     S
C616   H639    1.114   .     S
C616   H640    1.103   .     S
C617   O652    1.384   .     S
C617   C619    1.381   .     A
C618   H625    1.084   .     S
C618   C1272   1.380   1_554 S
C619   H636    1.084   .     S
C619   C1273   1.384   .     S
C620   C103    1.344   1_565 S
C620   O209    1.404   1_565 S
C621   C250    1.344   1_655 S
C622   O662    1.312   .     A
H644   C449    1.085   1_655 S
N649   Zn666   2.038   .     S
N649   N650    1.304   .     D
N649   O655    1.345   .     S
N650   O656    1.346   .     S
N650   Zn665   2.038   .     S
O651   Zn665   1.976   .     S
O651   C445    1.279   1_655 S
O654   C169    1.412   1_565 S
O654   C177    1.399   1_565 S
O657   Zn666   1.976   .     S
O658   Zn666   1.973   .     S
O659   Zn665   1.973   .     S
O660   Zn665   1.967   .     S
O660   C474    1.299   1_655 S
O661   Zn666   1.967   .     S
O662   Zn666   1.923   .     S
O663   Zn665   1.923   .     S
C667   C694    1.425   .     S
C667   O732    1.301   .     A
C667   O873    1.279   1_455 S
C668   C670    1.466   .     S
C668   O737    1.318   .     A
C668   O809    1.293   .     S
C669   C696    1.465   .     S
C669   C675    1.392   .     A
C669   C821    1.416   1_455 S
C670   C674    1.409   .     A
C670   C676    1.384   .     A
C671   C680    1.398   .     A
C671   C821    1.392   1_455 S
C671   H866    1.085   1_455 S
C672   H719    1.084   .     S
C672   C674    1.388   .     A
C672   C681    1.398   .     A
C673   Cl698   1.758   .     S
C673   C743    1.416   .     S
C673   C745    1.392   .     S
C674   Cl771   1.752   .     S
C675   H717    1.079   .     S
C675   C677    1.391   .     A
C676   H716    1.069   .     S
C676   C679    1.404   .     A
C677   C682    1.413   .     A
C677   C680    1.405   .     A
C678   C695    1.417   .     S
C678   O733    1.296   .     A
C678   O805    1.279   .     S
C679   C683    1.432   .     A
C679   C681    1.422   .     A
C680   C26     1.380   1_556 S
C682   C691    1.426   .     A
C682   C17     1.427   1_556 S
C683   C689    1.438   .     A
C684   H722    1.108   .     S
C684   O738    1.406   .     S
C684   H721    1.102   .     S
C684   H720    1.111   .     S
C685   O726    1.411   .     S
C685   H701    1.113   .     S
C685   H702    1.113   .     S
C685   H700    1.110   .     S
C686   H704    1.109   .     S
C686   H703    1.109   .     S
C686   H705    1.108   .     S
C686   O949    1.404   .     S
C687   H706    1.111   .     S
C687   H708    1.109   .     S
C687   H781    1.114   .     S
C687   O1172   1.412   1_545 S
C688   H709    1.098   .     S
C688   H712    1.109   .     S
C688   H711    1.114   .     S
C688   O729    1.394   .     S
C689   C692    1.393   .     A
C689   O738    1.375   .     S
C690   O730    1.396   .     S
C690   H715    1.109   .     S
C690   H713    1.114   .     S
C690   H714    1.103   .     S
C691   O726    1.384   .     S
C691   C693    1.381   .     A
C692   H699    1.084   .     S
C693   H710    1.084   .     S
C693   C15     1.384   1_556 S
C694   C1065   1.344   1_455 S
C694   O949    1.404   .     S
C695   C1212   1.344   1_545 S
C695   O1172   1.399   1_545 S
C696   O736    1.312   .     A
C696   O882    1.299   1_455 S
Cl697  C822    1.752   1_455 S
H707   C835    1.114   1_455 S
H718   C745    1.085   .     S
N723   Zn740   2.038   .     S
N723   N724    1.304   .     D
N723   O729    1.345   .     S
N724   O730    1.346   .     S
N724   Zn739   2.038   .     S
O725   Zn739   1.976   .     S
O725   C741    1.279   .     S
O727   C1130   1.404   1_545 S
O727   C1138   1.404   1_545 S
O728   C909    1.412   .     S
O728   C917    1.399   .     S
O731   Zn740   1.976   .     S
O731   C826    1.279   1_455 S
O732   Zn740   1.973   .     S
O733   Zn739   1.973   .     S
O734   Zn739   1.967   .     S
O734   C770    1.299   .     S
O735   Zn740   1.967   .     S
O735   C816    1.293   1_455 S
O736   Zn740   1.923   .     S
O737   Zn739   1.923   .     S
C741   C768    1.425   .     S
C741   O806    1.301   .     A
C742   C744    1.466   .     S
C742   O811    1.318   .     A
C742   O883    1.293   .     S
C743   C770    1.465   .     S
C743   C749    1.392   .     A
C744   C748    1.409   .     A
C744   C750    1.384   .     A
C745   C754    1.398   .     A
C746   H793    1.084   .     S
C746   C748    1.388   .     A
C746   C755    1.398   .     A
C747   Cl772   1.758   .     S
C747   C817    1.416   .     S
C747   C819    1.392   .     S
C748   Cl845   1.752   .     S
C749   H791    1.079   .     S
C749   C751    1.391   .     A
C750   H790    1.069   .     S
C750   C753    1.404   .     A
C751   C756    1.413   .     A
C751   C754    1.405   .     A
C752   C769    1.417   .     S
C752   O807    1.296   .     A
C752   O879    1.279   .     S
C753   C757    1.432   .     A
C753   C755    1.422   .     A
C754   C100    1.380   1_556 S
C756   C765    1.426   .     A
C756   C91     1.427   1_556 S
C757   C763    1.438   .     A
C758   H796    1.108   .     S
C758   O812    1.406   .     S
C758   H795    1.102   .     S
C758   H794    1.111   .     S
C759   O800    1.411   .     S
C759   H775    1.113   .     S
C759   H776    1.113   .     S
C759   H774    1.110   .     S
C760   H778    1.109   .     S
C760   H777    1.109   .     S
C760   H779    1.108   .     S
C760   O1023   1.404   .     S
C761   H780    1.111   .     S
C761   H782    1.109   .     S
C761   H855    1.114   .     S
C761   O1246   1.412   1_545 S
C762   H783    1.098   .     S
C762   H786    1.109   .     S
C762   H785    1.114   .     S
C762   O803    1.394   .     S
C763   C766    1.393   .     A
C763   O812    1.375   .     S
C764   O804    1.396   .     S
C764   H789    1.109   .     S
C764   H787    1.114   .     S
C764   H788    1.103   .     S
C765   O800    1.384   .     S
C765   C767    1.381   .     A
C766   H773    1.084   .     S
C767   H784    1.084   .     S
C767   C89     1.384   1_556 S
C768   C917    1.344   .     S
C768   O1023   1.404   .     S
C769   C1286   1.344   1_545 S
C769   O1246   1.399   1_545 S
C770   O810    1.312   .     A
H792   C819    1.085   .     S
N797   Zn814   2.038   .     S
N797   N798    1.304   .     D
N797   O803    1.345   .     S
N798   O804    1.346   .     S
N798   Zn813   2.038   .     S
O799   Zn813   1.976   .     S
O799   C815    1.279   .     S
O801   C1204   1.404   1_545 S
O801   C1212   1.404   1_545 S
O802   C983    1.412   .     S
O802   C991    1.399   .     S
O805   Zn814   1.976   .     S
O806   Zn814   1.973   .     S
O807   Zn813   1.973   .     S
O808   Zn813   1.967   .     S
O808   C844    1.299   .     S
O809   Zn814   1.967   .     S
O810   Zn814   1.923   .     S
O811   Zn813   1.923   .     S
C815   C842    1.425   .     S
C815   O880    1.301   .     A
C816   C818    1.466   .     S
C816   O885    1.318   .     A
C816   O735    1.293   1_655 S
C817   C844    1.465   .     S
C817   C823    1.392   .     A
C818   C822    1.409   .     A
C818   C824    1.384   .     A
C819   C828    1.398   .     A
C820   H867    1.084   .     S
C820   C822    1.388   .     A
C820   C829    1.398   .     A
C821   Cl846   1.758   .     S
C821   C669    1.416   1_655 S
C821   C671    1.392   1_655 S
C822   Cl697   1.752   1_655 S
C823   H865    1.079   .     S
C823   C825    1.391   .     A
C824   H864    1.069   .     S
C824   C827    1.404   .     A
C825   C830    1.413   .     A
C825   C828    1.405   .     A
C826   C843    1.417   .     S
C826   O881    1.296   .     A
C826   O731    1.279   1_655 S
C827   C831    1.432   .     A
C827   C829    1.422   .     A
C828   C174    1.380   1_556 S
C830   C839    1.426   .     A
C830   C165    1.427   1_556 S
C831   C837    1.438   .     A
C832   H870    1.108   .     S
C832   O886    1.406   .     S
C832   H869    1.102   .     S
C832   H868    1.111   .     S
C833   O874    1.411   .     S
C833   H849    1.113   .     S
C833   H850    1.113   .     S
C833   H848    1.110   .     S
C834   H852    1.109   .     S
C834   H851    1.109   .     S
C834   H853    1.108   .     S
C834   O1097   1.404   .     S
C835   H854    1.111   .     S
C835   H856    1.109   .     S
C835   H707    1.114   1_655 S
C835   O1320   1.412   1_545 S
C836   H857    1.098   .     S
C836   H860    1.109   .     S
C836   H859    1.114   .     S
C836   O877    1.394   .     S
C837   C840    1.393   .     A
C837   O886    1.375   .     S
C838   O878    1.396   .     S
C838   H863    1.109   .     S
C838   H861    1.114   .     S
C838   H862    1.103   .     S
C839   O874    1.384   .     S
C839   C841    1.381   .     A
C840   H847    1.084   .     S
C841   H858    1.084   .     S
C841   C163    1.384   1_556 S
C842   C991    1.344   .     S
C842   O1097   1.404   .     S
C843   C1138   1.344   1_645 S
C843   O1320   1.399   1_545 S
C844   O884    1.312   .     A
H866   C671    1.085   1_655 S
N871   Zn888   2.038   .     S
N871   N872    1.304   .     D
N871   O877    1.345   .     S
N872   O878    1.346   .     S
N872   Zn887   2.038   .     S
O873   Zn887   1.976   .     S
O873   C667    1.279   1_655 S
O875   C1278   1.404   1_545 S
O875   C1286   1.404   1_545 S
O876   C1057   1.412   .     S
O876   C1065   1.399   .     S
O879   Zn888   1.976   .     S
O880   Zn888   1.973   .     S
O881   Zn887   1.973   .     S
O882   Zn887   1.967   .     S
O882   C696    1.299   1_655 S
O883   Zn888   1.967   .     S
O884   Zn888   1.923   .     S
O885   Zn887   1.923   .     S
C889   C916    1.425   .     S
C889   O954    1.301   .     A
C889   O1095   1.279   1_455 S
C890   C892    1.466   .     S
C890   O959    1.318   .     A
C890   O1031   1.293   .     S
C891   C918    1.465   .     S
C891   C897    1.392   .     A
C891   C1043   1.416   1_455 S
C892   C896    1.409   .     A
C892   C898    1.384   .     A
C893   C902    1.398   .     A
C893   C1043   1.392   1_455 S
C893   H1088   1.085   1_455 S
C894   H941    1.084   .     S
C894   C896    1.388   .     A
C894   C903    1.398   .     A
C895   Cl920   1.758   .     S
C895   C965    1.416   .     S
C895   C967    1.392   .     S
C896   Cl993   1.752   .     S
C897   H939    1.079   .     S
C897   C899    1.391   .     A
C898   H938    1.069   .     S
C898   C901    1.404   .     A
C899   C904    1.413   .     A
C899   C902    1.405   .     A
C900   C917    1.417   .     S
C900   O955    1.296   .     A
C900   O1027   1.279   .     S
C901   C905    1.432   .     A
C901   C903    1.422   .     A
C902   C248    1.380   1_556 S
C904   C913    1.426   .     A
C904   C239    1.427   1_556 S
C905   C911    1.438   .     A
C906   H944    1.108   .     S
C906   O960    1.406   .     S
C906   H943    1.102   .     S
C906   H942    1.111   .     S
C907   O948    1.411   .     S
C907   H923    1.113   .     S
C907   H924    1.113   .     S
C907   H922    1.110   .     S
C908   H926    1.109   .     S
C908   H925    1.109   .     S
C908   H927    1.108   .     S
C908   O1171   1.404   .     S
C909   H928    1.111   .     S
C909   H930    1.109   .     S
C909   H1003   1.114   .     S
C910   H931    1.098   .     S
C910   H934    1.109   .     S
C910   H933    1.114   .     S
C910   O951    1.394   .     S
C911   C914    1.393   .     A
C911   O960    1.375   .     S
C912   O952    1.396   .     S
C912   H937    1.109   .     S
C912   H935    1.114   .     S
C912   H936    1.103   .     S
C913   O948    1.384   .     S
C913   C915    1.381   .     A
C914   H921    1.084   .     S
C915   H932    1.084   .     S
C915   C237    1.384   1_556 S
C916   C1287   1.344   1_455 S
C916   O1171   1.404   .     S
C918   O958    1.312   .     A
C918   O1104   1.299   1_455 S
Cl919  C1044   1.752   1_455 S
H929   C1057   1.114   1_455 S
H940   C967    1.085   .     S
N945   Zn962   2.038   .     S
N945   N946    1.304   .     D
N945   O951    1.345   .     S
N946   O952    1.346   .     S
N946   Zn961   2.038   .     S
O947   Zn961   1.976   .     S
O947   C963    1.279   .     S
O950   C1131   1.412   .     S
O950   C1139   1.399   .     S
O953   Zn962   1.976   .     S
O953   C1048   1.279   1_455 S
O954   Zn962   1.973   .     S
O955   Zn961   1.973   .     S
O956   Zn961   1.967   .     S
O956   C992    1.299   .     S
O957   Zn962   1.967   .     S
O957   C1038   1.293   1_455 S
O958   Zn962   1.923   .     S
O959   Zn961   1.923   .     S
C963   C990    1.425   .     S
C963   O1028   1.301   .     A
C964   C966    1.466   .     S
C964   O1033   1.318   .     A
C964   O1105   1.293   .     S
C965   C992    1.465   .     S
C965   C971    1.392   .     A
C966   C970    1.409   .     A
C966   C972    1.384   .     A
C967   C976    1.398   .     A
C968   H1015   1.084   .     S
C968   C970    1.388   .     A
C968   C977    1.398   .     A
C969   Cl994   1.758   .     S
C969   C1039   1.416   .     S
C969   C1041   1.392   .     S
C970   Cl1067  1.752   .     S
C971   H1013   1.079   .     S
C971   C973    1.391   .     A
C972   H1012   1.069   .     S
C972   C975    1.404   .     A
C973   C978    1.413   .     A
C973   C976    1.405   .     A
C974   C991    1.417   .     S
C974   O1029   1.296   .     A
C974   O1101   1.279   .     S
C975   C979    1.432   .     A
C975   C977    1.422   .     A
C976   C322    1.380   1_556 S
C978   C987    1.426   .     A
C978   C313    1.427   1_556 S
C979   C985    1.438   .     A
C980   H1018   1.108   .     S
C980   O1034   1.406   .     S
C980   H1017   1.102   .     S
C980   H1016   1.111   .     S
C981   O1022   1.411   .     S
C981   H997    1.113   .     S
C981   H998    1.113   .     S
C981   H996    1.110   .     S
C982   H1000   1.109   .     S
C982   H999    1.109   .     S
C982   H1001   1.108   .     S
C982   O1245   1.404   .     S
C983   H1002   1.111   .     S
C983   H1004   1.109   .     S
C983   H1077   1.114   .     S
C984   H1005   1.098   .     S
C984   H1008   1.109   .     S
C984   H1007   1.114   .     S
C984   O1025   1.394   .     S
C985   C988    1.393   .     A
C985   O1034   1.375   .     S
C986   O1026   1.396   .     S
C986   H1011   1.109   .     S
C986   H1009   1.114   .     S
C986   H1010   1.103   .     S
C987   O1022   1.384   .     S
C987   C989    1.381   .     A
C988   H995    1.084   .     S
C989   H1006   1.084   .     S
C989   C311    1.384   1_556 S
C990   C1139   1.344   .     S
C990   O1245   1.404   .     S
C992   O1032   1.312   .     A
H1014  C1041   1.085   .     S
N1019  Zn1036  2.038   .     S
N1019  N1020   1.304   .     D
N1019  O1025   1.345   .     S
N1020  O1026   1.346   .     S
N1020  Zn1035  2.038   .     S
O1021  Zn1035  1.976   .     S
O1021  C1037   1.279   .     S
O1024  C1205   1.412   .     S
O1024  C1213   1.399   .     S
O1027  Zn1036  1.976   .     S
O1028  Zn1036  1.973   .     S
O1029  Zn1035  1.973   .     S
O1030  Zn1035  1.967   .     S
O1030  C1066   1.299   .     S
O1031  Zn1036  1.967   .     S
O1032  Zn1036  1.923   .     S
O1033  Zn1035  1.923   .     S
C1037  C1064   1.425   .     S
C1037  O1102   1.301   .     A
C1038  C1040   1.466   .     S
C1038  O1107   1.318   .     A
C1038  O957    1.293   1_655 S
C1039  C1066   1.465   .     S
C1039  C1045   1.392   .     A
C1040  C1044   1.409   .     A
C1040  C1046   1.384   .     A
C1041  C1050   1.398   .     A
C1042  H1089   1.084   .     S
C1042  C1044   1.388   .     A
C1042  C1051   1.398   .     A
C1043  Cl1068  1.758   .     S
C1043  C891    1.416   1_655 S
C1043  C893    1.392   1_655 S
C1044  Cl919   1.752   1_655 S
C1045  H1087   1.079   .     S
C1045  C1047   1.391   .     A
C1046  H1086   1.069   .     S
C1046  C1049   1.404   .     A
C1047  C1052   1.413   .     A
C1047  C1050   1.405   .     A
C1048  C1065   1.417   .     S
C1048  O1103   1.296   .     A
C1048  O953    1.279   1_655 S
C1049  C1053   1.432   .     A
C1049  C1051   1.422   .     A
C1050  C396    1.380   1_556 S
C1052  C1061   1.426   .     A
C1052  C387    1.427   1_556 S
C1053  C1059   1.438   .     A
C1054  H1092   1.108   .     S
C1054  O1108   1.406   .     S
C1054  H1091   1.102   .     S
C1054  H1090   1.111   .     S
C1055  O1096   1.411   .     S
C1055  H1071   1.113   .     S
C1055  H1072   1.113   .     S
C1055  H1070   1.110   .     S
C1056  H1074   1.109   .     S
C1056  H1073   1.109   .     S
C1056  H1075   1.108   .     S
C1056  O1319   1.404   .     S
C1057  H1076   1.111   .     S
C1057  H1078   1.109   .     S
C1057  H929    1.114   1_655 S
C1058  H1079   1.098   .     S
C1058  H1082   1.109   .     S
C1058  H1081   1.114   .     S
C1058  O1099   1.394   .     S
C1059  C1062   1.393   .     A
C1059  O1108   1.375   .     S
C1060  O1100   1.396   .     S
C1060  H1085   1.109   .     S
C1060  H1083   1.114   .     S
C1060  H1084   1.103   .     S
C1061  O1096   1.384   .     S
C1061  C1063   1.381   .     A
C1062  H1069   1.084   .     S
C1063  H1080   1.084   .     S
C1063  C385    1.384   1_556 S
C1064  C1213   1.344   .     S
C1064  O1319   1.404   .     S
C1065  C694    1.344   1_655 S
C1066  O1106   1.312   .     A
H1088  C893    1.085   1_655 S
N1093  Zn1110  2.038   .     S
N1093  N1094   1.304   .     D
N1093  O1099   1.345   .     S
N1094  O1100   1.346   .     S
N1094  Zn1109  2.038   .     S
O1095  Zn1109  1.976   .     S
O1095  C889    1.279   1_655 S
O1098  C1279   1.412   .     S
O1098  C1287   1.399   .     S
O1101  Zn1110  1.976   .     S
O1102  Zn1110  1.973   .     S
O1103  Zn1109  1.973   .     S
O1104  Zn1109  1.967   .     S
O1104  C918    1.299   1_655 S
O1105  Zn1110  1.967   .     S
O1106  Zn1110  1.923   .     S
O1107  Zn1109  1.923   .     S
C1111  C1138   1.425   .     S
C1111  O1176   1.301   .     A
C1111  O1317   1.279   1_455 S
C1112  C1114   1.466   .     S
C1112  O1181   1.318   .     A
C1112  O1253   1.293   .     S
C1113  C1140   1.465   .     S
C1113  C1119   1.392   .     A
C1113  C1265   1.416   1_455 S
C1114  C1118   1.409   .     A
C1114  C1120   1.384   .     A
C1115  C1124   1.398   .     A
C1115  C1265   1.392   1_455 S
C1115  H1310   1.085   1_455 S
C1116  H1163   1.084   .     S
C1116  C1118   1.388   .     A
C1116  C1125   1.398   .     A
C1117  Cl1142  1.758   .     S
C1117  C1187   1.416   .     S
C1117  C1189   1.392   .     S
C1118  Cl1215  1.752   .     S
C1119  H1161   1.079   .     S
C1119  C1121   1.391   .     A
C1120  H1160   1.069   .     S
C1120  C1123   1.404   .     A
C1121  C1126   1.413   .     A
C1121  C1124   1.405   .     A
C1122  C1139   1.417   .     S
C1122  O1177   1.296   .     A
C1122  O1249   1.279   .     S
C1123  C1127   1.432   .     A
C1123  C1125   1.422   .     A
C1124  C470    1.380   1_556 S
C1126  C1135   1.426   .     A
C1126  C461    1.427   1_556 S
C1127  C1133   1.438   .     A
C1128  H1166   1.108   .     S
C1128  O1182   1.406   .     S
C1128  H1165   1.102   .     S
C1128  H1164   1.111   .     S
C1129  O1170   1.411   .     S
C1129  H1145   1.113   .     S
C1129  H1146   1.113   .     S
C1129  H1144   1.110   .     S
C1130  H1148   1.109   .     S
C1130  H1147   1.109   .     S
C1130  H1149   1.108   .     S
C1130  O727    1.404   1_565 S
C1131  H1150   1.111   .     S
C1131  H1152   1.109   .     S
C1131  H1225   1.114   .     S
C1132  H1153   1.098   .     S
C1132  H1156   1.109   .     S
C1132  H1155   1.114   .     S
C1132  O1173   1.394   .     S
C1133  C1136   1.393   .     A
C1133  O1182   1.375   .     S
C1134  O1174   1.396   .     S
C1134  H1159   1.109   .     S
C1134  H1157   1.114   .     S
C1134  H1158   1.103   .     S
C1135  O1170   1.384   .     S
C1135  C1137   1.381   .     A
C1136  H1143   1.084   .     S
C1137  H1154   1.084   .     S
C1137  C459    1.384   1_556 S
C1138  C843    1.344   1_465 S
C1138  O727    1.404   1_565 S
C1140  O1180   1.312   .     A
C1140  O1326   1.299   1_455 S
Cl1141 C1266   1.752   1_455 S
H1151  C1279   1.114   1_455 S
H1162  C1189   1.085   .     S
N1167  Zn1184  2.038   .     S
N1167  N1168   1.304   .     D
N1167  O1173   1.345   .     S
N1168  O1174   1.346   .     S
N1168  Zn1183  2.038   .     S
O1169  Zn1183  1.976   .     S
O1169  C1185   1.279   .     S
O1172  C687    1.412   1_565 S
O1172  C695    1.399   1_565 S
O1175  Zn1184  1.976   .     S
O1175  C1270   1.279   1_455 S
O1176  Zn1184  1.973   .     S
O1177  Zn1183  1.973   .     S
O1178  Zn1183  1.967   .     S
O1178  C1214   1.299   .     S
O1179  Zn1184  1.967   .     S
O1179  C1260   1.293   1_455 S
O1180  Zn1184  1.923   .     S
O1181  Zn1183  1.923   .     S
C1185  C1212   1.425   .     S
C1185  O1250   1.301   .     A
C1186  C1188   1.466   .     S
C1186  O1255   1.318   .     A
C1186  O1327   1.293   .     S
C1187  C1214   1.465   .     S
C1187  C1193   1.392   .     A
C1188  C1192   1.409   .     A
C1188  C1194   1.384   .     A
C1189  C1198   1.398   .     A
C1190  H1237   1.084   .     S
C1190  C1192   1.388   .     A
C1190  C1199   1.398   .     A
C1191  Cl1216  1.758   .     S
C1191  C1261   1.416   .     S
C1191  C1263   1.392   .     S
C1192  Cl1289  1.752   .     S
C1193  H1235   1.079   .     S
C1193  C1195   1.391   .     A
C1194  H1234   1.069   .     S
C1194  C1197   1.404   .     A
C1195  C1200   1.413   .     A
C1195  C1198   1.405   .     A
C1196  C1213   1.417   .     S
C1196  O1251   1.296   .     A
C1196  O1323   1.279   .     S
C1197  C1201   1.432   .     A
C1197  C1199   1.422   .     A
C1198  C544    1.380   1_556 S
C1200  C1209   1.426   .     A
C1200  C535    1.427   1_556 S
C1201  C1207   1.438   .     A
C1202  H1240   1.108   .     S
C1202  O1256   1.406   .     S
C1202  H1239   1.102   .     S
C1202  H1238   1.111   .     S
C1203  O1244   1.411   .     S
C1203  H1219   1.113   .     S
C1203  H1220   1.113   .     S
C1203  H1218   1.110   .     S
C1204  H1222   1.109   .     S
C1204  H1221   1.109   .     S
C1204  H1223   1.108   .     S
C1204  O801    1.404   1_565 S
C1205  H1224   1.111   .     S
C1205  H1226   1.109   .     S
C1205  H1299   1.114   .     S
C1206  H1227   1.098   .     S
C1206  H1230   1.109   .     S
C1206  H1229   1.114   .     S
C1206  O1247   1.394   .     S
C1207  C1210   1.393   .     A
C1207  O1256   1.375   .     S
C1208  O1248   1.396   .     S
C1208  H1233   1.109   .     S
C1208  H1231   1.114   .     S
C1208  H1232   1.103   .     S
C1209  O1244   1.384   .     S
C1209  C1211   1.381   .     A
C1210  H1217   1.084   .     S
C1211  H1228   1.084   .     S
C1211  C533    1.384   1_556 S
C1212  C695    1.344   1_565 S
C1212  O801    1.404   1_565 S
C1214  O1254   1.312   .     A
H1236  C1263   1.085   .     S
N1241  Zn1258  2.038   .     S
N1241  N1242   1.304   .     D
N1241  O1247   1.345   .     S
N1242  O1248   1.346   .     S
N1242  Zn1257  2.038   .     S
O1243  Zn1257  1.976   .     S
O1243  C1259   1.279   .     S
O1246  C761    1.412   1_565 S
O1246  C769    1.399   1_565 S
O1249  Zn1258  1.976   .     S
O1250  Zn1258  1.973   .     S
O1251  Zn1257  1.973   .     S
O1252  Zn1257  1.967   .     S
O1252  C1288   1.299   .     S
O1253  Zn1258  1.967   .     S
O1254  Zn1258  1.923   .     S
O1255  Zn1257  1.923   .     S
C1259  C1286   1.425   .     S
C1259  O1324   1.301   .     A
C1260  C1262   1.466   .     S
C1260  O1329   1.318   .     A
C1260  O1179   1.293   1_655 S
C1261  C1288   1.465   .     S
C1261  C1267   1.392   .     A
C1262  C1266   1.409   .     A
C1262  C1268   1.384   .     A
C1263  C1272   1.398   .     A
C1264  H1311   1.084   .     S
C1264  C1266   1.388   .     A
C1264  C1273   1.398   .     A
C1265  Cl1290  1.758   .     S
C1265  C1113   1.416   1_655 S
C1265  C1115   1.392   1_655 S
C1266  Cl1141  1.752   1_655 S
C1267  H1309   1.079   .     S
C1267  C1269   1.391   .     A
C1268  H1308   1.069   .     S
C1268  C1271   1.404   .     A
C1269  C1274   1.413   .     A
C1269  C1272   1.405   .     A
C1270  C1287   1.417   .     S
C1270  O1325   1.296   .     A
C1270  O1175   1.279   1_655 S
C1271  C1275   1.432   .     A
C1271  C1273   1.422   .     A
C1272  C618    1.380   1_556 S
C1274  C1283   1.426   .     A
C1274  C609    1.427   1_556 S
C1275  C1281   1.438   .     A
C1276  H1314   1.108   .     S
C1276  O1330   1.406   .     S
C1276  H1313   1.102   .     S
C1276  H1312   1.111   .     S
C1277  O1318   1.411   .     S
C1277  H1293   1.113   .     S
C1277  H1294   1.113   .     S
C1277  H1292   1.110   .     S
C1278  H1296   1.109   .     S
C1278  H1295   1.109   .     S
C1278  H1297   1.108   .     S
C1278  O875    1.404   1_565 S
C1279  H1298   1.111   .     S
C1279  H1300   1.109   .     S
C1279  H1151   1.114   1_655 S
C1280  H1301   1.098   .     S
C1280  H1304   1.109   .     S
C1280  H1303   1.114   .     S
C1280  O1321   1.394   .     S
C1281  C1284   1.393   .     A
C1281  O1330   1.375   .     S
C1282  O1322   1.396   .     S
C1282  H1307   1.109   .     S
C1282  H1305   1.114   .     S
C1282  H1306   1.103   .     S
C1283  O1318   1.384   .     S
C1283  C1285   1.381   .     A
C1284  H1291   1.084   .     S
C1285  H1302   1.084   .     S
C1285  C607    1.384   1_556 S
C1286  C769    1.344   1_565 S
C1286  O875    1.404   1_565 S
C1287  C916    1.344   1_655 S
C1288  O1328   1.312   .     A
H1310  C1115   1.085   1_655 S
N1315  Zn1332  2.038   .     S
N1315  N1316   1.304   .     D
N1315  O1321   1.345   .     S
N1316  O1322   1.346   .     S
N1316  Zn1331  2.038   .     S
O1317  Zn1331  1.976   .     S
O1317  C1111   1.279   1_655 S
O1320  C835    1.412   1_565 S
O1320  C843    1.399   1_565 S
O1323  Zn1332  1.976   .     S
O1324  Zn1332  1.973   .     S
O1325  Zn1331  1.973   .     S
O1326  Zn1331  1.967   .     S
O1326  C1140   1.299   1_655 S
O1327  Zn1332  1.967   .     S
O1328  Zn1332  1.923   .     S
O1329  Zn1331  1.923   .     S
