data_str_m3_o1_o2_pcu_sym.11
_audit_creation_date              2020-01-03
_audit_creation_method            'Materials Studio'
_symmetry_space_group_name_H-M    'P1'
_symmetry_Int_Tables_number       1
_symmetry_cell_setting            triclinic
loop_
_symmetry_equiv_pos_as_xyz
  x,y,z
_cell_length_a                    32.4741
_cell_length_b                    29.5545
_cell_length_c                    29.5146
_cell_angle_alpha                 91.2366
_cell_angle_beta                  92.3552
_cell_angle_gamma                 92.4619
loop_
_atom_site_label
_atom_site_type_symbol
_atom_site_fract_x
_atom_site_fract_y
_atom_site_fract_z
_atom_site_U_iso_or_equiv
_atom_site_adp_type
_atom_site_occupancy
C1     C     0.08667   0.16579   0.25256   0.00000  Uiso   1.00
C2     C     0.31480   0.20774   0.25984   0.00000  Uiso   1.00
C3     C     0.30998   0.12890   0.23183   0.00000  Uiso   1.00
C4     C     0.02336   0.20443   0.26818   0.00000  Uiso   1.00
C5     C     0.19028   0.20712   0.04624   0.00000  Uiso   1.00
C6     C     0.14306   0.12621   0.45376   0.00000  Uiso   1.00
C7     C     0.14540   0.20681   0.45577   0.00000  Uiso   1.00
C8     C     0.18794   0.12652   0.04423   0.00000  Uiso   1.00
C9     C     0.19017   0.20780   0.09352   0.00000  Uiso   1.00
C10    C     0.14317   0.12553   0.40648   0.00000  Uiso   1.00
C11    C     0.14546   0.20770   0.40849   0.00000  Uiso   1.00
C12    C     0.24666   0.16754   0.24744   0.00000  Uiso   1.00
C13    C     0.18788   0.12563   0.09151   0.00000  Uiso   1.00
C14    C     0.18184   0.16653   0.11588   0.00000  Uiso   1.00
C15    C     0.15150   0.16681   0.38412   0.00000  Uiso   1.00
C16    C     0.17758   0.16673   0.02274   0.00000  Uiso   1.00
C17    C     0.15576   0.16660   0.47726   0.00000  Uiso   1.00
C18    C     0.29095   0.16894   0.24459   0.00000  Uiso   1.00
C19    C     0.04238   0.16439   0.25541   0.00000  Uiso   1.00
C20    C     0.17126   0.16652   0.16386   0.00000  Uiso   1.00
C21    C     0.16208   0.16681   0.33614   0.00000  Uiso   1.00
C22    C     0.19161   0.02652   0.28004   0.00000  Uiso   1.00
C23    C     0.14173   0.30681   0.21996   0.00000  Uiso   1.00
C24    C     0.14191   0.02146   0.21937   0.00000  Uiso   1.00
C25    C     0.19143   0.31187   0.28063   0.00000  Uiso   1.00
C26    C     0.01853   0.12559   0.24017   0.00000  Uiso   1.00
Cl27   Cl    0.21548   0.25214   0.01805   0.00000  Uiso   1.00
Cl28   Cl    0.29472   0.26222   0.26586   0.00000  Uiso   1.00
Cl29   Cl    0.28281   0.08332   0.20159   0.00000  Uiso   1.00
Cl30   Cl    0.05052   0.25001   0.29842   0.00000  Uiso   1.00
Cl31   Cl    0.11786   0.08119   0.48196   0.00000  Uiso   1.00
Cl32   Cl    0.12283   0.25107   0.48625   0.00000  Uiso   1.00
Cl33   Cl    0.21051   0.08226   0.01376   0.00000  Uiso   1.00
Cl34   Cl    0.20418   0.25949   0.12289   0.00000  Uiso   1.00
Cl35   Cl    0.12915   0.07385   0.37711   0.00000  Uiso   1.00
Cl36   Cl    0.13392   0.25884   0.38164   0.00000  Uiso   1.00
Cl37   Cl    0.19942   0.07449   0.11836   0.00000  Uiso   1.00
Cl38   Cl    0.03862   0.07111   0.23416   0.00000  Uiso   1.00
H39    H     0.24890   0.04488   0.30508   0.00000  Uiso   1.00
H40    H     0.21174   0.04558   0.34373   0.00000  Uiso   1.00
H41    H     0.08444   0.28845   0.19492   0.00000  Uiso   1.00
H42    H     0.12160   0.28775   0.15627   0.00000  Uiso   1.00
H43    H     0.11394   0.07582   0.19168   0.00000  Uiso   1.00
H44    H     0.12788   0.03650   0.15433   0.00000  Uiso   1.00
H45    H     0.21939   0.25751   0.30833   0.00000  Uiso   1.00
H46    H     0.20545   0.29683   0.34567   0.00000  Uiso   1.00
N47    N     0.16667   0.28573   0.25000   0.00000  Uiso   1.00
N48    N     0.16667   0.04760   0.25000   0.00000  Uiso   1.00
N49    N     0.21855   0.05346   0.31044   0.00000  Uiso   1.00
N50    N     0.11479   0.27987   0.18956   0.00000  Uiso   1.00
N51    N     0.11548   0.04139   0.18604   0.00000  Uiso   1.00
N52    N     0.21785   0.29195   0.31396   0.00000  Uiso   1.00
O53    O     0.10559   0.20487   0.25000   0.00000  Uiso   1.00
O54    O     0.22774   0.12846   0.25001   0.00000  Uiso   1.00
O55    O     0.22774   0.20487   0.25001   0.00000  Uiso   1.00
O56    O     0.10559   0.12846   0.25000   0.00000  Uiso   1.00
O57    O     0.16666   0.20489   0.18453   0.00000  Uiso   1.00
O58    O     0.16667   0.12845   0.31547   0.00000  Uiso   1.00
O59    O     0.16667   0.20489   0.31547   0.00000  Uiso   1.00
O60    O     0.16666   0.12845   0.18453   0.00000  Uiso   1.00
Zn61   Zn    0.16667   0.21771   0.25000   0.00000  Uiso   1.00
Zn62   Zn    0.16667   0.11563   0.25000   0.00000  Uiso   1.00
C63    C     0.42001   0.16579   0.25256   0.00000  Uiso   1.00
C64    C     0.64814   0.20774   0.25984   0.00000  Uiso   1.00
C65    C     0.64331   0.12890   0.23183   0.00000  Uiso   1.00
C66    C     0.35669   0.20443   0.26818   0.00000  Uiso   1.00
C67    C     0.52361   0.20712   0.04624   0.00000  Uiso   1.00
C68    C     0.47639   0.12621   0.45376   0.00000  Uiso   1.00
C69    C     0.47873   0.20681   0.45577   0.00000  Uiso   1.00
C70    C     0.52128   0.12652   0.04423   0.00000  Uiso   1.00
C71    C     0.52350   0.20780   0.09352   0.00000  Uiso   1.00
C72    C     0.47650   0.12553   0.40648   0.00000  Uiso   1.00
C73    C     0.47879   0.20770   0.40849   0.00000  Uiso   1.00
C74    C     0.57999   0.16754   0.24744   0.00000  Uiso   1.00
C75    C     0.52122   0.12563   0.09151   0.00000  Uiso   1.00
C76    C     0.51517   0.16653   0.11588   0.00000  Uiso   1.00
C77    C     0.48483   0.16681   0.38412   0.00000  Uiso   1.00
C78    C     0.51092   0.16673   0.02274   0.00000  Uiso   1.00
C79    C     0.48909   0.16660   0.47726   0.00000  Uiso   1.00
C80    C     0.62429   0.16894   0.24459   0.00000  Uiso   1.00
C81    C     0.37571   0.16439   0.25541   0.00000  Uiso   1.00
C82    C     0.50459   0.16652   0.16386   0.00000  Uiso   1.00
C83    C     0.49541   0.16681   0.33614   0.00000  Uiso   1.00
C84    C     0.52494   0.02652   0.28004   0.00000  Uiso   1.00
C85    C     0.47506   0.30681   0.21996   0.00000  Uiso   1.00
C86    C     0.47524   0.02146   0.21937   0.00000  Uiso   1.00
C87    C     0.52476   0.31187   0.28063   0.00000  Uiso   1.00
C88    C     0.35186   0.12559   0.24017   0.00000  Uiso   1.00
Cl89   Cl    0.54881   0.25214   0.01805   0.00000  Uiso   1.00
Cl90   Cl    0.62805   0.26222   0.26586   0.00000  Uiso   1.00
Cl91   Cl    0.61614   0.08332   0.20159   0.00000  Uiso   1.00
Cl92   Cl    0.38386   0.25001   0.29842   0.00000  Uiso   1.00
Cl93   Cl    0.45120   0.08119   0.48196   0.00000  Uiso   1.00
Cl94   Cl    0.45617   0.25107   0.48625   0.00000  Uiso   1.00
Cl95   Cl    0.54384   0.08226   0.01376   0.00000  Uiso   1.00
Cl96   Cl    0.53751   0.25949   0.12289   0.00000  Uiso   1.00
Cl97   Cl    0.46249   0.07385   0.37711   0.00000  Uiso   1.00
Cl98   Cl    0.46725   0.25884   0.38164   0.00000  Uiso   1.00
Cl99   Cl    0.53275   0.07449   0.11836   0.00000  Uiso   1.00
Cl100  Cl    0.37195   0.07111   0.23416   0.00000  Uiso   1.00
H101   H     0.58223   0.04488   0.30508   0.00000  Uiso   1.00
H102   H     0.54507   0.04558   0.34373   0.00000  Uiso   1.00
H103   H     0.41777   0.28845   0.19492   0.00000  Uiso   1.00
H104   H     0.45494   0.28775   0.15627   0.00000  Uiso   1.00
H105   H     0.44728   0.07582   0.19168   0.00000  Uiso   1.00
H106   H     0.46122   0.03650   0.15433   0.00000  Uiso   1.00
H107   H     0.55272   0.25751   0.30833   0.00000  Uiso   1.00
H108   H     0.53879   0.29683   0.34567   0.00000  Uiso   1.00
N109   N     0.50000   0.28573   0.25000   0.00000  Uiso   1.00
N110   N     0.50000   0.04760   0.25000   0.00000  Uiso   1.00
N111   N     0.55188   0.05346   0.31044   0.00000  Uiso   1.00
N112   N     0.44812   0.27987   0.18956   0.00000  Uiso   1.00
N113   N     0.44881   0.04139   0.18604   0.00000  Uiso   1.00
N114   N     0.55119   0.29195   0.31396   0.00000  Uiso   1.00
O115   O     0.43892   0.20487   0.25000   0.00000  Uiso   1.00
O116   O     0.56108   0.12846   0.25001   0.00000  Uiso   1.00
O117   O     0.56108   0.20487   0.25001   0.00000  Uiso   1.00
O118   O     0.43892   0.12846   0.25000   0.00000  Uiso   1.00
O119   O     0.50000   0.20489   0.18453   0.00000  Uiso   1.00
O120   O     0.50000   0.12845   0.31547   0.00000  Uiso   1.00
O121   O     0.50000   0.20489   0.31547   0.00000  Uiso   1.00
O122   O     0.50000   0.12845   0.18453   0.00000  Uiso   1.00
Zn123  Zn    0.50000   0.21771   0.25000   0.00000  Uiso   1.00
Zn124  Zn    0.50000   0.11563   0.25000   0.00000  Uiso   1.00
C125   C     0.75334   0.16579   0.25256   0.00000  Uiso   1.00
C126   C     0.98147   0.20774   0.25984   0.00000  Uiso   1.00
C127   C     0.97665   0.12890   0.23183   0.00000  Uiso   1.00
C128   C     0.69002   0.20443   0.26818   0.00000  Uiso   1.00
C129   C     0.85695   0.20712   0.04624   0.00000  Uiso   1.00
C130   C     0.80973   0.12621   0.45376   0.00000  Uiso   1.00
C131   C     0.81206   0.20681   0.45577   0.00000  Uiso   1.00
C132   C     0.85461   0.12652   0.04423   0.00000  Uiso   1.00
C133   C     0.85683   0.20780   0.09352   0.00000  Uiso   1.00
C134   C     0.80983   0.12553   0.40648   0.00000  Uiso   1.00
C135   C     0.81212   0.20770   0.40849   0.00000  Uiso   1.00
C136   C     0.91333   0.16754   0.24744   0.00000  Uiso   1.00
C137   C     0.85455   0.12563   0.09151   0.00000  Uiso   1.00
C138   C     0.84850   0.16653   0.11588   0.00000  Uiso   1.00
C139   C     0.81817   0.16681   0.38412   0.00000  Uiso   1.00
C140   C     0.84425   0.16673   0.02274   0.00000  Uiso   1.00
C141   C     0.82242   0.16660   0.47726   0.00000  Uiso   1.00
C142   C     0.95762   0.16894   0.24459   0.00000  Uiso   1.00
C143   C     0.70905   0.16439   0.25541   0.00000  Uiso   1.00
C144   C     0.83792   0.16652   0.16386   0.00000  Uiso   1.00
C145   C     0.82874   0.16681   0.33614   0.00000  Uiso   1.00
C146   C     0.85827   0.02652   0.28004   0.00000  Uiso   1.00
C147   C     0.80839   0.30681   0.21996   0.00000  Uiso   1.00
C148   C     0.80857   0.02146   0.21937   0.00000  Uiso   1.00
C149   C     0.85809   0.31187   0.28063   0.00000  Uiso   1.00
C150   C     0.68520   0.12559   0.24017   0.00000  Uiso   1.00
Cl151  Cl    0.88214   0.25214   0.01805   0.00000  Uiso   1.00
Cl152  Cl    0.96138   0.26222   0.26586   0.00000  Uiso   1.00
Cl153  Cl    0.94948   0.08332   0.20159   0.00000  Uiso   1.00
Cl154  Cl    0.71719   0.25001   0.29842   0.00000  Uiso   1.00
Cl155  Cl    0.78453   0.08119   0.48196   0.00000  Uiso   1.00
Cl156  Cl    0.78950   0.25107   0.48625   0.00000  Uiso   1.00
Cl157  Cl    0.87717   0.08226   0.01376   0.00000  Uiso   1.00
Cl158  Cl    0.87085   0.25949   0.12289   0.00000  Uiso   1.00
Cl159  Cl    0.79582   0.07385   0.37711   0.00000  Uiso   1.00
Cl160  Cl    0.80059   0.25884   0.38164   0.00000  Uiso   1.00
Cl161  Cl    0.86609   0.07449   0.11836   0.00000  Uiso   1.00
Cl162  Cl    0.70528   0.07111   0.23416   0.00000  Uiso   1.00
H163   H     0.91557   0.04488   0.30508   0.00000  Uiso   1.00
H164   H     0.87840   0.04558   0.34373   0.00000  Uiso   1.00
H165   H     0.75110   0.28845   0.19492   0.00000  Uiso   1.00
H166   H     0.78827   0.28775   0.15627   0.00000  Uiso   1.00
H167   H     0.78061   0.07582   0.19168   0.00000  Uiso   1.00
H168   H     0.79455   0.03650   0.15433   0.00000  Uiso   1.00
H169   H     0.88605   0.25751   0.30833   0.00000  Uiso   1.00
H170   H     0.87212   0.29683   0.34567   0.00000  Uiso   1.00
N171   N     0.83333   0.28573   0.25000   0.00000  Uiso   1.00
N172   N     0.83333   0.04760   0.25000   0.00000  Uiso   1.00
N173   N     0.88522   0.05346   0.31044   0.00000  Uiso   1.00
N174   N     0.78145   0.27987   0.18956   0.00000  Uiso   1.00
N175   N     0.78215   0.04139   0.18604   0.00000  Uiso   1.00
N176   N     0.88452   0.29195   0.31396   0.00000  Uiso   1.00
O177   O     0.77226   0.20487   0.25000   0.00000  Uiso   1.00
O178   O     0.89441   0.12846   0.25001   0.00000  Uiso   1.00
O179   O     0.89441   0.20487   0.25001   0.00000  Uiso   1.00
O180   O     0.77226   0.12846   0.25000   0.00000  Uiso   1.00
O181   O     0.83333   0.20489   0.18453   0.00000  Uiso   1.00
O182   O     0.83334   0.12845   0.31547   0.00000  Uiso   1.00
O183   O     0.83334   0.20489   0.31547   0.00000  Uiso   1.00
O184   O     0.83333   0.12845   0.18453   0.00000  Uiso   1.00
Zn185  Zn    0.83333   0.21771   0.25000   0.00000  Uiso   1.00
Zn186  Zn    0.83333   0.11563   0.25000   0.00000  Uiso   1.00
C187   C     0.08667   0.49913   0.25256   0.00000  Uiso   1.00
C188   C     0.31480   0.54107   0.25984   0.00000  Uiso   1.00
C189   C     0.30998   0.46224   0.23183   0.00000  Uiso   1.00
C190   C     0.02336   0.53776   0.26818   0.00000  Uiso   1.00
C191   C     0.19028   0.54046   0.04624   0.00000  Uiso   1.00
C192   C     0.14306   0.45954   0.45376   0.00000  Uiso   1.00
C193   C     0.14540   0.54014   0.45577   0.00000  Uiso   1.00
C194   C     0.18794   0.45986   0.04423   0.00000  Uiso   1.00
C195   C     0.19017   0.54114   0.09352   0.00000  Uiso   1.00
C196   C     0.14317   0.45887   0.40648   0.00000  Uiso   1.00
C197   C     0.14546   0.54103   0.40849   0.00000  Uiso   1.00
C198   C     0.24666   0.50087   0.24744   0.00000  Uiso   1.00
C199   C     0.18788   0.45897   0.09151   0.00000  Uiso   1.00
C200   C     0.18184   0.49986   0.11588   0.00000  Uiso   1.00
C201   C     0.15150   0.50014   0.38412   0.00000  Uiso   1.00
C202   C     0.17758   0.50007   0.02274   0.00000  Uiso   1.00
C203   C     0.15576   0.49993   0.47726   0.00000  Uiso   1.00
C204   C     0.29095   0.50228   0.24459   0.00000  Uiso   1.00
C205   C     0.04238   0.49772   0.25541   0.00000  Uiso   1.00
C206   C     0.17126   0.49985   0.16386   0.00000  Uiso   1.00
C207   C     0.16208   0.50015   0.33614   0.00000  Uiso   1.00
C208   C     0.19161   0.35986   0.28004   0.00000  Uiso   1.00
C209   C     0.14173   0.64015   0.21996   0.00000  Uiso   1.00
C210   C     0.14191   0.35479   0.21937   0.00000  Uiso   1.00
C211   C     0.19143   0.64521   0.28063   0.00000  Uiso   1.00
C212   C     0.01853   0.45892   0.24017   0.00000  Uiso   1.00
Cl213  Cl    0.21548   0.58547   0.01805   0.00000  Uiso   1.00
Cl214  Cl    0.29472   0.59556   0.26586   0.00000  Uiso   1.00
Cl215  Cl    0.28281   0.41665   0.20159   0.00000  Uiso   1.00
Cl216  Cl    0.05052   0.58335   0.29842   0.00000  Uiso   1.00
Cl217  Cl    0.11786   0.41452   0.48196   0.00000  Uiso   1.00
Cl218  Cl    0.12283   0.58440   0.48625   0.00000  Uiso   1.00
Cl219  Cl    0.21051   0.41560   0.01376   0.00000  Uiso   1.00
Cl220  Cl    0.20418   0.59282   0.12289   0.00000  Uiso   1.00
Cl221  Cl    0.12915   0.40718   0.37711   0.00000  Uiso   1.00
Cl222  Cl    0.13392   0.59218   0.38164   0.00000  Uiso   1.00
Cl223  Cl    0.19942   0.40782   0.11836   0.00000  Uiso   1.00
Cl224  Cl    0.03862   0.40444   0.23416   0.00000  Uiso   1.00
H225   H     0.24890   0.37822   0.30508   0.00000  Uiso   1.00
H226   H     0.21174   0.37892   0.34373   0.00000  Uiso   1.00
H227   H     0.08444   0.62178   0.19492   0.00000  Uiso   1.00
H228   H     0.12160   0.62108   0.15627   0.00000  Uiso   1.00
H229   H     0.11394   0.40915   0.19168   0.00000  Uiso   1.00
H230   H     0.12788   0.36984   0.15433   0.00000  Uiso   1.00
H231   H     0.21939   0.59085   0.30833   0.00000  Uiso   1.00
H232   H     0.20545   0.63017   0.34567   0.00000  Uiso   1.00
N233   N     0.16667   0.61907   0.25000   0.00000  Uiso   1.00
N234   N     0.16667   0.38093   0.25000   0.00000  Uiso   1.00
N235   N     0.21855   0.38679   0.31044   0.00000  Uiso   1.00
N236   N     0.11479   0.61321   0.18956   0.00000  Uiso   1.00
N237   N     0.11548   0.37472   0.18604   0.00000  Uiso   1.00
N238   N     0.21785   0.62528   0.31396   0.00000  Uiso   1.00
O239   O     0.10559   0.53821   0.25000   0.00000  Uiso   1.00
O240   O     0.22774   0.46179   0.25001   0.00000  Uiso   1.00
O241   O     0.22774   0.53821   0.25001   0.00000  Uiso   1.00
O242   O     0.10559   0.46179   0.25000   0.00000  Uiso   1.00
O243   O     0.16666   0.53822   0.18453   0.00000  Uiso   1.00
O244   O     0.16667   0.46178   0.31547   0.00000  Uiso   1.00
O245   O     0.16667   0.53822   0.31547   0.00000  Uiso   1.00
O246   O     0.16666   0.46178   0.18453   0.00000  Uiso   1.00
Zn247  Zn    0.16667   0.55104   0.25000   0.00000  Uiso   1.00
Zn248  Zn    0.16667   0.44896   0.25000   0.00000  Uiso   1.00
C249   C     0.42001   0.49913   0.25256   0.00000  Uiso   1.00
C250   C     0.64814   0.54107   0.25984   0.00000  Uiso   1.00
C251   C     0.64331   0.46224   0.23183   0.00000  Uiso   1.00
C252   C     0.35669   0.53776   0.26818   0.00000  Uiso   1.00
C253   C     0.52361   0.54046   0.04624   0.00000  Uiso   1.00
C254   C     0.47639   0.45954   0.45376   0.00000  Uiso   1.00
C255   C     0.47873   0.54014   0.45577   0.00000  Uiso   1.00
C256   C     0.52128   0.45986   0.04423   0.00000  Uiso   1.00
C257   C     0.52350   0.54114   0.09352   0.00000  Uiso   1.00
C258   C     0.47650   0.45887   0.40648   0.00000  Uiso   1.00
C259   C     0.47879   0.54103   0.40849   0.00000  Uiso   1.00
C260   C     0.57999   0.50087   0.24744   0.00000  Uiso   1.00
C261   C     0.52122   0.45897   0.09151   0.00000  Uiso   1.00
C262   C     0.51517   0.49986   0.11588   0.00000  Uiso   1.00
C263   C     0.48483   0.50014   0.38412   0.00000  Uiso   1.00
C264   C     0.51092   0.50007   0.02274   0.00000  Uiso   1.00
C265   C     0.48909   0.49993   0.47726   0.00000  Uiso   1.00
C266   C     0.62429   0.50228   0.24459   0.00000  Uiso   1.00
C267   C     0.37571   0.49772   0.25541   0.00000  Uiso   1.00
C268   C     0.50459   0.49985   0.16386   0.00000  Uiso   1.00
C269   C     0.49541   0.50015   0.33614   0.00000  Uiso   1.00
C270   C     0.52494   0.35986   0.28004   0.00000  Uiso   1.00
C271   C     0.47506   0.64015   0.21996   0.00000  Uiso   1.00
C272   C     0.47524   0.35479   0.21937   0.00000  Uiso   1.00
C273   C     0.52476   0.64521   0.28063   0.00000  Uiso   1.00
C274   C     0.35186   0.45892   0.24017   0.00000  Uiso   1.00
Cl275  Cl    0.54881   0.58547   0.01805   0.00000  Uiso   1.00
Cl276  Cl    0.62805   0.59556   0.26586   0.00000  Uiso   1.00
Cl277  Cl    0.61614   0.41665   0.20159   0.00000  Uiso   1.00
Cl278  Cl    0.38386   0.58335   0.29842   0.00000  Uiso   1.00
Cl279  Cl    0.45120   0.41452   0.48196   0.00000  Uiso   1.00
Cl280  Cl    0.45617   0.58440   0.48625   0.00000  Uiso   1.00
Cl281  Cl    0.54384   0.41560   0.01376   0.00000  Uiso   1.00
Cl282  Cl    0.53751   0.59282   0.12289   0.00000  Uiso   1.00
Cl283  Cl    0.46249   0.40718   0.37711   0.00000  Uiso   1.00
Cl284  Cl    0.46725   0.59218   0.38164   0.00000  Uiso   1.00
Cl285  Cl    0.53275   0.40782   0.11836   0.00000  Uiso   1.00
Cl286  Cl    0.37195   0.40444   0.23416   0.00000  Uiso   1.00
H287   H     0.58223   0.37822   0.30508   0.00000  Uiso   1.00
H288   H     0.54507   0.37892   0.34373   0.00000  Uiso   1.00
H289   H     0.41777   0.62178   0.19492   0.00000  Uiso   1.00
H290   H     0.45494   0.62108   0.15627   0.00000  Uiso   1.00
H291   H     0.44728   0.40915   0.19168   0.00000  Uiso   1.00
H292   H     0.46122   0.36984   0.15433   0.00000  Uiso   1.00
H293   H     0.55272   0.59085   0.30833   0.00000  Uiso   1.00
H294   H     0.53879   0.63017   0.34567   0.00000  Uiso   1.00
N295   N     0.50000   0.61907   0.25000   0.00000  Uiso   1.00
N296   N     0.50000   0.38093   0.25000   0.00000  Uiso   1.00
N297   N     0.55188   0.38679   0.31044   0.00000  Uiso   1.00
N298   N     0.44812   0.61321   0.18956   0.00000  Uiso   1.00
N299   N     0.44881   0.37472   0.18604   0.00000  Uiso   1.00
N300   N     0.55119   0.62528   0.31396   0.00000  Uiso   1.00
O301   O     0.43892   0.53821   0.25000   0.00000  Uiso   1.00
O302   O     0.56108   0.46179   0.25001   0.00000  Uiso   1.00
O303   O     0.56108   0.53821   0.25001   0.00000  Uiso   1.00
O304   O     0.43892   0.46179   0.25000   0.00000  Uiso   1.00
O305   O     0.50000   0.53822   0.18453   0.00000  Uiso   1.00
O306   O     0.50000   0.46178   0.31547   0.00000  Uiso   1.00
O307   O     0.50000   0.53822   0.31547   0.00000  Uiso   1.00
O308   O     0.50000   0.46178   0.18453   0.00000  Uiso   1.00
Zn309  Zn    0.50000   0.55104   0.25000   0.00000  Uiso   1.00
Zn310  Zn    0.50000   0.44896   0.25000   0.00000  Uiso   1.00
C311   C     0.75334   0.49913   0.25256   0.00000  Uiso   1.00
C312   C     0.98147   0.54107   0.25984   0.00000  Uiso   1.00
C313   C     0.97665   0.46224   0.23183   0.00000  Uiso   1.00
C314   C     0.69002   0.53776   0.26818   0.00000  Uiso   1.00
C315   C     0.85695   0.54046   0.04624   0.00000  Uiso   1.00
C316   C     0.80973   0.45954   0.45376   0.00000  Uiso   1.00
C317   C     0.81206   0.54014   0.45577   0.00000  Uiso   1.00
C318   C     0.85461   0.45986   0.04423   0.00000  Uiso   1.00
C319   C     0.85683   0.54114   0.09352   0.00000  Uiso   1.00
C320   C     0.80983   0.45887   0.40648   0.00000  Uiso   1.00
C321   C     0.81212   0.54103   0.40849   0.00000  Uiso   1.00
C322   C     0.91333   0.50087   0.24744   0.00000  Uiso   1.00
C323   C     0.85455   0.45897   0.09151   0.00000  Uiso   1.00
C324   C     0.84850   0.49986   0.11588   0.00000  Uiso   1.00
C325   C     0.81817   0.50014   0.38412   0.00000  Uiso   1.00
C326   C     0.84425   0.50007   0.02274   0.00000  Uiso   1.00
C327   C     0.82242   0.49993   0.47726   0.00000  Uiso   1.00
C328   C     0.95762   0.50228   0.24459   0.00000  Uiso   1.00
C329   C     0.70905   0.49772   0.25541   0.00000  Uiso   1.00
C330   C     0.83792   0.49985   0.16386   0.00000  Uiso   1.00
C331   C     0.82874   0.50015   0.33614   0.00000  Uiso   1.00
C332   C     0.85827   0.35986   0.28004   0.00000  Uiso   1.00
C333   C     0.80839   0.64015   0.21996   0.00000  Uiso   1.00
C334   C     0.80857   0.35479   0.21937   0.00000  Uiso   1.00
C335   C     0.85809   0.64521   0.28063   0.00000  Uiso   1.00
C336   C     0.68520   0.45892   0.24017   0.00000  Uiso   1.00
Cl337  Cl    0.88214   0.58547   0.01805   0.00000  Uiso   1.00
Cl338  Cl    0.96138   0.59556   0.26586   0.00000  Uiso   1.00
Cl339  Cl    0.94948   0.41665   0.20159   0.00000  Uiso   1.00
Cl340  Cl    0.71719   0.58335   0.29842   0.00000  Uiso   1.00
Cl341  Cl    0.78453   0.41452   0.48196   0.00000  Uiso   1.00
Cl342  Cl    0.78950   0.58440   0.48625   0.00000  Uiso   1.00
Cl343  Cl    0.87717   0.41560   0.01376   0.00000  Uiso   1.00
Cl344  Cl    0.87085   0.59282   0.12289   0.00000  Uiso   1.00
Cl345  Cl    0.79582   0.40718   0.37711   0.00000  Uiso   1.00
Cl346  Cl    0.80059   0.59218   0.38164   0.00000  Uiso   1.00
Cl347  Cl    0.86609   0.40782   0.11836   0.00000  Uiso   1.00
Cl348  Cl    0.70528   0.40444   0.23416   0.00000  Uiso   1.00
H349   H     0.91557   0.37822   0.30508   0.00000  Uiso   1.00
H350   H     0.87840   0.37892   0.34373   0.00000  Uiso   1.00
H351   H     0.75110   0.62178   0.19492   0.00000  Uiso   1.00
H352   H     0.78827   0.62108   0.15627   0.00000  Uiso   1.00
H353   H     0.78061   0.40915   0.19168   0.00000  Uiso   1.00
H354   H     0.79455   0.36984   0.15433   0.00000  Uiso   1.00
H355   H     0.88605   0.59085   0.30833   0.00000  Uiso   1.00
H356   H     0.87212   0.63017   0.34567   0.00000  Uiso   1.00
N357   N     0.83333   0.61907   0.25000   0.00000  Uiso   1.00
N358   N     0.83333   0.38093   0.25000   0.00000  Uiso   1.00
N359   N     0.88522   0.38679   0.31044   0.00000  Uiso   1.00
N360   N     0.78145   0.61321   0.18956   0.00000  Uiso   1.00
N361   N     0.78215   0.37472   0.18604   0.00000  Uiso   1.00
N362   N     0.88452   0.62528   0.31396   0.00000  Uiso   1.00
O363   O     0.77226   0.53821   0.25000   0.00000  Uiso   1.00
O364   O     0.89441   0.46179   0.25001   0.00000  Uiso   1.00
O365   O     0.89441   0.53821   0.25001   0.00000  Uiso   1.00
O366   O     0.77226   0.46179   0.25000   0.00000  Uiso   1.00
O367   O     0.83333   0.53822   0.18453   0.00000  Uiso   1.00
O368   O     0.83334   0.46178   0.31547   0.00000  Uiso   1.00
O369   O     0.83334   0.53822   0.31547   0.00000  Uiso   1.00
O370   O     0.83333   0.46178   0.18453   0.00000  Uiso   1.00
Zn371  Zn    0.83333   0.55104   0.25000   0.00000  Uiso   1.00
Zn372  Zn    0.83333   0.44896   0.25000   0.00000  Uiso   1.00
C373   C     0.08667   0.83246   0.25256   0.00000  Uiso   1.00
C374   C     0.31480   0.87441   0.25984   0.00000  Uiso   1.00
C375   C     0.30998   0.79557   0.23183   0.00000  Uiso   1.00
C376   C     0.02336   0.87109   0.26818   0.00000  Uiso   1.00
C377   C     0.19028   0.87379   0.04624   0.00000  Uiso   1.00
C378   C     0.14306   0.79288   0.45376   0.00000  Uiso   1.00
C379   C     0.14540   0.87348   0.45577   0.00000  Uiso   1.00
C380   C     0.18794   0.79319   0.04423   0.00000  Uiso   1.00
C381   C     0.19017   0.87447   0.09352   0.00000  Uiso   1.00
C382   C     0.14317   0.79220   0.40648   0.00000  Uiso   1.00
C383   C     0.14546   0.87437   0.40849   0.00000  Uiso   1.00
C384   C     0.24666   0.83421   0.24744   0.00000  Uiso   1.00
C385   C     0.18788   0.79230   0.09151   0.00000  Uiso   1.00
C386   C     0.18184   0.83319   0.11588   0.00000  Uiso   1.00
C387   C     0.15150   0.83347   0.38412   0.00000  Uiso   1.00
C388   C     0.17758   0.83340   0.02274   0.00000  Uiso   1.00
C389   C     0.15576   0.83327   0.47726   0.00000  Uiso   1.00
C390   C     0.29095   0.83561   0.24459   0.00000  Uiso   1.00
C391   C     0.04238   0.83106   0.25541   0.00000  Uiso   1.00
C392   C     0.17126   0.83319   0.16386   0.00000  Uiso   1.00
C393   C     0.16208   0.83348   0.33614   0.00000  Uiso   1.00
C394   C     0.19161   0.69319   0.28004   0.00000  Uiso   1.00
C395   C     0.14173   0.97348   0.21996   0.00000  Uiso   1.00
C396   C     0.14191   0.68813   0.21937   0.00000  Uiso   1.00
C397   C     0.19143   0.97854   0.28063   0.00000  Uiso   1.00
C398   C     0.01853   0.79226   0.24017   0.00000  Uiso   1.00
Cl399  Cl    0.21548   0.91881   0.01805   0.00000  Uiso   1.00
Cl400  Cl    0.29472   0.92889   0.26586   0.00000  Uiso   1.00
Cl401  Cl    0.28281   0.74998   0.20159   0.00000  Uiso   1.00
Cl402  Cl    0.05052   0.91668   0.29842   0.00000  Uiso   1.00
Cl403  Cl    0.11786   0.74786   0.48196   0.00000  Uiso   1.00
Cl404  Cl    0.12283   0.91774   0.48625   0.00000  Uiso   1.00
Cl405  Cl    0.21051   0.74893   0.01376   0.00000  Uiso   1.00
Cl406  Cl    0.20418   0.92616   0.12289   0.00000  Uiso   1.00
Cl407  Cl    0.12915   0.74051   0.37711   0.00000  Uiso   1.00
Cl408  Cl    0.13392   0.92551   0.38164   0.00000  Uiso   1.00
Cl409  Cl    0.19942   0.74116   0.11836   0.00000  Uiso   1.00
Cl410  Cl    0.03862   0.73777   0.23416   0.00000  Uiso   1.00
H411   H     0.24890   0.71155   0.30508   0.00000  Uiso   1.00
H412   H     0.21174   0.71225   0.34373   0.00000  Uiso   1.00
H413   H     0.08444   0.95512   0.19492   0.00000  Uiso   1.00
H414   H     0.12160   0.95442   0.15627   0.00000  Uiso   1.00
H415   H     0.11394   0.74249   0.19168   0.00000  Uiso   1.00
H416   H     0.12788   0.70317   0.15433   0.00000  Uiso   1.00
H417   H     0.21939   0.92418   0.30833   0.00000  Uiso   1.00
H418   H     0.20545   0.96350   0.34567   0.00000  Uiso   1.00
N419   N     0.16667   0.95240   0.25000   0.00000  Uiso   1.00
N420   N     0.16667   0.71427   0.25000   0.00000  Uiso   1.00
N421   N     0.21855   0.72013   0.31044   0.00000  Uiso   1.00
N422   N     0.11479   0.94654   0.18956   0.00000  Uiso   1.00
N423   N     0.11548   0.70805   0.18604   0.00000  Uiso   1.00
N424   N     0.21785   0.95861   0.31396   0.00000  Uiso   1.00
O425   O     0.10559   0.87154   0.25000   0.00000  Uiso   1.00
O426   O     0.22774   0.79513   0.25001   0.00000  Uiso   1.00
O427   O     0.22774   0.87154   0.25001   0.00000  Uiso   1.00
O428   O     0.10559   0.79513   0.25000   0.00000  Uiso   1.00
O429   O     0.16666   0.87155   0.18453   0.00000  Uiso   1.00
O430   O     0.16667   0.79511   0.31547   0.00000  Uiso   1.00
O431   O     0.16667   0.87155   0.31547   0.00000  Uiso   1.00
O432   O     0.16666   0.79511   0.18453   0.00000  Uiso   1.00
Zn433  Zn    0.16667   0.88437   0.25000   0.00000  Uiso   1.00
Zn434  Zn    0.16667   0.78229   0.25000   0.00000  Uiso   1.00
C435   C     0.42001   0.83246   0.25256   0.00000  Uiso   1.00
C436   C     0.64814   0.87441   0.25984   0.00000  Uiso   1.00
C437   C     0.64331   0.79557   0.23183   0.00000  Uiso   1.00
C438   C     0.35669   0.87109   0.26818   0.00000  Uiso   1.00
C439   C     0.52361   0.87379   0.04624   0.00000  Uiso   1.00
C440   C     0.47639   0.79288   0.45376   0.00000  Uiso   1.00
C441   C     0.47873   0.87348   0.45577   0.00000  Uiso   1.00
C442   C     0.52128   0.79319   0.04423   0.00000  Uiso   1.00
C443   C     0.52350   0.87447   0.09352   0.00000  Uiso   1.00
C444   C     0.47650   0.79220   0.40648   0.00000  Uiso   1.00
C445   C     0.47879   0.87437   0.40849   0.00000  Uiso   1.00
C446   C     0.57999   0.83421   0.24744   0.00000  Uiso   1.00
C447   C     0.52122   0.79230   0.09151   0.00000  Uiso   1.00
C448   C     0.51517   0.83319   0.11588   0.00000  Uiso   1.00
C449   C     0.48483   0.83347   0.38412   0.00000  Uiso   1.00
C450   C     0.51092   0.83340   0.02274   0.00000  Uiso   1.00
C451   C     0.48909   0.83327   0.47726   0.00000  Uiso   1.00
C452   C     0.62429   0.83561   0.24459   0.00000  Uiso   1.00
C453   C     0.37571   0.83106   0.25541   0.00000  Uiso   1.00
C454   C     0.50459   0.83319   0.16386   0.00000  Uiso   1.00
C455   C     0.49541   0.83348   0.33614   0.00000  Uiso   1.00
C456   C     0.52494   0.69319   0.28004   0.00000  Uiso   1.00
C457   C     0.47506   0.97348   0.21996   0.00000  Uiso   1.00
C458   C     0.47524   0.68813   0.21937   0.00000  Uiso   1.00
C459   C     0.52476   0.97854   0.28063   0.00000  Uiso   1.00
C460   C     0.35186   0.79226   0.24017   0.00000  Uiso   1.00
Cl461  Cl    0.54881   0.91881   0.01805   0.00000  Uiso   1.00
Cl462  Cl    0.62805   0.92889   0.26586   0.00000  Uiso   1.00
Cl463  Cl    0.61614   0.74998   0.20159   0.00000  Uiso   1.00
Cl464  Cl    0.38386   0.91668   0.29842   0.00000  Uiso   1.00
Cl465  Cl    0.45120   0.74786   0.48196   0.00000  Uiso   1.00
Cl466  Cl    0.45617   0.91774   0.48625   0.00000  Uiso   1.00
Cl467  Cl    0.54384   0.74893   0.01376   0.00000  Uiso   1.00
Cl468  Cl    0.53751   0.92616   0.12289   0.00000  Uiso   1.00
Cl469  Cl    0.46249   0.74051   0.37711   0.00000  Uiso   1.00
Cl470  Cl    0.46725   0.92551   0.38164   0.00000  Uiso   1.00
Cl471  Cl    0.53275   0.74116   0.11836   0.00000  Uiso   1.00
Cl472  Cl    0.37195   0.73777   0.23416   0.00000  Uiso   1.00
H473   H     0.58223   0.71155   0.30508   0.00000  Uiso   1.00
H474   H     0.54507   0.71225   0.34373   0.00000  Uiso   1.00
H475   H     0.41777   0.95512   0.19492   0.00000  Uiso   1.00
H476   H     0.45494   0.95442   0.15627   0.00000  Uiso   1.00
H477   H     0.44728   0.74249   0.19168   0.00000  Uiso   1.00
H478   H     0.46122   0.70317   0.15433   0.00000  Uiso   1.00
H479   H     0.55272   0.92418   0.30833   0.00000  Uiso   1.00
H480   H     0.53879   0.96350   0.34567   0.00000  Uiso   1.00
N481   N     0.50000   0.95240   0.25000   0.00000  Uiso   1.00
N482   N     0.50000   0.71427   0.25000   0.00000  Uiso   1.00
N483   N     0.55188   0.72013   0.31044   0.00000  Uiso   1.00
N484   N     0.44812   0.94654   0.18956   0.00000  Uiso   1.00
N485   N     0.44881   0.70805   0.18604   0.00000  Uiso   1.00
N486   N     0.55119   0.95861   0.31396   0.00000  Uiso   1.00
O487   O     0.43892   0.87154   0.25000   0.00000  Uiso   1.00
O488   O     0.56108   0.79513   0.25001   0.00000  Uiso   1.00
O489   O     0.56108   0.87154   0.25001   0.00000  Uiso   1.00
O490   O     0.43892   0.79513   0.25000   0.00000  Uiso   1.00
O491   O     0.50000   0.87155   0.18453   0.00000  Uiso   1.00
O492   O     0.50000   0.79511   0.31547   0.00000  Uiso   1.00
O493   O     0.50000   0.87155   0.31547   0.00000  Uiso   1.00
O494   O     0.50000   0.79511   0.18453   0.00000  Uiso   1.00
Zn495  Zn    0.50000   0.88437   0.25000   0.00000  Uiso   1.00
Zn496  Zn    0.50000   0.78229   0.25000   0.00000  Uiso   1.00
C497   C     0.75334   0.83246   0.25256   0.00000  Uiso   1.00
C498   C     0.98147   0.87441   0.25984   0.00000  Uiso   1.00
C499   C     0.97665   0.79557   0.23183   0.00000  Uiso   1.00
C500   C     0.69002   0.87109   0.26818   0.00000  Uiso   1.00
C501   C     0.85695   0.87379   0.04624   0.00000  Uiso   1.00
C502   C     0.80973   0.79288   0.45376   0.00000  Uiso   1.00
C503   C     0.81206   0.87348   0.45577   0.00000  Uiso   1.00
C504   C     0.85461   0.79319   0.04423   0.00000  Uiso   1.00
C505   C     0.85683   0.87447   0.09352   0.00000  Uiso   1.00
C506   C     0.80983   0.79220   0.40648   0.00000  Uiso   1.00
C507   C     0.81212   0.87437   0.40849   0.00000  Uiso   1.00
C508   C     0.91333   0.83421   0.24744   0.00000  Uiso   1.00
C509   C     0.85455   0.79230   0.09151   0.00000  Uiso   1.00
C510   C     0.84850   0.83319   0.11588   0.00000  Uiso   1.00
C511   C     0.81817   0.83347   0.38412   0.00000  Uiso   1.00
C512   C     0.84425   0.83340   0.02274   0.00000  Uiso   1.00
C513   C     0.82242   0.83327   0.47726   0.00000  Uiso   1.00
C514   C     0.95762   0.83561   0.24459   0.00000  Uiso   1.00
C515   C     0.70905   0.83106   0.25541   0.00000  Uiso   1.00
C516   C     0.83792   0.83319   0.16386   0.00000  Uiso   1.00
C517   C     0.82874   0.83348   0.33614   0.00000  Uiso   1.00
C518   C     0.85827   0.69319   0.28004   0.00000  Uiso   1.00
C519   C     0.80839   0.97348   0.21996   0.00000  Uiso   1.00
C520   C     0.80857   0.68813   0.21937   0.00000  Uiso   1.00
C521   C     0.85809   0.97854   0.28063   0.00000  Uiso   1.00
C522   C     0.68520   0.79226   0.24017   0.00000  Uiso   1.00
Cl523  Cl    0.88214   0.91881   0.01805   0.00000  Uiso   1.00
Cl524  Cl    0.96138   0.92889   0.26586   0.00000  Uiso   1.00
Cl525  Cl    0.94948   0.74998   0.20159   0.00000  Uiso   1.00
Cl526  Cl    0.71719   0.91668   0.29842   0.00000  Uiso   1.00
Cl527  Cl    0.78453   0.74786   0.48196   0.00000  Uiso   1.00
Cl528  Cl    0.78950   0.91774   0.48625   0.00000  Uiso   1.00
Cl529  Cl    0.87717   0.74893   0.01376   0.00000  Uiso   1.00
Cl530  Cl    0.87085   0.92616   0.12289   0.00000  Uiso   1.00
Cl531  Cl    0.79582   0.74051   0.37711   0.00000  Uiso   1.00
Cl532  Cl    0.80059   0.92551   0.38164   0.00000  Uiso   1.00
Cl533  Cl    0.86609   0.74116   0.11836   0.00000  Uiso   1.00
Cl534  Cl    0.70528   0.73777   0.23416   0.00000  Uiso   1.00
H535   H     0.91557   0.71155   0.30508   0.00000  Uiso   1.00
H536   H     0.87840   0.71225   0.34373   0.00000  Uiso   1.00
H537   H     0.75110   0.95512   0.19492   0.00000  Uiso   1.00
H538   H     0.78827   0.95442   0.15627   0.00000  Uiso   1.00
H539   H     0.78061   0.74249   0.19168   0.00000  Uiso   1.00
H540   H     0.79455   0.70317   0.15433   0.00000  Uiso   1.00
H541   H     0.88605   0.92418   0.30833   0.00000  Uiso   1.00
H542   H     0.87212   0.96350   0.34567   0.00000  Uiso   1.00
N543   N     0.83333   0.95240   0.25000   0.00000  Uiso   1.00
N544   N     0.83333   0.71427   0.25000   0.00000  Uiso   1.00
N545   N     0.88522   0.72013   0.31044   0.00000  Uiso   1.00
N546   N     0.78145   0.94654   0.18956   0.00000  Uiso   1.00
N547   N     0.78215   0.70805   0.18604   0.00000  Uiso   1.00
N548   N     0.88452   0.95861   0.31396   0.00000  Uiso   1.00
O549   O     0.77226   0.87154   0.25000   0.00000  Uiso   1.00
O550   O     0.89441   0.79513   0.25001   0.00000  Uiso   1.00
O551   O     0.89441   0.87154   0.25001   0.00000  Uiso   1.00
O552   O     0.77226   0.79513   0.25000   0.00000  Uiso   1.00
O553   O     0.83333   0.87155   0.18453   0.00000  Uiso   1.00
O554   O     0.83334   0.79511   0.31547   0.00000  Uiso   1.00
O555   O     0.83334   0.87155   0.31547   0.00000  Uiso   1.00
O556   O     0.83333   0.79511   0.18453   0.00000  Uiso   1.00
Zn557  Zn    0.83333   0.88437   0.25000   0.00000  Uiso   1.00
Zn558  Zn    0.83333   0.78229   0.25000   0.00000  Uiso   1.00
C559   C     0.08667   0.16579   0.75256   0.00000  Uiso   1.00
C560   C     0.31480   0.20774   0.75984   0.00000  Uiso   1.00
C561   C     0.30998   0.12890   0.73183   0.00000  Uiso   1.00
C562   C     0.02336   0.20443   0.76818   0.00000  Uiso   1.00
C563   C     0.19028   0.20712   0.54624   0.00000  Uiso   1.00
C564   C     0.14306   0.12621   0.95376   0.00000  Uiso   1.00
C565   C     0.14540   0.20681   0.95577   0.00000  Uiso   1.00
C566   C     0.18794   0.12652   0.54423   0.00000  Uiso   1.00
C567   C     0.19017   0.20780   0.59352   0.00000  Uiso   1.00
C568   C     0.14317   0.12553   0.90648   0.00000  Uiso   1.00
C569   C     0.14546   0.20770   0.90849   0.00000  Uiso   1.00
C570   C     0.24666   0.16754   0.74744   0.00000  Uiso   1.00
C571   C     0.18788   0.12563   0.59151   0.00000  Uiso   1.00
C572   C     0.18184   0.16653   0.61588   0.00000  Uiso   1.00
C573   C     0.15150   0.16681   0.88412   0.00000  Uiso   1.00
C574   C     0.17758   0.16673   0.52274   0.00000  Uiso   1.00
C575   C     0.15576   0.16660   0.97726   0.00000  Uiso   1.00
C576   C     0.29095   0.16894   0.74459   0.00000  Uiso   1.00
C577   C     0.04238   0.16439   0.75541   0.00000  Uiso   1.00
C578   C     0.17126   0.16652   0.66386   0.00000  Uiso   1.00
C579   C     0.16208   0.16681   0.83614   0.00000  Uiso   1.00
C580   C     0.19161   0.02652   0.78004   0.00000  Uiso   1.00
C581   C     0.14173   0.30681   0.71996   0.00000  Uiso   1.00
C582   C     0.14191   0.02146   0.71937   0.00000  Uiso   1.00
C583   C     0.19143   0.31187   0.78063   0.00000  Uiso   1.00
C584   C     0.01853   0.12559   0.74017   0.00000  Uiso   1.00
Cl585  Cl    0.21548   0.25214   0.51805   0.00000  Uiso   1.00
Cl586  Cl    0.29472   0.26222   0.76586   0.00000  Uiso   1.00
Cl587  Cl    0.28281   0.08332   0.70159   0.00000  Uiso   1.00
Cl588  Cl    0.05052   0.25001   0.79842   0.00000  Uiso   1.00
Cl589  Cl    0.11786   0.08119   0.98196   0.00000  Uiso   1.00
Cl590  Cl    0.12283   0.25107   0.98625   0.00000  Uiso   1.00
Cl591  Cl    0.21051   0.08226   0.51376   0.00000  Uiso   1.00
Cl592  Cl    0.20418   0.25949   0.62289   0.00000  Uiso   1.00
Cl593  Cl    0.12915   0.07385   0.87711   0.00000  Uiso   1.00
Cl594  Cl    0.13392   0.25884   0.88164   0.00000  Uiso   1.00
Cl595  Cl    0.19942   0.07449   0.61836   0.00000  Uiso   1.00
Cl596  Cl    0.03862   0.07111   0.73416   0.00000  Uiso   1.00
H597   H     0.24890   0.04488   0.80508   0.00000  Uiso   1.00
H598   H     0.21174   0.04558   0.84373   0.00000  Uiso   1.00
H599   H     0.08444   0.28845   0.69492   0.00000  Uiso   1.00
H600   H     0.12160   0.28775   0.65627   0.00000  Uiso   1.00
H601   H     0.11394   0.07582   0.69168   0.00000  Uiso   1.00
H602   H     0.12788   0.03650   0.65433   0.00000  Uiso   1.00
H603   H     0.21939   0.25751   0.80833   0.00000  Uiso   1.00
H604   H     0.20545   0.29683   0.84567   0.00000  Uiso   1.00
N605   N     0.16667   0.28573   0.75000   0.00000  Uiso   1.00
N606   N     0.16667   0.04760   0.75000   0.00000  Uiso   1.00
N607   N     0.21855   0.05346   0.81044   0.00000  Uiso   1.00
N608   N     0.11479   0.27987   0.68956   0.00000  Uiso   1.00
N609   N     0.11548   0.04139   0.68604   0.00000  Uiso   1.00
N610   N     0.21785   0.29195   0.81396   0.00000  Uiso   1.00
O611   O     0.10559   0.20487   0.75000   0.00000  Uiso   1.00
O612   O     0.22774   0.12846   0.75001   0.00000  Uiso   1.00
O613   O     0.22774   0.20487   0.75001   0.00000  Uiso   1.00
O614   O     0.10559   0.12846   0.75000   0.00000  Uiso   1.00
O615   O     0.16666   0.20489   0.68453   0.00000  Uiso   1.00
O616   O     0.16667   0.12845   0.81547   0.00000  Uiso   1.00
O617   O     0.16667   0.20489   0.81547   0.00000  Uiso   1.00
O618   O     0.16666   0.12845   0.68453   0.00000  Uiso   1.00
Zn619  Zn    0.16667   0.21771   0.75000   0.00000  Uiso   1.00
Zn620  Zn    0.16667   0.11563   0.75000   0.00000  Uiso   1.00
C621   C     0.42001   0.16579   0.75256   0.00000  Uiso   1.00
C622   C     0.64814   0.20774   0.75984   0.00000  Uiso   1.00
C623   C     0.64331   0.12890   0.73183   0.00000  Uiso   1.00
C624   C     0.35669   0.20443   0.76818   0.00000  Uiso   1.00
C625   C     0.52361   0.20712   0.54624   0.00000  Uiso   1.00
C626   C     0.47639   0.12621   0.95376   0.00000  Uiso   1.00
C627   C     0.47873   0.20681   0.95577   0.00000  Uiso   1.00
C628   C     0.52128   0.12652   0.54423   0.00000  Uiso   1.00
C629   C     0.52350   0.20780   0.59352   0.00000  Uiso   1.00
C630   C     0.47650   0.12553   0.90648   0.00000  Uiso   1.00
C631   C     0.47879   0.20770   0.90849   0.00000  Uiso   1.00
C632   C     0.57999   0.16754   0.74744   0.00000  Uiso   1.00
C633   C     0.52122   0.12563   0.59151   0.00000  Uiso   1.00
C634   C     0.51517   0.16653   0.61588   0.00000  Uiso   1.00
C635   C     0.48483   0.16681   0.88412   0.00000  Uiso   1.00
C636   C     0.51092   0.16673   0.52274   0.00000  Uiso   1.00
C637   C     0.48909   0.16660   0.97726   0.00000  Uiso   1.00
C638   C     0.62429   0.16894   0.74459   0.00000  Uiso   1.00
C639   C     0.37571   0.16439   0.75541   0.00000  Uiso   1.00
C640   C     0.50459   0.16652   0.66386   0.00000  Uiso   1.00
C641   C     0.49541   0.16681   0.83614   0.00000  Uiso   1.00
C642   C     0.52494   0.02652   0.78004   0.00000  Uiso   1.00
C643   C     0.47506   0.30681   0.71996   0.00000  Uiso   1.00
C644   C     0.47524   0.02146   0.71937   0.00000  Uiso   1.00
C645   C     0.52476   0.31187   0.78063   0.00000  Uiso   1.00
C646   C     0.35186   0.12559   0.74017   0.00000  Uiso   1.00
Cl647  Cl    0.54881   0.25214   0.51805   0.00000  Uiso   1.00
Cl648  Cl    0.62805   0.26222   0.76586   0.00000  Uiso   1.00
Cl649  Cl    0.61614   0.08332   0.70159   0.00000  Uiso   1.00
Cl650  Cl    0.38386   0.25001   0.79842   0.00000  Uiso   1.00
Cl651  Cl    0.45120   0.08119   0.98196   0.00000  Uiso   1.00
Cl652  Cl    0.45617   0.25107   0.98625   0.00000  Uiso   1.00
Cl653  Cl    0.54384   0.08226   0.51376   0.00000  Uiso   1.00
Cl654  Cl    0.53751   0.25949   0.62289   0.00000  Uiso   1.00
Cl655  Cl    0.46249   0.07385   0.87711   0.00000  Uiso   1.00
Cl656  Cl    0.46725   0.25884   0.88164   0.00000  Uiso   1.00
Cl657  Cl    0.53275   0.07449   0.61836   0.00000  Uiso   1.00
Cl658  Cl    0.37195   0.07111   0.73416   0.00000  Uiso   1.00
H659   H     0.58223   0.04488   0.80508   0.00000  Uiso   1.00
H660   H     0.54507   0.04558   0.84373   0.00000  Uiso   1.00
H661   H     0.41777   0.28845   0.69492   0.00000  Uiso   1.00
H662   H     0.45494   0.28775   0.65627   0.00000  Uiso   1.00
H663   H     0.44728   0.07582   0.69168   0.00000  Uiso   1.00
H664   H     0.46122   0.03650   0.65433   0.00000  Uiso   1.00
H665   H     0.55272   0.25751   0.80833   0.00000  Uiso   1.00
H666   H     0.53879   0.29683   0.84567   0.00000  Uiso   1.00
N667   N     0.50000   0.28573   0.75000   0.00000  Uiso   1.00
N668   N     0.50000   0.04760   0.75000   0.00000  Uiso   1.00
N669   N     0.55188   0.05346   0.81044   0.00000  Uiso   1.00
N670   N     0.44812   0.27987   0.68956   0.00000  Uiso   1.00
N671   N     0.44881   0.04139   0.68604   0.00000  Uiso   1.00
N672   N     0.55119   0.29195   0.81396   0.00000  Uiso   1.00
O673   O     0.43892   0.20487   0.75000   0.00000  Uiso   1.00
O674   O     0.56108   0.12846   0.75001   0.00000  Uiso   1.00
O675   O     0.56108   0.20487   0.75001   0.00000  Uiso   1.00
O676   O     0.43892   0.12846   0.75000   0.00000  Uiso   1.00
O677   O     0.50000   0.20489   0.68453   0.00000  Uiso   1.00
O678   O     0.50000   0.12845   0.81547   0.00000  Uiso   1.00
O679   O     0.50000   0.20489   0.81547   0.00000  Uiso   1.00
O680   O     0.50000   0.12845   0.68453   0.00000  Uiso   1.00
Zn681  Zn    0.50000   0.21771   0.75000   0.00000  Uiso   1.00
Zn682  Zn    0.50000   0.11563   0.75000   0.00000  Uiso   1.00
C683   C     0.75334   0.16579   0.75256   0.00000  Uiso   1.00
C684   C     0.98147   0.20774   0.75984   0.00000  Uiso   1.00
C685   C     0.97665   0.12890   0.73183   0.00000  Uiso   1.00
C686   C     0.69002   0.20443   0.76818   0.00000  Uiso   1.00
C687   C     0.85695   0.20712   0.54624   0.00000  Uiso   1.00
C688   C     0.80973   0.12621   0.95376   0.00000  Uiso   1.00
C689   C     0.81206   0.20681   0.95577   0.00000  Uiso   1.00
C690   C     0.85461   0.12652   0.54423   0.00000  Uiso   1.00
C691   C     0.85683   0.20780   0.59352   0.00000  Uiso   1.00
C692   C     0.80983   0.12553   0.90648   0.00000  Uiso   1.00
C693   C     0.81212   0.20770   0.90849   0.00000  Uiso   1.00
C694   C     0.91333   0.16754   0.74744   0.00000  Uiso   1.00
C695   C     0.85455   0.12563   0.59151   0.00000  Uiso   1.00
C696   C     0.84850   0.16653   0.61588   0.00000  Uiso   1.00
C697   C     0.81817   0.16681   0.88412   0.00000  Uiso   1.00
C698   C     0.84425   0.16673   0.52274   0.00000  Uiso   1.00
C699   C     0.82242   0.16660   0.97726   0.00000  Uiso   1.00
C700   C     0.95762   0.16894   0.74459   0.00000  Uiso   1.00
C701   C     0.70905   0.16439   0.75541   0.00000  Uiso   1.00
C702   C     0.83792   0.16652   0.66386   0.00000  Uiso   1.00
C703   C     0.82874   0.16681   0.83614   0.00000  Uiso   1.00
C704   C     0.85827   0.02652   0.78004   0.00000  Uiso   1.00
C705   C     0.80839   0.30681   0.71996   0.00000  Uiso   1.00
C706   C     0.80857   0.02146   0.71937   0.00000  Uiso   1.00
C707   C     0.85809   0.31187   0.78063   0.00000  Uiso   1.00
C708   C     0.68520   0.12559   0.74017   0.00000  Uiso   1.00
Cl709  Cl    0.88214   0.25214   0.51805   0.00000  Uiso   1.00
Cl710  Cl    0.96138   0.26222   0.76586   0.00000  Uiso   1.00
Cl711  Cl    0.94948   0.08332   0.70159   0.00000  Uiso   1.00
Cl712  Cl    0.71719   0.25001   0.79842   0.00000  Uiso   1.00
Cl713  Cl    0.78453   0.08119   0.98196   0.00000  Uiso   1.00
Cl714  Cl    0.78950   0.25107   0.98625   0.00000  Uiso   1.00
Cl715  Cl    0.87717   0.08226   0.51376   0.00000  Uiso   1.00
Cl716  Cl    0.87085   0.25949   0.62289   0.00000  Uiso   1.00
Cl717  Cl    0.79582   0.07385   0.87711   0.00000  Uiso   1.00
Cl718  Cl    0.80059   0.25884   0.88164   0.00000  Uiso   1.00
Cl719  Cl    0.86609   0.07449   0.61836   0.00000  Uiso   1.00
Cl720  Cl    0.70528   0.07111   0.73416   0.00000  Uiso   1.00
H721   H     0.91557   0.04488   0.80508   0.00000  Uiso   1.00
H722   H     0.87840   0.04558   0.84373   0.00000  Uiso   1.00
H723   H     0.75110   0.28845   0.69492   0.00000  Uiso   1.00
H724   H     0.78827   0.28775   0.65627   0.00000  Uiso   1.00
H725   H     0.78061   0.07582   0.69168   0.00000  Uiso   1.00
H726   H     0.79455   0.03650   0.65433   0.00000  Uiso   1.00
H727   H     0.88605   0.25751   0.80833   0.00000  Uiso   1.00
H728   H     0.87212   0.29683   0.84567   0.00000  Uiso   1.00
N729   N     0.83333   0.28573   0.75000   0.00000  Uiso   1.00
N730   N     0.83333   0.04760   0.75000   0.00000  Uiso   1.00
N731   N     0.88522   0.05346   0.81044   0.00000  Uiso   1.00
N732   N     0.78145   0.27987   0.68956   0.00000  Uiso   1.00
N733   N     0.78215   0.04139   0.68604   0.00000  Uiso   1.00
N734   N     0.88452   0.29195   0.81396   0.00000  Uiso   1.00
O735   O     0.77226   0.20487   0.75000   0.00000  Uiso   1.00
O736   O     0.89441   0.12846   0.75001   0.00000  Uiso   1.00
O737   O     0.89441   0.20487   0.75001   0.00000  Uiso   1.00
O738   O     0.77226   0.12846   0.75000   0.00000  Uiso   1.00
O739   O     0.83333   0.20489   0.68453   0.00000  Uiso   1.00
O740   O     0.83334   0.12845   0.81547   0.00000  Uiso   1.00
O741   O     0.83334   0.20489   0.81547   0.00000  Uiso   1.00
O742   O     0.83333   0.12845   0.68453   0.00000  Uiso   1.00
Zn743  Zn    0.83333   0.21771   0.75000   0.00000  Uiso   1.00
Zn744  Zn    0.83333   0.11563   0.75000   0.00000  Uiso   1.00
C745   C     0.08667   0.49913   0.75256   0.00000  Uiso   1.00
C746   C     0.31480   0.54107   0.75984   0.00000  Uiso   1.00
C747   C     0.30998   0.46224   0.73183   0.00000  Uiso   1.00
C748   C     0.02336   0.53776   0.76818   0.00000  Uiso   1.00
C749   C     0.19028   0.54046   0.54624   0.00000  Uiso   1.00
C750   C     0.14306   0.45954   0.95376   0.00000  Uiso   1.00
C751   C     0.14540   0.54014   0.95577   0.00000  Uiso   1.00
C752   C     0.18794   0.45986   0.54423   0.00000  Uiso   1.00
C753   C     0.19017   0.54114   0.59352   0.00000  Uiso   1.00
C754   C     0.14317   0.45887   0.90648   0.00000  Uiso   1.00
C755   C     0.14546   0.54103   0.90849   0.00000  Uiso   1.00
C756   C     0.24666   0.50087   0.74744   0.00000  Uiso   1.00
C757   C     0.18788   0.45897   0.59151   0.00000  Uiso   1.00
C758   C     0.18184   0.49986   0.61588   0.00000  Uiso   1.00
C759   C     0.15150   0.50014   0.88412   0.00000  Uiso   1.00
C760   C     0.17758   0.50007   0.52274   0.00000  Uiso   1.00
C761   C     0.15576   0.49993   0.97726   0.00000  Uiso   1.00
C762   C     0.29095   0.50228   0.74459   0.00000  Uiso   1.00
C763   C     0.04238   0.49772   0.75541   0.00000  Uiso   1.00
C764   C     0.17126   0.49985   0.66386   0.00000  Uiso   1.00
C765   C     0.16208   0.50015   0.83614   0.00000  Uiso   1.00
C766   C     0.19161   0.35986   0.78004   0.00000  Uiso   1.00
C767   C     0.14173   0.64015   0.71996   0.00000  Uiso   1.00
C768   C     0.14191   0.35479   0.71937   0.00000  Uiso   1.00
C769   C     0.19143   0.64521   0.78063   0.00000  Uiso   1.00
C770   C     0.01853   0.45892   0.74017   0.00000  Uiso   1.00
Cl771  Cl    0.21548   0.58547   0.51805   0.00000  Uiso   1.00
Cl772  Cl    0.29472   0.59556   0.76586   0.00000  Uiso   1.00
Cl773  Cl    0.28281   0.41665   0.70159   0.00000  Uiso   1.00
Cl774  Cl    0.05052   0.58335   0.79842   0.00000  Uiso   1.00
Cl775  Cl    0.11786   0.41452   0.98196   0.00000  Uiso   1.00
Cl776  Cl    0.12283   0.58440   0.98625   0.00000  Uiso   1.00
Cl777  Cl    0.21051   0.41560   0.51376   0.00000  Uiso   1.00
Cl778  Cl    0.20418   0.59282   0.62289   0.00000  Uiso   1.00
Cl779  Cl    0.12915   0.40718   0.87711   0.00000  Uiso   1.00
Cl780  Cl    0.13392   0.59218   0.88164   0.00000  Uiso   1.00
Cl781  Cl    0.19942   0.40782   0.61836   0.00000  Uiso   1.00
Cl782  Cl    0.03862   0.40444   0.73416   0.00000  Uiso   1.00
H783   H     0.24890   0.37822   0.80508   0.00000  Uiso   1.00
H784   H     0.21174   0.37892   0.84373   0.00000  Uiso   1.00
H785   H     0.08444   0.62178   0.69492   0.00000  Uiso   1.00
H786   H     0.12160   0.62108   0.65627   0.00000  Uiso   1.00
H787   H     0.11394   0.40915   0.69168   0.00000  Uiso   1.00
H788   H     0.12788   0.36984   0.65433   0.00000  Uiso   1.00
H789   H     0.21939   0.59085   0.80833   0.00000  Uiso   1.00
H790   H     0.20545   0.63017   0.84567   0.00000  Uiso   1.00
N791   N     0.16667   0.61907   0.75000   0.00000  Uiso   1.00
N792   N     0.16667   0.38093   0.75000   0.00000  Uiso   1.00
N793   N     0.21855   0.38679   0.81044   0.00000  Uiso   1.00
N794   N     0.11479   0.61321   0.68956   0.00000  Uiso   1.00
N795   N     0.11548   0.37472   0.68604   0.00000  Uiso   1.00
N796   N     0.21785   0.62528   0.81396   0.00000  Uiso   1.00
O797   O     0.10559   0.53821   0.75000   0.00000  Uiso   1.00
O798   O     0.22774   0.46179   0.75001   0.00000  Uiso   1.00
O799   O     0.22774   0.53821   0.75001   0.00000  Uiso   1.00
O800   O     0.10559   0.46179   0.75000   0.00000  Uiso   1.00
O801   O     0.16666   0.53822   0.68453   0.00000  Uiso   1.00
O802   O     0.16667   0.46178   0.81547   0.00000  Uiso   1.00
O803   O     0.16667   0.53822   0.81547   0.00000  Uiso   1.00
O804   O     0.16666   0.46178   0.68453   0.00000  Uiso   1.00
Zn805  Zn    0.16667   0.55104   0.75000   0.00000  Uiso   1.00
Zn806  Zn    0.16667   0.44896   0.75000   0.00000  Uiso   1.00
C807   C     0.42001   0.49913   0.75256   0.00000  Uiso   1.00
C808   C     0.64814   0.54107   0.75984   0.00000  Uiso   1.00
C809   C     0.64331   0.46224   0.73183   0.00000  Uiso   1.00
C810   C     0.35669   0.53776   0.76818   0.00000  Uiso   1.00
C811   C     0.52361   0.54046   0.54624   0.00000  Uiso   1.00
C812   C     0.47639   0.45954   0.95376   0.00000  Uiso   1.00
C813   C     0.47873   0.54014   0.95577   0.00000  Uiso   1.00
C814   C     0.52128   0.45986   0.54423   0.00000  Uiso   1.00
C815   C     0.52350   0.54114   0.59352   0.00000  Uiso   1.00
C816   C     0.47650   0.45887   0.90648   0.00000  Uiso   1.00
C817   C     0.47879   0.54103   0.90849   0.00000  Uiso   1.00
C818   C     0.57999   0.50087   0.74744   0.00000  Uiso   1.00
C819   C     0.52122   0.45897   0.59151   0.00000  Uiso   1.00
C820   C     0.51517   0.49986   0.61588   0.00000  Uiso   1.00
C821   C     0.48483   0.50014   0.88412   0.00000  Uiso   1.00
C822   C     0.51092   0.50007   0.52274   0.00000  Uiso   1.00
C823   C     0.48909   0.49993   0.97726   0.00000  Uiso   1.00
C824   C     0.62429   0.50228   0.74459   0.00000  Uiso   1.00
C825   C     0.37571   0.49772   0.75541   0.00000  Uiso   1.00
C826   C     0.50459   0.49985   0.66386   0.00000  Uiso   1.00
C827   C     0.49541   0.50015   0.83614   0.00000  Uiso   1.00
C828   C     0.52494   0.35986   0.78004   0.00000  Uiso   1.00
C829   C     0.47506   0.64015   0.71996   0.00000  Uiso   1.00
C830   C     0.47524   0.35479   0.71937   0.00000  Uiso   1.00
C831   C     0.52476   0.64521   0.78063   0.00000  Uiso   1.00
C832   C     0.35186   0.45892   0.74017   0.00000  Uiso   1.00
Cl833  Cl    0.54881   0.58547   0.51805   0.00000  Uiso   1.00
Cl834  Cl    0.62805   0.59556   0.76586   0.00000  Uiso   1.00
Cl835  Cl    0.61614   0.41665   0.70159   0.00000  Uiso   1.00
Cl836  Cl    0.38386   0.58335   0.79842   0.00000  Uiso   1.00
Cl837  Cl    0.45120   0.41452   0.98196   0.00000  Uiso   1.00
Cl838  Cl    0.45617   0.58440   0.98625   0.00000  Uiso   1.00
Cl839  Cl    0.54384   0.41560   0.51376   0.00000  Uiso   1.00
Cl840  Cl    0.53751   0.59282   0.62289   0.00000  Uiso   1.00
Cl841  Cl    0.46249   0.40718   0.87711   0.00000  Uiso   1.00
Cl842  Cl    0.46725   0.59218   0.88164   0.00000  Uiso   1.00
Cl843  Cl    0.53275   0.40782   0.61836   0.00000  Uiso   1.00
Cl844  Cl    0.37195   0.40444   0.73416   0.00000  Uiso   1.00
H845   H     0.58223   0.37822   0.80508   0.00000  Uiso   1.00
H846   H     0.54507   0.37892   0.84373   0.00000  Uiso   1.00
H847   H     0.41777   0.62178   0.69492   0.00000  Uiso   1.00
H848   H     0.45494   0.62108   0.65627   0.00000  Uiso   1.00
H849   H     0.44728   0.40915   0.69168   0.00000  Uiso   1.00
H850   H     0.46122   0.36984   0.65433   0.00000  Uiso   1.00
H851   H     0.55272   0.59085   0.80833   0.00000  Uiso   1.00
H852   H     0.53879   0.63017   0.84567   0.00000  Uiso   1.00
N853   N     0.50000   0.61907   0.75000   0.00000  Uiso   1.00
N854   N     0.50000   0.38093   0.75000   0.00000  Uiso   1.00
N855   N     0.55188   0.38679   0.81044   0.00000  Uiso   1.00
N856   N     0.44812   0.61321   0.68956   0.00000  Uiso   1.00
N857   N     0.44881   0.37472   0.68604   0.00000  Uiso   1.00
N858   N     0.55119   0.62528   0.81396   0.00000  Uiso   1.00
O859   O     0.43892   0.53821   0.75000   0.00000  Uiso   1.00
O860   O     0.56108   0.46179   0.75001   0.00000  Uiso   1.00
O861   O     0.56108   0.53821   0.75001   0.00000  Uiso   1.00
O862   O     0.43892   0.46179   0.75000   0.00000  Uiso   1.00
O863   O     0.50000   0.53822   0.68453   0.00000  Uiso   1.00
O864   O     0.50000   0.46178   0.81547   0.00000  Uiso   1.00
O865   O     0.50000   0.53822   0.81547   0.00000  Uiso   1.00
O866   O     0.50000   0.46178   0.68453   0.00000  Uiso   1.00
Zn867  Zn    0.50000   0.55104   0.75000   0.00000  Uiso   1.00
Zn868  Zn    0.50000   0.44896   0.75000   0.00000  Uiso   1.00
C869   C     0.75334   0.49913   0.75256   0.00000  Uiso   1.00
C870   C     0.98147   0.54107   0.75984   0.00000  Uiso   1.00
C871   C     0.97665   0.46224   0.73183   0.00000  Uiso   1.00
C872   C     0.69002   0.53776   0.76818   0.00000  Uiso   1.00
C873   C     0.85695   0.54046   0.54624   0.00000  Uiso   1.00
C874   C     0.80973   0.45954   0.95376   0.00000  Uiso   1.00
C875   C     0.81206   0.54014   0.95577   0.00000  Uiso   1.00
C876   C     0.85461   0.45986   0.54423   0.00000  Uiso   1.00
C877   C     0.85683   0.54114   0.59352   0.00000  Uiso   1.00
C878   C     0.80983   0.45887   0.90648   0.00000  Uiso   1.00
C879   C     0.81212   0.54103   0.90849   0.00000  Uiso   1.00
C880   C     0.91333   0.50087   0.74744   0.00000  Uiso   1.00
C881   C     0.85455   0.45897   0.59151   0.00000  Uiso   1.00
C882   C     0.84850   0.49986   0.61588   0.00000  Uiso   1.00
C883   C     0.81817   0.50014   0.88412   0.00000  Uiso   1.00
C884   C     0.84425   0.50007   0.52274   0.00000  Uiso   1.00
C885   C     0.82242   0.49993   0.97726   0.00000  Uiso   1.00
C886   C     0.95762   0.50228   0.74459   0.00000  Uiso   1.00
C887   C     0.70905   0.49772   0.75541   0.00000  Uiso   1.00
C888   C     0.83792   0.49985   0.66386   0.00000  Uiso   1.00
C889   C     0.82874   0.50015   0.83614   0.00000  Uiso   1.00
C890   C     0.85827   0.35986   0.78004   0.00000  Uiso   1.00
C891   C     0.80839   0.64015   0.71996   0.00000  Uiso   1.00
C892   C     0.80857   0.35479   0.71937   0.00000  Uiso   1.00
C893   C     0.85809   0.64521   0.78063   0.00000  Uiso   1.00
C894   C     0.68520   0.45892   0.74017   0.00000  Uiso   1.00
Cl895  Cl    0.88214   0.58547   0.51805   0.00000  Uiso   1.00
Cl896  Cl    0.96138   0.59556   0.76586   0.00000  Uiso   1.00
Cl897  Cl    0.94948   0.41665   0.70159   0.00000  Uiso   1.00
Cl898  Cl    0.71719   0.58335   0.79842   0.00000  Uiso   1.00
Cl899  Cl    0.78453   0.41452   0.98196   0.00000  Uiso   1.00
Cl900  Cl    0.78950   0.58440   0.98625   0.00000  Uiso   1.00
Cl901  Cl    0.87717   0.41560   0.51376   0.00000  Uiso   1.00
Cl902  Cl    0.87085   0.59282   0.62289   0.00000  Uiso   1.00
Cl903  Cl    0.79582   0.40718   0.87711   0.00000  Uiso   1.00
Cl904  Cl    0.80059   0.59218   0.88164   0.00000  Uiso   1.00
Cl905  Cl    0.86609   0.40782   0.61836   0.00000  Uiso   1.00
Cl906  Cl    0.70528   0.40444   0.73416   0.00000  Uiso   1.00
H907   H     0.91557   0.37822   0.80508   0.00000  Uiso   1.00
H908   H     0.87840   0.37892   0.84373   0.00000  Uiso   1.00
H909   H     0.75110   0.62178   0.69492   0.00000  Uiso   1.00
H910   H     0.78827   0.62108   0.65627   0.00000  Uiso   1.00
H911   H     0.78061   0.40915   0.69168   0.00000  Uiso   1.00
H912   H     0.79455   0.36984   0.65433   0.00000  Uiso   1.00
H913   H     0.88605   0.59085   0.80833   0.00000  Uiso   1.00
H914   H     0.87212   0.63017   0.84567   0.00000  Uiso   1.00
N915   N     0.83333   0.61907   0.75000   0.00000  Uiso   1.00
N916   N     0.83333   0.38093   0.75000   0.00000  Uiso   1.00
N917   N     0.88522   0.38679   0.81044   0.00000  Uiso   1.00
N918   N     0.78145   0.61321   0.68956   0.00000  Uiso   1.00
N919   N     0.78215   0.37472   0.68604   0.00000  Uiso   1.00
N920   N     0.88452   0.62528   0.81396   0.00000  Uiso   1.00
O921   O     0.77226   0.53821   0.75000   0.00000  Uiso   1.00
O922   O     0.89441   0.46179   0.75001   0.00000  Uiso   1.00
O923   O     0.89441   0.53821   0.75001   0.00000  Uiso   1.00
O924   O     0.77226   0.46179   0.75000   0.00000  Uiso   1.00
O925   O     0.83333   0.53822   0.68453   0.00000  Uiso   1.00
O926   O     0.83334   0.46178   0.81547   0.00000  Uiso   1.00
O927   O     0.83334   0.53822   0.81547   0.00000  Uiso   1.00
O928   O     0.83333   0.46178   0.68453   0.00000  Uiso   1.00
Zn929  Zn    0.83333   0.55104   0.75000   0.00000  Uiso   1.00
Zn930  Zn    0.83333   0.44896   0.75000   0.00000  Uiso   1.00
C931   C     0.08667   0.83246   0.75256   0.00000  Uiso   1.00
C932   C     0.31480   0.87441   0.75984   0.00000  Uiso   1.00
C933   C     0.30998   0.79557   0.73183   0.00000  Uiso   1.00
C934   C     0.02336   0.87109   0.76818   0.00000  Uiso   1.00
C935   C     0.19028   0.87379   0.54624   0.00000  Uiso   1.00
C936   C     0.14306   0.79288   0.95376   0.00000  Uiso   1.00
C937   C     0.14540   0.87348   0.95577   0.00000  Uiso   1.00
C938   C     0.18794   0.79319   0.54423   0.00000  Uiso   1.00
C939   C     0.19017   0.87447   0.59352   0.00000  Uiso   1.00
C940   C     0.14317   0.79220   0.90648   0.00000  Uiso   1.00
C941   C     0.14546   0.87437   0.90849   0.00000  Uiso   1.00
C942   C     0.24666   0.83421   0.74744   0.00000  Uiso   1.00
C943   C     0.18788   0.79230   0.59151   0.00000  Uiso   1.00
C944   C     0.18184   0.83319   0.61588   0.00000  Uiso   1.00
C945   C     0.15150   0.83347   0.88412   0.00000  Uiso   1.00
C946   C     0.17758   0.83340   0.52274   0.00000  Uiso   1.00
C947   C     0.15576   0.83327   0.97726   0.00000  Uiso   1.00
C948   C     0.29095   0.83561   0.74459   0.00000  Uiso   1.00
C949   C     0.04238   0.83106   0.75541   0.00000  Uiso   1.00
C950   C     0.17126   0.83319   0.66386   0.00000  Uiso   1.00
C951   C     0.16208   0.83348   0.83614   0.00000  Uiso   1.00
C952   C     0.19161   0.69319   0.78004   0.00000  Uiso   1.00
C953   C     0.14173   0.97348   0.71996   0.00000  Uiso   1.00
C954   C     0.14191   0.68813   0.71937   0.00000  Uiso   1.00
C955   C     0.19143   0.97854   0.78063   0.00000  Uiso   1.00
C956   C     0.01853   0.79226   0.74017   0.00000  Uiso   1.00
Cl957  Cl    0.21548   0.91881   0.51805   0.00000  Uiso   1.00
Cl958  Cl    0.29472   0.92889   0.76586   0.00000  Uiso   1.00
Cl959  Cl    0.28281   0.74998   0.70159   0.00000  Uiso   1.00
Cl960  Cl    0.05052   0.91668   0.79842   0.00000  Uiso   1.00
Cl961  Cl    0.11786   0.74786   0.98196   0.00000  Uiso   1.00
Cl962  Cl    0.12283   0.91774   0.98625   0.00000  Uiso   1.00
Cl963  Cl    0.21051   0.74893   0.51376   0.00000  Uiso   1.00
Cl964  Cl    0.20418   0.92616   0.62289   0.00000  Uiso   1.00
Cl965  Cl    0.12915   0.74051   0.87711   0.00000  Uiso   1.00
Cl966  Cl    0.13392   0.92551   0.88164   0.00000  Uiso   1.00
Cl967  Cl    0.19942   0.74116   0.61836   0.00000  Uiso   1.00
Cl968  Cl    0.03862   0.73777   0.73416   0.00000  Uiso   1.00
H969   H     0.24890   0.71155   0.80508   0.00000  Uiso   1.00
H970   H     0.21174   0.71225   0.84373   0.00000  Uiso   1.00
H971   H     0.08444   0.95512   0.69492   0.00000  Uiso   1.00
H972   H     0.12160   0.95442   0.65627   0.00000  Uiso   1.00
H973   H     0.11394   0.74249   0.69168   0.00000  Uiso   1.00
H974   H     0.12788   0.70317   0.65433   0.00000  Uiso   1.00
H975   H     0.21939   0.92418   0.80833   0.00000  Uiso   1.00
H976   H     0.20545   0.96350   0.84567   0.00000  Uiso   1.00
N977   N     0.16667   0.95240   0.75000   0.00000  Uiso   1.00
N978   N     0.16667   0.71427   0.75000   0.00000  Uiso   1.00
N979   N     0.21855   0.72013   0.81044   0.00000  Uiso   1.00
N980   N     0.11479   0.94654   0.68956   0.00000  Uiso   1.00
N981   N     0.11548   0.70805   0.68604   0.00000  Uiso   1.00
N982   N     0.21785   0.95861   0.81396   0.00000  Uiso   1.00
O983   O     0.10559   0.87154   0.75000   0.00000  Uiso   1.00
O984   O     0.22774   0.79513   0.75001   0.00000  Uiso   1.00
O985   O     0.22774   0.87154   0.75001   0.00000  Uiso   1.00
O986   O     0.10559   0.79513   0.75000   0.00000  Uiso   1.00
O987   O     0.16666   0.87155   0.68453   0.00000  Uiso   1.00
O988   O     0.16667   0.79511   0.81547   0.00000  Uiso   1.00
O989   O     0.16667   0.87155   0.81547   0.00000  Uiso   1.00
O990   O     0.16666   0.79511   0.68453   0.00000  Uiso   1.00
Zn991  Zn    0.16667   0.88437   0.75000   0.00000  Uiso   1.00
Zn992  Zn    0.16667   0.78229   0.75000   0.00000  Uiso   1.00
C993   C     0.42001   0.83246   0.75256   0.00000  Uiso   1.00
C994   C     0.64814   0.87441   0.75984   0.00000  Uiso   1.00
C995   C     0.64331   0.79557   0.73183   0.00000  Uiso   1.00
C996   C     0.35669   0.87109   0.76818   0.00000  Uiso   1.00
C997   C     0.52361   0.87379   0.54624   0.00000  Uiso   1.00
C998   C     0.47639   0.79288   0.95376   0.00000  Uiso   1.00
C999   C     0.47873   0.87348   0.95577   0.00000  Uiso   1.00
C1000  C     0.52128   0.79319   0.54423   0.00000  Uiso   1.00
C1001  C     0.52350   0.87447   0.59352   0.00000  Uiso   1.00
C1002  C     0.47650   0.79220   0.90648   0.00000  Uiso   1.00
C1003  C     0.47879   0.87437   0.90849   0.00000  Uiso   1.00
C1004  C     0.57999   0.83421   0.74744   0.00000  Uiso   1.00
C1005  C     0.52122   0.79230   0.59151   0.00000  Uiso   1.00
C1006  C     0.51517   0.83319   0.61588   0.00000  Uiso   1.00
C1007  C     0.48483   0.83347   0.88412   0.00000  Uiso   1.00
C1008  C     0.51092   0.83340   0.52274   0.00000  Uiso   1.00
C1009  C     0.48909   0.83327   0.97726   0.00000  Uiso   1.00
C1010  C     0.62429   0.83561   0.74459   0.00000  Uiso   1.00
C1011  C     0.37571   0.83106   0.75541   0.00000  Uiso   1.00
C1012  C     0.50459   0.83319   0.66386   0.00000  Uiso   1.00
C1013  C     0.49541   0.83348   0.83614   0.00000  Uiso   1.00
C1014  C     0.52494   0.69319   0.78004   0.00000  Uiso   1.00
C1015  C     0.47506   0.97348   0.71996   0.00000  Uiso   1.00
C1016  C     0.47524   0.68813   0.71937   0.00000  Uiso   1.00
C1017  C     0.52476   0.97854   0.78063   0.00000  Uiso   1.00
C1018  C     0.35186   0.79226   0.74017   0.00000  Uiso   1.00
Cl1019 Cl    0.54881   0.91881   0.51805   0.00000  Uiso   1.00
Cl1020 Cl    0.62805   0.92889   0.76586   0.00000  Uiso   1.00
Cl1021 Cl    0.61614   0.74998   0.70159   0.00000  Uiso   1.00
Cl1022 Cl    0.38386   0.91668   0.79842   0.00000  Uiso   1.00
Cl1023 Cl    0.45120   0.74786   0.98196   0.00000  Uiso   1.00
Cl1024 Cl    0.45617   0.91774   0.98625   0.00000  Uiso   1.00
Cl1025 Cl    0.54384   0.74893   0.51376   0.00000  Uiso   1.00
Cl1026 Cl    0.53751   0.92616   0.62289   0.00000  Uiso   1.00
Cl1027 Cl    0.46249   0.74051   0.87711   0.00000  Uiso   1.00
Cl1028 Cl    0.46725   0.92551   0.88164   0.00000  Uiso   1.00
Cl1029 Cl    0.53275   0.74116   0.61836   0.00000  Uiso   1.00
Cl1030 Cl    0.37195   0.73777   0.73416   0.00000  Uiso   1.00
H1031  H     0.58223   0.71155   0.80508   0.00000  Uiso   1.00
H1032  H     0.54507   0.71225   0.84373   0.00000  Uiso   1.00
H1033  H     0.41777   0.95512   0.69492   0.00000  Uiso   1.00
H1034  H     0.45494   0.95442   0.65627   0.00000  Uiso   1.00
H1035  H     0.44728   0.74249   0.69168   0.00000  Uiso   1.00
H1036  H     0.46122   0.70317   0.65433   0.00000  Uiso   1.00
H1037  H     0.55272   0.92418   0.80833   0.00000  Uiso   1.00
H1038  H     0.53879   0.96350   0.84567   0.00000  Uiso   1.00
N1039  N     0.50000   0.95240   0.75000   0.00000  Uiso   1.00
N1040  N     0.50000   0.71427   0.75000   0.00000  Uiso   1.00
N1041  N     0.55188   0.72013   0.81044   0.00000  Uiso   1.00
N1042  N     0.44812   0.94654   0.68956   0.00000  Uiso   1.00
N1043  N     0.44881   0.70805   0.68604   0.00000  Uiso   1.00
N1044  N     0.55119   0.95861   0.81396   0.00000  Uiso   1.00
O1045  O     0.43892   0.87154   0.75000   0.00000  Uiso   1.00
O1046  O     0.56108   0.79513   0.75001   0.00000  Uiso   1.00
O1047  O     0.56108   0.87154   0.75001   0.00000  Uiso   1.00
O1048  O     0.43892   0.79513   0.75000   0.00000  Uiso   1.00
O1049  O     0.50000   0.87155   0.68453   0.00000  Uiso   1.00
O1050  O     0.50000   0.79511   0.81547   0.00000  Uiso   1.00
O1051  O     0.50000   0.87155   0.81547   0.00000  Uiso   1.00
O1052  O     0.50000   0.79511   0.68453   0.00000  Uiso   1.00
Zn1053 Zn    0.50000   0.88437   0.75000   0.00000  Uiso   1.00
Zn1054 Zn    0.50000   0.78229   0.75000   0.00000  Uiso   1.00
C1055  C     0.75334   0.83246   0.75256   0.00000  Uiso   1.00
C1056  C     0.98147   0.87441   0.75984   0.00000  Uiso   1.00
C1057  C     0.97665   0.79557   0.73183   0.00000  Uiso   1.00
C1058  C     0.69002   0.87109   0.76818   0.00000  Uiso   1.00
C1059  C     0.85695   0.87379   0.54624   0.00000  Uiso   1.00
C1060  C     0.80973   0.79288   0.95376   0.00000  Uiso   1.00
C1061  C     0.81206   0.87348   0.95577   0.00000  Uiso   1.00
C1062  C     0.85461   0.79319   0.54423   0.00000  Uiso   1.00
C1063  C     0.85683   0.87447   0.59352   0.00000  Uiso   1.00
C1064  C     0.80983   0.79220   0.90648   0.00000  Uiso   1.00
C1065  C     0.81212   0.87437   0.90849   0.00000  Uiso   1.00
C1066  C     0.91333   0.83421   0.74744   0.00000  Uiso   1.00
C1067  C     0.85455   0.79230   0.59151   0.00000  Uiso   1.00
C1068  C     0.84850   0.83319   0.61588   0.00000  Uiso   1.00
C1069  C     0.81817   0.83347   0.88412   0.00000  Uiso   1.00
C1070  C     0.84425   0.83340   0.52274   0.00000  Uiso   1.00
C1071  C     0.82242   0.83327   0.97726   0.00000  Uiso   1.00
C1072  C     0.95762   0.83561   0.74459   0.00000  Uiso   1.00
C1073  C     0.70905   0.83106   0.75541   0.00000  Uiso   1.00
C1074  C     0.83792   0.83319   0.66386   0.00000  Uiso   1.00
C1075  C     0.82874   0.83348   0.83614   0.00000  Uiso   1.00
C1076  C     0.85827   0.69319   0.78004   0.00000  Uiso   1.00
C1077  C     0.80839   0.97348   0.71996   0.00000  Uiso   1.00
C1078  C     0.80857   0.68813   0.71937   0.00000  Uiso   1.00
C1079  C     0.85809   0.97854   0.78063   0.00000  Uiso   1.00
C1080  C     0.68520   0.79226   0.74017   0.00000  Uiso   1.00
Cl1081 Cl    0.88214   0.91881   0.51805   0.00000  Uiso   1.00
Cl1082 Cl    0.96138   0.92889   0.76586   0.00000  Uiso   1.00
Cl1083 Cl    0.94948   0.74998   0.70159   0.00000  Uiso   1.00
Cl1084 Cl    0.71719   0.91668   0.79842   0.00000  Uiso   1.00
Cl1085 Cl    0.78453   0.74786   0.98196   0.00000  Uiso   1.00
Cl1086 Cl    0.78950   0.91774   0.98625   0.00000  Uiso   1.00
Cl1087 Cl    0.87717   0.74893   0.51376   0.00000  Uiso   1.00
Cl1088 Cl    0.87085   0.92616   0.62289   0.00000  Uiso   1.00
Cl1089 Cl    0.79582   0.74051   0.87711   0.00000  Uiso   1.00
Cl1090 Cl    0.80059   0.92551   0.88164   0.00000  Uiso   1.00
Cl1091 Cl    0.86609   0.74116   0.61836   0.00000  Uiso   1.00
Cl1092 Cl    0.70528   0.73777   0.73416   0.00000  Uiso   1.00
H1093  H     0.91557   0.71155   0.80508   0.00000  Uiso   1.00
H1094  H     0.87840   0.71225   0.84373   0.00000  Uiso   1.00
H1095  H     0.75110   0.95512   0.69492   0.00000  Uiso   1.00
H1096  H     0.78827   0.95442   0.65627   0.00000  Uiso   1.00
H1097  H     0.78061   0.74249   0.69168   0.00000  Uiso   1.00
H1098  H     0.79455   0.70317   0.65433   0.00000  Uiso   1.00
H1099  H     0.88605   0.92418   0.80833   0.00000  Uiso   1.00
H1100  H     0.87212   0.96350   0.84567   0.00000  Uiso   1.00
N1101  N     0.83333   0.95240   0.75000   0.00000  Uiso   1.00
N1102  N     0.83333   0.71427   0.75000   0.00000  Uiso   1.00
N1103  N     0.88522   0.72013   0.81044   0.00000  Uiso   1.00
N1104  N     0.78145   0.94654   0.68956   0.00000  Uiso   1.00
N1105  N     0.78215   0.70805   0.68604   0.00000  Uiso   1.00
N1106  N     0.88452   0.95861   0.81396   0.00000  Uiso   1.00
O1107  O     0.77226   0.87154   0.75000   0.00000  Uiso   1.00
O1108  O     0.89441   0.79513   0.75001   0.00000  Uiso   1.00
O1109  O     0.89441   0.87154   0.75001   0.00000  Uiso   1.00
O1110  O     0.77226   0.79513   0.75000   0.00000  Uiso   1.00
O1111  O     0.83333   0.87155   0.68453   0.00000  Uiso   1.00
O1112  O     0.83334   0.79511   0.81547   0.00000  Uiso   1.00
O1113  O     0.83334   0.87155   0.81547   0.00000  Uiso   1.00
O1114  O     0.83333   0.79511   0.68453   0.00000  Uiso   1.00
Zn1115 Zn    0.83333   0.88437   0.75000   0.00000  Uiso   1.00
Zn1116 Zn    0.83333   0.78229   0.75000   0.00000  Uiso   1.00
loop_
_geom_bond_atom_site_label_1
_geom_bond_atom_site_label_2
_geom_bond_distance
_geom_bond_site_symmetry_2
_ccdc_geom_bond_type
C1     O56     1.288   .     A
C1     O53     1.290   .     A
C1     C19     1.443   .     S
C2     C18     1.411   .     A
C2     Cl28    1.771   .     S
C2     C66     1.380   .     S
C3     C18     1.409   .     A
C3     Cl29    1.781   .     S
C3     C88     1.380   .     S
C4     C19     1.409   .     A
C4     Cl30    1.781   .     S
C4     C126    1.380   1_455 S
C5     C9      1.395   .     A
C5     Cl27    1.773   .     S
C5     C16     1.405   .     A
C6     C10     1.395   .     A
C6     Cl31    1.773   .     S
C6     C17     1.405   .     A
C7     C11     1.396   .     A
C7     Cl32    1.773   .     S
C7     C17     1.406   .     A
C8     C13     1.396   .     A
C8     C16     1.406   .     A
C8     Cl33    1.773   .     S
C9     C14     1.420   .     A
C9     Cl34    1.773   .     S
C10    C15     1.420   .     A
C10    Cl35    1.773   .     S
C11    Cl36    1.769   .     S
C11    C15     1.418   .     A
C12    O54     1.290   .     A
C12    O55     1.288   .     A
C12    C18     1.443   .     S
C13    C14     1.418   .     A
C13    Cl37    1.769   .     S
C14    C20     1.471   .     S
C15    C21     1.471   .     S
C16    C575    1.492   1_554 S
C17    C574    1.492   .     S
C19    C26     1.411   .     A
C20    O60     1.297   .     A
C20    O57     1.293   .     A
C21    O58     1.293   .     A
C21    O59     1.297   .     A
C22    N49     1.431   .     S
C22    N48     1.356   .     A
C22    C397    1.418   1_545 S
C23    N47     1.356   .     A
C23    N50     1.431   .     S
C23    C210    1.418   .     S
C24    N51     1.432   .     S
C24    N48     1.385   .     A
C24    C395    1.418   1_545 S
C25    N47     1.385   .     A
C25    N52     1.432   .     S
C25    C208    1.418   .     S
C26    Cl38    1.771   .     S
C26    C127    1.380   1_455 S
H39    N49     1.046   .     S
H40    N49     1.045   .     S
H41    N50     1.046   .     S
H42    N50     1.045   .     S
H43    N51     1.031   .     S
H44    N51     1.044   .     S
H45    N52     1.031   .     S
H46    N52     1.044   .     S
N47    Zn61    2.010   .     S
N48    Zn62    2.010   .     S
O53    Zn61    2.003   .     S
O54    Zn62    2.003   .     S
O55    Zn61    2.035   .     S
O56    Zn62    2.035   .     S
O57    Zn61    1.961   .     S
O58    Zn62    1.961   .     S
O59    Zn61    1.977   .     S
O60    Zn62    1.977   .     S
C63    O118    1.288   .     A
C63    O115    1.290   .     A
C63    C81     1.443   .     S
C64    C80     1.411   .     A
C64    Cl90    1.771   .     S
C64    C128    1.380   .     S
C65    C80     1.409   .     A
C65    Cl91    1.781   .     S
C65    C150    1.380   .     S
C66    C81     1.409   .     A
C66    Cl92    1.781   .     S
C67    C71     1.395   .     A
C67    Cl89    1.773   .     S
C67    C78     1.405   .     A
C68    C72     1.395   .     A
C68    Cl93    1.773   .     S
C68    C79     1.405   .     A
C69    C73     1.396   .     A
C69    Cl94    1.773   .     S
C69    C79     1.406   .     A
C70    C75     1.396   .     A
C70    C78     1.406   .     A
C70    Cl95    1.773   .     S
C71    C76     1.420   .     A
C71    Cl96    1.773   .     S
C72    C77     1.420   .     A
C72    Cl97    1.773   .     S
C73    Cl98    1.769   .     S
C73    C77     1.418   .     A
C74    O116    1.290   .     A
C74    O117    1.288   .     A
C74    C80     1.443   .     S
C75    C76     1.418   .     A
C75    Cl99    1.769   .     S
C76    C82     1.471   .     S
C77    C83     1.471   .     S
C78    C637    1.492   1_554 S
C79    C636    1.492   .     S
C81    C88     1.411   .     A
C82    O122    1.297   .     A
C82    O119    1.293   .     A
C83    O120    1.293   .     A
C83    O121    1.297   .     A
C84    N111    1.431   .     S
C84    N110    1.356   .     A
C84    C459    1.418   1_545 S
C85    N109    1.356   .     A
C85    N112    1.431   .     S
C85    C272    1.418   .     S
C86    N113    1.432   .     S
C86    N110    1.385   .     A
C86    C457    1.418   1_545 S
C87    N109    1.385   .     A
C87    N114    1.432   .     S
C87    C270    1.418   .     S
C88    Cl100   1.771   .     S
H101   N111    1.046   .     S
H102   N111    1.045   .     S
H103   N112    1.046   .     S
H104   N112    1.045   .     S
H105   N113    1.031   .     S
H106   N113    1.044   .     S
H107   N114    1.031   .     S
H108   N114    1.044   .     S
N109   Zn123   2.010   .     S
N110   Zn124   2.010   .     S
O115   Zn123   2.003   .     S
O116   Zn124   2.003   .     S
O117   Zn123   2.035   .     S
O118   Zn124   2.035   .     S
O119   Zn123   1.961   .     S
O120   Zn124   1.961   .     S
O121   Zn123   1.977   .     S
O122   Zn124   1.977   .     S
C125   O180    1.288   .     A
C125   O177    1.290   .     A
C125   C143    1.443   .     S
C126   C142    1.411   .     A
C126   Cl152   1.771   .     S
C126   C4      1.380   1_655 S
C127   C142    1.409   .     A
C127   Cl153   1.781   .     S
C127   C26     1.380   1_655 S
C128   C143    1.409   .     A
C128   Cl154   1.781   .     S
C129   C133    1.395   .     A
C129   Cl151   1.773   .     S
C129   C140    1.405   .     A
C130   C134    1.395   .     A
C130   Cl155   1.773   .     S
C130   C141    1.405   .     A
C131   C135    1.396   .     A
C131   Cl156   1.773   .     S
C131   C141    1.406   .     A
C132   C137    1.396   .     A
C132   C140    1.406   .     A
C132   Cl157   1.773   .     S
C133   C138    1.420   .     A
C133   Cl158   1.773   .     S
C134   C139    1.420   .     A
C134   Cl159   1.773   .     S
C135   Cl160   1.769   .     S
C135   C139    1.418   .     A
C136   O178    1.290   .     A
C136   O179    1.288   .     A
C136   C142    1.443   .     S
C137   C138    1.418   .     A
C137   Cl161   1.769   .     S
C138   C144    1.471   .     S
C139   C145    1.471   .     S
C140   C699    1.492   1_554 S
C141   C698    1.492   .     S
C143   C150    1.411   .     A
C144   O184    1.297   .     A
C144   O181    1.293   .     A
C145   O182    1.293   .     A
C145   O183    1.297   .     A
C146   N173    1.431   .     S
C146   N172    1.356   .     A
C146   C521    1.418   1_545 S
C147   N171    1.356   .     A
C147   N174    1.431   .     S
C147   C334    1.418   .     S
C148   N175    1.432   .     S
C148   N172    1.385   .     A
C148   C519    1.418   1_545 S
C149   N171    1.385   .     A
C149   N176    1.432   .     S
C149   C332    1.418   .     S
C150   Cl162   1.771   .     S
H163   N173    1.046   .     S
H164   N173    1.045   .     S
H165   N174    1.046   .     S
H166   N174    1.045   .     S
H167   N175    1.031   .     S
H168   N175    1.044   .     S
H169   N176    1.031   .     S
H170   N176    1.044   .     S
N171   Zn185   2.010   .     S
N172   Zn186   2.010   .     S
O177   Zn185   2.003   .     S
O178   Zn186   2.003   .     S
O179   Zn185   2.035   .     S
O180   Zn186   2.035   .     S
O181   Zn185   1.961   .     S
O182   Zn186   1.961   .     S
O183   Zn185   1.977   .     S
O184   Zn186   1.977   .     S
C187   O242    1.288   .     A
C187   O239    1.290   .     A
C187   C205    1.443   .     S
C188   C204    1.411   .     A
C188   Cl214   1.771   .     S
C188   C252    1.380   .     S
C189   C204    1.409   .     A
C189   Cl215   1.781   .     S
C189   C274    1.380   .     S
C190   C205    1.409   .     A
C190   Cl216   1.781   .     S
C190   C312    1.380   1_455 S
C191   C195    1.395   .     A
C191   Cl213   1.773   .     S
C191   C202    1.405   .     A
C192   C196    1.395   .     A
C192   Cl217   1.773   .     S
C192   C203    1.405   .     A
C193   C197    1.396   .     A
C193   Cl218   1.773   .     S
C193   C203    1.406   .     A
C194   C199    1.396   .     A
C194   C202    1.406   .     A
C194   Cl219   1.773   .     S
C195   C200    1.420   .     A
C195   Cl220   1.773   .     S
C196   C201    1.420   .     A
C196   Cl221   1.773   .     S
C197   Cl222   1.769   .     S
C197   C201    1.418   .     A
C198   O240    1.290   .     A
C198   O241    1.288   .     A
C198   C204    1.443   .     S
C199   C200    1.418   .     A
C199   Cl223   1.769   .     S
C200   C206    1.471   .     S
C201   C207    1.471   .     S
C202   C761    1.492   1_554 S
C203   C760    1.492   .     S
C205   C212    1.411   .     A
C206   O246    1.297   .     A
C206   O243    1.293   .     A
C207   O244    1.293   .     A
C207   O245    1.297   .     A
C208   N235    1.431   .     S
C208   N234    1.356   .     A
C209   N233    1.356   .     A
C209   N236    1.431   .     S
C209   C396    1.418   .     S
C210   N237    1.432   .     S
C210   N234    1.385   .     A
C211   N233    1.385   .     A
C211   N238    1.432   .     S
C211   C394    1.418   .     S
C212   Cl224   1.771   .     S
C212   C313    1.380   1_455 S
H225   N235    1.046   .     S
H226   N235    1.045   .     S
H227   N236    1.046   .     S
H228   N236    1.045   .     S
H229   N237    1.031   .     S
H230   N237    1.044   .     S
H231   N238    1.031   .     S
H232   N238    1.044   .     S
N233   Zn247   2.010   .     S
N234   Zn248   2.010   .     S
O239   Zn247   2.003   .     S
O240   Zn248   2.003   .     S
O241   Zn247   2.035   .     S
O242   Zn248   2.035   .     S
O243   Zn247   1.961   .     S
O244   Zn248   1.961   .     S
O245   Zn247   1.977   .     S
O246   Zn248   1.977   .     S
C249   O304    1.288   .     A
C249   O301    1.290   .     A
C249   C267    1.443   .     S
C250   C266    1.411   .     A
C250   Cl276   1.771   .     S
C250   C314    1.380   .     S
C251   C266    1.409   .     A
C251   Cl277   1.781   .     S
C251   C336    1.380   .     S
C252   C267    1.409   .     A
C252   Cl278   1.781   .     S
C253   C257    1.395   .     A
C253   Cl275   1.773   .     S
C253   C264    1.405   .     A
C254   C258    1.395   .     A
C254   Cl279   1.773   .     S
C254   C265    1.405   .     A
C255   C259    1.396   .     A
C255   Cl280   1.773   .     S
C255   C265    1.406   .     A
C256   C261    1.396   .     A
C256   C264    1.406   .     A
C256   Cl281   1.773   .     S
C257   C262    1.420   .     A
C257   Cl282   1.773   .     S
C258   C263    1.420   .     A
C258   Cl283   1.773   .     S
C259   Cl284   1.769   .     S
C259   C263    1.418   .     A
C260   O302    1.290   .     A
C260   O303    1.288   .     A
C260   C266    1.443   .     S
C261   C262    1.418   .     A
C261   Cl285   1.769   .     S
C262   C268    1.471   .     S
C263   C269    1.471   .     S
C264   C823    1.492   1_554 S
C265   C822    1.492   .     S
C267   C274    1.411   .     A
C268   O308    1.297   .     A
C268   O305    1.293   .     A
C269   O306    1.293   .     A
C269   O307    1.297   .     A
C270   N297    1.431   .     S
C270   N296    1.356   .     A
C271   N295    1.356   .     A
C271   N298    1.431   .     S
C271   C458    1.418   .     S
C272   N299    1.432   .     S
C272   N296    1.385   .     A
C273   N295    1.385   .     A
C273   N300    1.432   .     S
C273   C456    1.418   .     S
C274   Cl286   1.771   .     S
H287   N297    1.046   .     S
H288   N297    1.045   .     S
H289   N298    1.046   .     S
H290   N298    1.045   .     S
H291   N299    1.031   .     S
H292   N299    1.044   .     S
H293   N300    1.031   .     S
H294   N300    1.044   .     S
N295   Zn309   2.010   .     S
N296   Zn310   2.010   .     S
O301   Zn309   2.003   .     S
O302   Zn310   2.003   .     S
O303   Zn309   2.035   .     S
O304   Zn310   2.035   .     S
O305   Zn309   1.961   .     S
O306   Zn310   1.961   .     S
O307   Zn309   1.977   .     S
O308   Zn310   1.977   .     S
C311   O366    1.288   .     A
C311   O363    1.290   .     A
C311   C329    1.443   .     S
C312   C328    1.411   .     A
C312   Cl338   1.771   .     S
C312   C190    1.380   1_655 S
C313   C328    1.409   .     A
C313   Cl339   1.781   .     S
C313   C212    1.380   1_655 S
C314   C329    1.409   .     A
C314   Cl340   1.781   .     S
C315   C319    1.395   .     A
C315   Cl337   1.773   .     S
C315   C326    1.405   .     A
C316   C320    1.395   .     A
C316   Cl341   1.773   .     S
C316   C327    1.405   .     A
C317   C321    1.396   .     A
C317   Cl342   1.773   .     S
C317   C327    1.406   .     A
C318   C323    1.396   .     A
C318   C326    1.406   .     A
C318   Cl343   1.773   .     S
C319   C324    1.420   .     A
C319   Cl344   1.773   .     S
C320   C325    1.420   .     A
C320   Cl345   1.773   .     S
C321   Cl346   1.769   .     S
C321   C325    1.418   .     A
C322   O364    1.290   .     A
C322   O365    1.288   .     A
C322   C328    1.443   .     S
C323   C324    1.418   .     A
C323   Cl347   1.769   .     S
C324   C330    1.471   .     S
C325   C331    1.471   .     S
C326   C885    1.492   1_554 S
C327   C884    1.492   .     S
C329   C336    1.411   .     A
C330   O370    1.297   .     A
C330   O367    1.293   .     A
C331   O368    1.293   .     A
C331   O369    1.297   .     A
C332   N359    1.431   .     S
C332   N358    1.356   .     A
C333   N357    1.356   .     A
C333   N360    1.431   .     S
C333   C520    1.418   .     S
C334   N361    1.432   .     S
C334   N358    1.385   .     A
C335   N357    1.385   .     A
C335   N362    1.432   .     S
C335   C518    1.418   .     S
C336   Cl348   1.771   .     S
H349   N359    1.046   .     S
H350   N359    1.045   .     S
H351   N360    1.046   .     S
H352   N360    1.045   .     S
H353   N361    1.031   .     S
H354   N361    1.044   .     S
H355   N362    1.031   .     S
H356   N362    1.044   .     S
N357   Zn371   2.010   .     S
N358   Zn372   2.010   .     S
O363   Zn371   2.003   .     S
O364   Zn372   2.003   .     S
O365   Zn371   2.035   .     S
O366   Zn372   2.035   .     S
O367   Zn371   1.961   .     S
O368   Zn372   1.961   .     S
O369   Zn371   1.977   .     S
O370   Zn372   1.977   .     S
C373   O428    1.288   .     A
C373   O425    1.290   .     A
C373   C391    1.443   .     S
C374   C390    1.411   .     A
C374   Cl400   1.771   .     S
C374   C438    1.380   .     S
C375   C390    1.409   .     A
C375   Cl401   1.781   .     S
C375   C460    1.380   .     S
C376   C391    1.409   .     A
C376   Cl402   1.781   .     S
C376   C498    1.380   1_455 S
C377   C381    1.395   .     A
C377   Cl399   1.773   .     S
C377   C388    1.405   .     A
C378   C382    1.395   .     A
C378   Cl403   1.773   .     S
C378   C389    1.405   .     A
C379   C383    1.396   .     A
C379   Cl404   1.773   .     S
C379   C389    1.406   .     A
C380   C385    1.396   .     A
C380   C388    1.406   .     A
C380   Cl405   1.773   .     S
C381   C386    1.420   .     A
C381   Cl406   1.773   .     S
C382   C387    1.420   .     A
C382   Cl407   1.773   .     S
C383   Cl408   1.769   .     S
C383   C387    1.418   .     A
C384   O426    1.290   .     A
C384   O427    1.288   .     A
C384   C390    1.443   .     S
C385   C386    1.418   .     A
C385   Cl409   1.769   .     S
C386   C392    1.471   .     S
C387   C393    1.471   .     S
C388   C947    1.492   1_554 S
C389   C946    1.492   .     S
C391   C398    1.411   .     A
C392   O432    1.297   .     A
C392   O429    1.293   .     A
C393   O430    1.293   .     A
C393   O431    1.297   .     A
C394   N421    1.431   .     S
C394   N420    1.356   .     A
C395   N419    1.356   .     A
C395   N422    1.431   .     S
C395   C24     1.418   1_565 S
C396   N423    1.432   .     S
C396   N420    1.385   .     A
C397   N419    1.385   .     A
C397   N424    1.432   .     S
C397   C22     1.418   1_565 S
C398   Cl410   1.771   .     S
C398   C499    1.380   1_455 S
H411   N421    1.046   .     S
H412   N421    1.045   .     S
H413   N422    1.046   .     S
H414   N422    1.045   .     S
H415   N423    1.031   .     S
H416   N423    1.044   .     S
H417   N424    1.031   .     S
H418   N424    1.044   .     S
N419   Zn433   2.010   .     S
N420   Zn434   2.010   .     S
O425   Zn433   2.003   .     S
O426   Zn434   2.003   .     S
O427   Zn433   2.035   .     S
O428   Zn434   2.035   .     S
O429   Zn433   1.961   .     S
O430   Zn434   1.961   .     S
O431   Zn433   1.977   .     S
O432   Zn434   1.977   .     S
C435   O490    1.288   .     A
C435   O487    1.290   .     A
C435   C453    1.443   .     S
C436   C452    1.411   .     A
C436   Cl462   1.771   .     S
C436   C500    1.380   .     S
C437   C452    1.409   .     A
C437   Cl463   1.781   .     S
C437   C522    1.380   .     S
C438   C453    1.409   .     A
C438   Cl464   1.781   .     S
C439   C443    1.395   .     A
C439   Cl461   1.773   .     S
C439   C450    1.405   .     A
C440   C444    1.395   .     A
C440   Cl465   1.773   .     S
C440   C451    1.405   .     A
C441   C445    1.396   .     A
C441   Cl466   1.773   .     S
C441   C451    1.406   .     A
C442   C447    1.396   .     A
C442   C450    1.406   .     A
C442   Cl467   1.773   .     S
C443   C448    1.420   .     A
C443   Cl468   1.773   .     S
C444   C449    1.420   .     A
C444   Cl469   1.773   .     S
C445   Cl470   1.769   .     S
C445   C449    1.418   .     A
C446   O488    1.290   .     A
C446   O489    1.288   .     A
C446   C452    1.443   .     S
C447   C448    1.418   .     A
C447   Cl471   1.769   .     S
C448   C454    1.471   .     S
C449   C455    1.471   .     S
C450   C1009   1.492   1_554 S
C451   C1008   1.492   .     S
C453   C460    1.411   .     A
C454   O494    1.297   .     A
C454   O491    1.293   .     A
C455   O492    1.293   .     A
C455   O493    1.297   .     A
C456   N483    1.431   .     S
C456   N482    1.356   .     A
C457   N481    1.356   .     A
C457   N484    1.431   .     S
C457   C86     1.418   1_565 S
C458   N485    1.432   .     S
C458   N482    1.385   .     A
C459   N481    1.385   .     A
C459   N486    1.432   .     S
C459   C84     1.418   1_565 S
C460   Cl472   1.771   .     S
H473   N483    1.046   .     S
H474   N483    1.045   .     S
H475   N484    1.046   .     S
H476   N484    1.045   .     S
H477   N485    1.031   .     S
H478   N485    1.044   .     S
H479   N486    1.031   .     S
H480   N486    1.044   .     S
N481   Zn495   2.010   .     S
N482   Zn496   2.010   .     S
O487   Zn495   2.003   .     S
O488   Zn496   2.003   .     S
O489   Zn495   2.035   .     S
O490   Zn496   2.035   .     S
O491   Zn495   1.961   .     S
O492   Zn496   1.961   .     S
O493   Zn495   1.977   .     S
O494   Zn496   1.977   .     S
C497   O552    1.288   .     A
C497   O549    1.290   .     A
C497   C515    1.443   .     S
C498   C514    1.411   .     A
C498   Cl524   1.771   .     S
C498   C376    1.380   1_655 S
C499   C514    1.409   .     A
C499   Cl525   1.781   .     S
C499   C398    1.380   1_655 S
C500   C515    1.409   .     A
C500   Cl526   1.781   .     S
C501   C505    1.395   .     A
C501   Cl523   1.773   .     S
C501   C512    1.405   .     A
C502   C506    1.395   .     A
C502   Cl527   1.773   .     S
C502   C513    1.405   .     A
C503   C507    1.396   .     A
C503   Cl528   1.773   .     S
C503   C513    1.406   .     A
C504   C509    1.396   .     A
C504   C512    1.406   .     A
C504   Cl529   1.773   .     S
C505   C510    1.420   .     A
C505   Cl530   1.773   .     S
C506   C511    1.420   .     A
C506   Cl531   1.773   .     S
C507   Cl532   1.769   .     S
C507   C511    1.418   .     A
C508   O550    1.290   .     A
C508   O551    1.288   .     A
C508   C514    1.443   .     S
C509   C510    1.418   .     A
C509   Cl533   1.769   .     S
C510   C516    1.471   .     S
C511   C517    1.471   .     S
C512   C1071   1.492   1_554 S
C513   C1070   1.492   .     S
C515   C522    1.411   .     A
C516   O556    1.297   .     A
C516   O553    1.293   .     A
C517   O554    1.293   .     A
C517   O555    1.297   .     A
C518   N545    1.431   .     S
C518   N544    1.356   .     A
C519   N543    1.356   .     A
C519   N546    1.431   .     S
C519   C148    1.418   1_565 S
C520   N547    1.432   .     S
C520   N544    1.385   .     A
C521   N543    1.385   .     A
C521   N548    1.432   .     S
C521   C146    1.418   1_565 S
C522   Cl534   1.771   .     S
H535   N545    1.046   .     S
H536   N545    1.045   .     S
H537   N546    1.046   .     S
H538   N546    1.045   .     S
H539   N547    1.031   .     S
H540   N547    1.044   .     S
H541   N548    1.031   .     S
H542   N548    1.044   .     S
N543   Zn557   2.010   .     S
N544   Zn558   2.010   .     S
O549   Zn557   2.003   .     S
O550   Zn558   2.003   .     S
O551   Zn557   2.035   .     S
O552   Zn558   2.035   .     S
O553   Zn557   1.961   .     S
O554   Zn558   1.961   .     S
O555   Zn557   1.977   .     S
O556   Zn558   1.977   .     S
C559   O614    1.288   .     A
C559   O611    1.290   .     A
C559   C577    1.443   .     S
C560   C576    1.411   .     A
C560   Cl586   1.771   .     S
C560   C624    1.380   .     S
C561   C576    1.409   .     A
C561   Cl587   1.781   .     S
C561   C646    1.380   .     S
C562   C577    1.409   .     A
C562   Cl588   1.781   .     S
C562   C684    1.380   1_455 S
C563   C567    1.395   .     A
C563   Cl585   1.773   .     S
C563   C574    1.405   .     A
C564   C568    1.395   .     A
C564   Cl589   1.773   .     S
C564   C575    1.405   .     A
C565   C569    1.396   .     A
C565   Cl590   1.773   .     S
C565   C575    1.406   .     A
C566   C571    1.396   .     A
C566   C574    1.406   .     A
C566   Cl591   1.773   .     S
C567   C572    1.420   .     A
C567   Cl592   1.773   .     S
C568   C573    1.420   .     A
C568   Cl593   1.773   .     S
C569   Cl594   1.769   .     S
C569   C573    1.418   .     A
C570   O612    1.290   .     A
C570   O613    1.288   .     A
C570   C576    1.443   .     S
C571   C572    1.418   .     A
C571   Cl595   1.769   .     S
C572   C578    1.471   .     S
C573   C579    1.471   .     S
C575   C16     1.492   1_556 S
C577   C584    1.411   .     A
C578   O618    1.297   .     A
C578   O615    1.293   .     A
C579   O616    1.293   .     A
C579   O617    1.297   .     A
C580   N607    1.431   .     S
C580   N606    1.356   .     A
C580   C955    1.418   1_545 S
C581   N605    1.356   .     A
C581   N608    1.431   .     S
C581   C768    1.418   .     S
C582   N609    1.432   .     S
C582   N606    1.385   .     A
C582   C953    1.418   1_545 S
C583   N605    1.385   .     A
C583   N610    1.432   .     S
C583   C766    1.418   .     S
C584   Cl596   1.771   .     S
C584   C685    1.380   1_455 S
H597   N607    1.046   .     S
H598   N607    1.045   .     S
H599   N608    1.046   .     S
H600   N608    1.045   .     S
H601   N609    1.031   .     S
H602   N609    1.044   .     S
H603   N610    1.031   .     S
H604   N610    1.044   .     S
N605   Zn619   2.010   .     S
N606   Zn620   2.010   .     S
O611   Zn619   2.003   .     S
O612   Zn620   2.003   .     S
O613   Zn619   2.035   .     S
O614   Zn620   2.035   .     S
O615   Zn619   1.961   .     S
O616   Zn620   1.961   .     S
O617   Zn619   1.977   .     S
O618   Zn620   1.977   .     S
C621   O676    1.288   .     A
C621   O673    1.290   .     A
C621   C639    1.443   .     S
C622   C638    1.411   .     A
C622   Cl648   1.771   .     S
C622   C686    1.380   .     S
C623   C638    1.409   .     A
C623   Cl649   1.781   .     S
C623   C708    1.380   .     S
C624   C639    1.409   .     A
C624   Cl650   1.781   .     S
C625   C629    1.395   .     A
C625   Cl647   1.773   .     S
C625   C636    1.405   .     A
C626   C630    1.395   .     A
C626   Cl651   1.773   .     S
C626   C637    1.405   .     A
C627   C631    1.396   .     A
C627   Cl652   1.773   .     S
C627   C637    1.406   .     A
C628   C633    1.396   .     A
C628   C636    1.406   .     A
C628   Cl653   1.773   .     S
C629   C634    1.420   .     A
C629   Cl654   1.773   .     S
C630   C635    1.420   .     A
C630   Cl655   1.773   .     S
C631   Cl656   1.769   .     S
C631   C635    1.418   .     A
C632   O674    1.290   .     A
C632   O675    1.288   .     A
C632   C638    1.443   .     S
C633   C634    1.418   .     A
C633   Cl657   1.769   .     S
C634   C640    1.471   .     S
C635   C641    1.471   .     S
C637   C78     1.492   1_556 S
C639   C646    1.411   .     A
C640   O680    1.297   .     A
C640   O677    1.293   .     A
C641   O678    1.293   .     A
C641   O679    1.297   .     A
C642   N669    1.431   .     S
C642   N668    1.356   .     A
C642   C1017   1.418   1_545 S
C643   N667    1.356   .     A
C643   N670    1.431   .     S
C643   C830    1.418   .     S
C644   N671    1.432   .     S
C644   N668    1.385   .     A
C644   C1015   1.418   1_545 S
C645   N667    1.385   .     A
C645   N672    1.432   .     S
C645   C828    1.418   .     S
C646   Cl658   1.771   .     S
H659   N669    1.046   .     S
H660   N669    1.045   .     S
H661   N670    1.046   .     S
H662   N670    1.045   .     S
H663   N671    1.031   .     S
H664   N671    1.044   .     S
H665   N672    1.031   .     S
H666   N672    1.044   .     S
N667   Zn681   2.010   .     S
N668   Zn682   2.010   .     S
O673   Zn681   2.003   .     S
O674   Zn682   2.003   .     S
O675   Zn681   2.035   .     S
O676   Zn682   2.035   .     S
O677   Zn681   1.961   .     S
O678   Zn682   1.961   .     S
O679   Zn681   1.977   .     S
O680   Zn682   1.977   .     S
C683   O738    1.288   .     A
C683   O735    1.290   .     A
C683   C701    1.443   .     S
C684   C700    1.411   .     A
C684   Cl710   1.771   .     S
C684   C562    1.380   1_655 S
C685   C700    1.409   .     A
C685   Cl711   1.781   .     S
C685   C584    1.380   1_655 S
C686   C701    1.409   .     A
C686   Cl712   1.781   .     S
C687   C691    1.395   .     A
C687   Cl709   1.773   .     S
C687   C698    1.405   .     A
C688   C692    1.395   .     A
C688   Cl713   1.773   .     S
C688   C699    1.405   .     A
C689   C693    1.396   .     A
C689   Cl714   1.773   .     S
C689   C699    1.406   .     A
C690   C695    1.396   .     A
C690   C698    1.406   .     A
C690   Cl715   1.773   .     S
C691   C696    1.420   .     A
C691   Cl716   1.773   .     S
C692   C697    1.420   .     A
C692   Cl717   1.773   .     S
C693   Cl718   1.769   .     S
C693   C697    1.418   .     A
C694   O736    1.290   .     A
C694   O737    1.288   .     A
C694   C700    1.443   .     S
C695   C696    1.418   .     A
C695   Cl719   1.769   .     S
C696   C702    1.471   .     S
C697   C703    1.471   .     S
C699   C140    1.492   1_556 S
C701   C708    1.411   .     A
C702   O742    1.297   .     A
C702   O739    1.293   .     A
C703   O740    1.293   .     A
C703   O741    1.297   .     A
C704   N731    1.431   .     S
C704   N730    1.356   .     A
C704   C1079   1.418   1_545 S
C705   N729    1.356   .     A
C705   N732    1.431   .     S
C705   C892    1.418   .     S
C706   N733    1.432   .     S
C706   N730    1.385   .     A
C706   C1077   1.418   1_545 S
C707   N729    1.385   .     A
C707   N734    1.432   .     S
C707   C890    1.418   .     S
C708   Cl720   1.771   .     S
H721   N731    1.046   .     S
H722   N731    1.045   .     S
H723   N732    1.046   .     S
H724   N732    1.045   .     S
H725   N733    1.031   .     S
H726   N733    1.044   .     S
H727   N734    1.031   .     S
H728   N734    1.044   .     S
N729   Zn743   2.010   .     S
N730   Zn744   2.010   .     S
O735   Zn743   2.003   .     S
O736   Zn744   2.003   .     S
O737   Zn743   2.035   .     S
O738   Zn744   2.035   .     S
O739   Zn743   1.961   .     S
O740   Zn744   1.961   .     S
O741   Zn743   1.977   .     S
O742   Zn744   1.977   .     S
C745   O800    1.288   .     A
C745   O797    1.290   .     A
C745   C763    1.443   .     S
C746   C762    1.411   .     A
C746   Cl772   1.771   .     S
C746   C810    1.380   .     S
C747   C762    1.409   .     A
C747   Cl773   1.781   .     S
C747   C832    1.380   .     S
C748   C763    1.409   .     A
C748   Cl774   1.781   .     S
C748   C870    1.380   1_455 S
C749   C753    1.395   .     A
C749   Cl771   1.773   .     S
C749   C760    1.405   .     A
C750   C754    1.395   .     A
C750   Cl775   1.773   .     S
C750   C761    1.405   .     A
C751   C755    1.396   .     A
C751   Cl776   1.773   .     S
C751   C761    1.406   .     A
C752   C757    1.396   .     A
C752   C760    1.406   .     A
C752   Cl777   1.773   .     S
C753   C758    1.420   .     A
C753   Cl778   1.773   .     S
C754   C759    1.420   .     A
C754   Cl779   1.773   .     S
C755   Cl780   1.769   .     S
C755   C759    1.418   .     A
C756   O798    1.290   .     A
C756   O799    1.288   .     A
C756   C762    1.443   .     S
C757   C758    1.418   .     A
C757   Cl781   1.769   .     S
C758   C764    1.471   .     S
C759   C765    1.471   .     S
C761   C202    1.492   1_556 S
C763   C770    1.411   .     A
C764   O804    1.297   .     A
C764   O801    1.293   .     A
C765   O802    1.293   .     A
C765   O803    1.297   .     A
C766   N793    1.431   .     S
C766   N792    1.356   .     A
C767   N791    1.356   .     A
C767   N794    1.431   .     S
C767   C954    1.418   .     S
C768   N795    1.432   .     S
C768   N792    1.385   .     A
C769   N791    1.385   .     A
C769   N796    1.432   .     S
C769   C952    1.418   .     S
C770   Cl782   1.771   .     S
C770   C871    1.380   1_455 S
H783   N793    1.046   .     S
H784   N793    1.045   .     S
H785   N794    1.046   .     S
H786   N794    1.045   .     S
H787   N795    1.031   .     S
H788   N795    1.044   .     S
H789   N796    1.031   .     S
H790   N796    1.044   .     S
N791   Zn805   2.010   .     S
N792   Zn806   2.010   .     S
O797   Zn805   2.003   .     S
O798   Zn806   2.003   .     S
O799   Zn805   2.035   .     S
O800   Zn806   2.035   .     S
O801   Zn805   1.961   .     S
O802   Zn806   1.961   .     S
O803   Zn805   1.977   .     S
O804   Zn806   1.977   .     S
C807   O862    1.288   .     A
C807   O859    1.290   .     A
C807   C825    1.443   .     S
C808   C824    1.411   .     A
C808   Cl834   1.771   .     S
C808   C872    1.380   .     S
C809   C824    1.409   .     A
C809   Cl835   1.781   .     S
C809   C894    1.380   .     S
C810   C825    1.409   .     A
C810   Cl836   1.781   .     S
C811   C815    1.395   .     A
C811   Cl833   1.773   .     S
C811   C822    1.405   .     A
C812   C816    1.395   .     A
C812   Cl837   1.773   .     S
C812   C823    1.405   .     A
C813   C817    1.396   .     A
C813   Cl838   1.773   .     S
C813   C823    1.406   .     A
C814   C819    1.396   .     A
C814   C822    1.406   .     A
C814   Cl839   1.773   .     S
C815   C820    1.420   .     A
C815   Cl840   1.773   .     S
C816   C821    1.420   .     A
C816   Cl841   1.773   .     S
C817   Cl842   1.769   .     S
C817   C821    1.418   .     A
C818   O860    1.290   .     A
C818   O861    1.288   .     A
C818   C824    1.443   .     S
C819   C820    1.418   .     A
C819   Cl843   1.769   .     S
C820   C826    1.471   .     S
C821   C827    1.471   .     S
C823   C264    1.492   1_556 S
C825   C832    1.411   .     A
C826   O866    1.297   .     A
C826   O863    1.293   .     A
C827   O864    1.293   .     A
C827   O865    1.297   .     A
C828   N855    1.431   .     S
C828   N854    1.356   .     A
C829   N853    1.356   .     A
C829   N856    1.431   .     S
C829   C1016   1.418   .     S
C830   N857    1.432   .     S
C830   N854    1.385   .     A
C831   N853    1.385   .     A
C831   N858    1.432   .     S
C831   C1014   1.418   .     S
C832   Cl844   1.771   .     S
H845   N855    1.046   .     S
H846   N855    1.045   .     S
H847   N856    1.046   .     S
H848   N856    1.045   .     S
H849   N857    1.031   .     S
H850   N857    1.044   .     S
H851   N858    1.031   .     S
H852   N858    1.044   .     S
N853   Zn867   2.010   .     S
N854   Zn868   2.010   .     S
O859   Zn867   2.003   .     S
O860   Zn868   2.003   .     S
O861   Zn867   2.035   .     S
O862   Zn868   2.035   .     S
O863   Zn867   1.961   .     S
O864   Zn868   1.961   .     S
O865   Zn867   1.977   .     S
O866   Zn868   1.977   .     S
C869   O924    1.288   .     A
C869   O921    1.290   .     A
C869   C887    1.443   .     S
C870   C886    1.411   .     A
C870   Cl896   1.771   .     S
C870   C748    1.380   1_655 S
C871   C886    1.409   .     A
C871   Cl897   1.781   .     S
C871   C770    1.380   1_655 S
C872   C887    1.409   .     A
C872   Cl898   1.781   .     S
C873   C877    1.395   .     A
C873   Cl895   1.773   .     S
C873   C884    1.405   .     A
C874   C878    1.395   .     A
C874   Cl899   1.773   .     S
C874   C885    1.405   .     A
C875   C879    1.396   .     A
C875   Cl900   1.773   .     S
C875   C885    1.406   .     A
C876   C881    1.396   .     A
C876   C884    1.406   .     A
C876   Cl901   1.773   .     S
C877   C882    1.420   .     A
C877   Cl902   1.773   .     S
C878   C883    1.420   .     A
C878   Cl903   1.773   .     S
C879   Cl904   1.769   .     S
C879   C883    1.418   .     A
C880   O922    1.290   .     A
C880   O923    1.288   .     A
C880   C886    1.443   .     S
C881   C882    1.418   .     A
C881   Cl905   1.769   .     S
C882   C888    1.471   .     S
C883   C889    1.471   .     S
C885   C326    1.492   1_556 S
C887   C894    1.411   .     A
C888   O928    1.297   .     A
C888   O925    1.293   .     A
C889   O926    1.293   .     A
C889   O927    1.297   .     A
C890   N917    1.431   .     S
C890   N916    1.356   .     A
C891   N915    1.356   .     A
C891   N918    1.431   .     S
C891   C1078   1.418   .     S
C892   N919    1.432   .     S
C892   N916    1.385   .     A
C893   N915    1.385   .     A
C893   N920    1.432   .     S
C893   C1076   1.418   .     S
C894   Cl906   1.771   .     S
H907   N917    1.046   .     S
H908   N917    1.045   .     S
H909   N918    1.046   .     S
H910   N918    1.045   .     S
H911   N919    1.031   .     S
H912   N919    1.044   .     S
H913   N920    1.031   .     S
H914   N920    1.044   .     S
N915   Zn929   2.010   .     S
N916   Zn930   2.010   .     S
O921   Zn929   2.003   .     S
O922   Zn930   2.003   .     S
O923   Zn929   2.035   .     S
O924   Zn930   2.035   .     S
O925   Zn929   1.961   .     S
O926   Zn930   1.961   .     S
O927   Zn929   1.977   .     S
O928   Zn930   1.977   .     S
C931   O986    1.288   .     A
C931   O983    1.290   .     A
C931   C949    1.443   .     S
C932   C948    1.411   .     A
C932   Cl958   1.771   .     S
C932   C996    1.380   .     S
C933   C948    1.409   .     A
C933   Cl959   1.781   .     S
C933   C1018   1.380   .     S
C934   C949    1.409   .     A
C934   Cl960   1.781   .     S
C934   C1056   1.380   1_455 S
C935   C939    1.395   .     A
C935   Cl957   1.773   .     S
C935   C946    1.405   .     A
C936   C940    1.395   .     A
C936   Cl961   1.773   .     S
C936   C947    1.405   .     A
C937   C941    1.396   .     A
C937   Cl962   1.773   .     S
C937   C947    1.406   .     A
C938   C943    1.396   .     A
C938   C946    1.406   .     A
C938   Cl963   1.773   .     S
C939   C944    1.420   .     A
C939   Cl964   1.773   .     S
C940   C945    1.420   .     A
C940   Cl965   1.773   .     S
C941   Cl966   1.769   .     S
C941   C945    1.418   .     A
C942   O984    1.290   .     A
C942   O985    1.288   .     A
C942   C948    1.443   .     S
C943   C944    1.418   .     A
C943   Cl967   1.769   .     S
C944   C950    1.471   .     S
C945   C951    1.471   .     S
C947   C388    1.492   1_556 S
C949   C956    1.411   .     A
C950   O990    1.297   .     A
C950   O987    1.293   .     A
C951   O988    1.293   .     A
C951   O989    1.297   .     A
C952   N979    1.431   .     S
C952   N978    1.356   .     A
C953   N977    1.356   .     A
C953   N980    1.431   .     S
C953   C582    1.418   1_565 S
C954   N981    1.432   .     S
C954   N978    1.385   .     A
C955   N977    1.385   .     A
C955   N982    1.432   .     S
C955   C580    1.418   1_565 S
C956   Cl968   1.771   .     S
C956   C1057   1.380   1_455 S
H969   N979    1.046   .     S
H970   N979    1.045   .     S
H971   N980    1.046   .     S
H972   N980    1.045   .     S
H973   N981    1.031   .     S
H974   N981    1.044   .     S
H975   N982    1.031   .     S
H976   N982    1.044   .     S
N977   Zn991   2.010   .     S
N978   Zn992   2.010   .     S
O983   Zn991   2.003   .     S
O984   Zn992   2.003   .     S
O985   Zn991   2.035   .     S
O986   Zn992   2.035   .     S
O987   Zn991   1.961   .     S
O988   Zn992   1.961   .     S
O989   Zn991   1.977   .     S
O990   Zn992   1.977   .     S
C993   O1048   1.288   .     A
C993   O1045   1.290   .     A
C993   C1011   1.443   .     S
C994   C1010   1.411   .     A
C994   Cl1020  1.771   .     S
C994   C1058   1.380   .     S
C995   C1010   1.409   .     A
C995   Cl1021  1.781   .     S
C995   C1080   1.380   .     S
C996   C1011   1.409   .     A
C996   Cl1022  1.781   .     S
C997   C1001   1.395   .     A
C997   Cl1019  1.773   .     S
C997   C1008   1.405   .     A
C998   C1002   1.395   .     A
C998   Cl1023  1.773   .     S
C998   C1009   1.405   .     A
C999   C1003   1.396   .     A
C999   Cl1024  1.773   .     S
C999   C1009   1.406   .     A
C1000  C1005   1.396   .     A
C1000  C1008   1.406   .     A
C1000  Cl1025  1.773   .     S
C1001  C1006   1.420   .     A
C1001  Cl1026  1.773   .     S
C1002  C1007   1.420   .     A
C1002  Cl1027  1.773   .     S
C1003  Cl1028  1.769   .     S
C1003  C1007   1.418   .     A
C1004  O1046   1.290   .     A
C1004  O1047   1.288   .     A
C1004  C1010   1.443   .     S
C1005  C1006   1.418   .     A
C1005  Cl1029  1.769   .     S
C1006  C1012   1.471   .     S
C1007  C1013   1.471   .     S
C1009  C450    1.492   1_556 S
C1011  C1018   1.411   .     A
C1012  O1052   1.297   .     A
C1012  O1049   1.293   .     A
C1013  O1050   1.293   .     A
C1013  O1051   1.297   .     A
C1014  N1041   1.431   .     S
C1014  N1040   1.356   .     A
C1015  N1039   1.356   .     A
C1015  N1042   1.431   .     S
C1015  C644    1.418   1_565 S
C1016  N1043   1.432   .     S
C1016  N1040   1.385   .     A
C1017  N1039   1.385   .     A
C1017  N1044   1.432   .     S
C1017  C642    1.418   1_565 S
C1018  Cl1030  1.771   .     S
H1031  N1041   1.046   .     S
H1032  N1041   1.045   .     S
H1033  N1042   1.046   .     S
H1034  N1042   1.045   .     S
H1035  N1043   1.031   .     S
H1036  N1043   1.044   .     S
H1037  N1044   1.031   .     S
H1038  N1044   1.044   .     S
N1039  Zn1053  2.010   .     S
N1040  Zn1054  2.010   .     S
O1045  Zn1053  2.003   .     S
O1046  Zn1054  2.003   .     S
O1047  Zn1053  2.035   .     S
O1048  Zn1054  2.035   .     S
O1049  Zn1053  1.961   .     S
O1050  Zn1054  1.961   .     S
O1051  Zn1053  1.977   .     S
O1052  Zn1054  1.977   .     S
C1055  O1110   1.288   .     A
C1055  O1107   1.290   .     A
C1055  C1073   1.443   .     S
C1056  C1072   1.411   .     A
C1056  Cl1082  1.771   .     S
C1056  C934    1.380   1_655 S
C1057  C1072   1.409   .     A
C1057  Cl1083  1.781   .     S
C1057  C956    1.380   1_655 S
C1058  C1073   1.409   .     A
C1058  Cl1084  1.781   .     S
C1059  C1063   1.395   .     A
C1059  Cl1081  1.773   .     S
C1059  C1070   1.405   .     A
C1060  C1064   1.395   .     A
C1060  Cl1085  1.773   .     S
C1060  C1071   1.405   .     A
C1061  C1065   1.396   .     A
C1061  Cl1086  1.773   .     S
C1061  C1071   1.406   .     A
C1062  C1067   1.396   .     A
C1062  C1070   1.406   .     A
C1062  Cl1087  1.773   .     S
C1063  C1068   1.420   .     A
C1063  Cl1088  1.773   .     S
C1064  C1069   1.420   .     A
C1064  Cl1089  1.773   .     S
C1065  Cl1090  1.769   .     S
C1065  C1069   1.418   .     A
C1066  O1108   1.290   .     A
C1066  O1109   1.288   .     A
C1066  C1072   1.443   .     S
C1067  C1068   1.418   .     A
C1067  Cl1091  1.769   .     S
C1068  C1074   1.471   .     S
C1069  C1075   1.471   .     S
C1071  C512    1.492   1_556 S
C1073  C1080   1.411   .     A
C1074  O1114   1.297   .     A
C1074  O1111   1.293   .     A
C1075  O1112   1.293   .     A
C1075  O1113   1.297   .     A
C1076  N1103   1.431   .     S
C1076  N1102   1.356   .     A
C1077  N1101   1.356   .     A
C1077  N1104   1.431   .     S
C1077  C706    1.418   1_565 S
C1078  N1105   1.432   .     S
C1078  N1102   1.385   .     A
C1079  N1101   1.385   .     A
C1079  N1106   1.432   .     S
C1079  C704    1.418   1_565 S
C1080  Cl1092  1.771   .     S
H1093  N1103   1.046   .     S
H1094  N1103   1.045   .     S
H1095  N1104   1.046   .     S
H1096  N1104   1.045   .     S
H1097  N1105   1.031   .     S
H1098  N1105   1.044   .     S
H1099  N1106   1.031   .     S
H1100  N1106   1.044   .     S
N1101  Zn1115  2.010   .     S
N1102  Zn1116  2.010   .     S
O1107  Zn1115  2.003   .     S
O1108  Zn1116  2.003   .     S
O1109  Zn1115  2.035   .     S
O1110  Zn1116  2.035   .     S
O1111  Zn1115  1.961   .     S
O1112  Zn1116  1.961   .     S
O1113  Zn1115  1.977   .     S
O1114  Zn1116  1.977   .     S
