data_str_m3_o1_o5_pcu_sym.88
_audit_creation_date              2020-01-03
_audit_creation_method            'Materials Studio'
_symmetry_space_group_name_H-M    'P1'
_symmetry_Int_Tables_number       1
_symmetry_cell_setting            triclinic
loop_
_symmetry_equiv_pos_as_xyz
  x,y,z
_cell_length_a                    31.9269
_cell_length_b                    29.6240
_cell_length_c                    26.7391
_cell_angle_alpha                 90.0410
_cell_angle_beta                  90.1344
_cell_angle_gamma                 90.2358
loop_
_atom_site_label
_atom_site_type_symbol
_atom_site_fract_x
_atom_site_fract_y
_atom_site_fract_z
_atom_site_U_iso_or_equiv
_atom_site_adp_type
_atom_site_occupancy
C1     C     0.08684   0.16657   0.16668   0.00000  Uiso   1.00
C2     C     0.02128   0.18479   0.12545   0.00000  Uiso   1.00
C3     C     0.29061   0.16719   0.16812   0.00000  Uiso   1.00
C4     C     0.04272   0.16636   0.16688   0.00000  Uiso   1.00
C5     C     0.19365   0.02408   0.19656   0.00000  Uiso   1.00
C6     C     0.13968   0.30925   0.13677   0.00000  Uiso   1.00
C7     C     0.13968   0.02380   0.13678   0.00000  Uiso   1.00
C8     C     0.19365   0.30953   0.19656   0.00000  Uiso   1.00
C9     C     0.24649   0.16678   0.16711   0.00000  Uiso   1.00
C10    C     0.16669   0.16666   0.07290   0.00000  Uiso   1.00
C11    C     0.16668   0.16668   0.26043   0.00000  Uiso   1.00
C12    C     0.16668   0.16665   0.02180   0.00000  Uiso   1.00
C13    C     0.16668   0.16668   0.31154   0.00000  Uiso   1.00
C14    C     0.02173   0.14838   0.20883   0.00000  Uiso   1.00
C15    C     0.31113   0.18597   0.12686   0.00000  Uiso   1.00
C16    C     0.31196   0.14844   0.20923   0.00000  Uiso   1.00
H17    H     0.21527   0.04227   0.22050   0.00000  Uiso   1.00
H18    H     0.11807   0.29107   0.11283   0.00000  Uiso   1.00
H19    H     0.11807   0.04176   0.11283   0.00000  Uiso   1.00
H20    H     0.21526   0.29157   0.22050   0.00000  Uiso   1.00
H21    H     0.07148   0.14127   0.25148   0.00000  Uiso   1.00
H22    H     0.30586   0.21635   0.06186   0.00000  Uiso   1.00
H23    H     0.26247   0.14041   0.25184   0.00000  Uiso   1.00
H24    H     0.07027   0.18927   0.08134   0.00000  Uiso   1.00
N25    N     0.16667   0.28573   0.16667   0.00000  Uiso   1.00
N26    N     0.16667   0.04760   0.16667   0.00000  Uiso   1.00
O27    O     0.10559   0.20487   0.16666   0.00000  Uiso   1.00
O28    O     0.28743   0.20345   0.08794   0.00000  Uiso   1.00
O29    O     0.29216   0.13113   0.25114   0.00000  Uiso   1.00
O30    O     0.04147   0.20126   0.08336   0.00000  Uiso   1.00
O31    O     0.22774   0.12846   0.16667   0.00000  Uiso   1.00
O32    O     0.22774   0.20487   0.16667   0.00000  Uiso   1.00
O33    O     0.10559   0.12846   0.16666   0.00000  Uiso   1.00
O34    O     0.16667   0.20488   0.09511   0.00000  Uiso   1.00
O35    O     0.16666   0.12845   0.23822   0.00000  Uiso   1.00
O36    O     0.16666   0.20488   0.23822   0.00000  Uiso   1.00
O37    O     0.16667   0.12845   0.09511   0.00000  Uiso   1.00
O38    O     0.04190   0.13134   0.25066   0.00000  Uiso   1.00
Zn39   Zn    0.16667   0.21771   0.16667   0.00000  Uiso   1.00
Zn40   Zn    0.16667   0.11563   0.16667   0.00000  Uiso   1.00
C41    C     0.42018   0.16657   0.16668   0.00000  Uiso   1.00
C42    C     0.35462   0.18479   0.12545   0.00000  Uiso   1.00
C43    C     0.62394   0.16719   0.16812   0.00000  Uiso   1.00
C44    C     0.37606   0.16636   0.16688   0.00000  Uiso   1.00
C45    C     0.52699   0.02408   0.19656   0.00000  Uiso   1.00
C46    C     0.47301   0.30925   0.13677   0.00000  Uiso   1.00
C47    C     0.47301   0.02380   0.13678   0.00000  Uiso   1.00
C48    C     0.52699   0.30953   0.19656   0.00000  Uiso   1.00
C49    C     0.57983   0.16678   0.16711   0.00000  Uiso   1.00
C50    C     0.50002   0.16666   0.07290   0.00000  Uiso   1.00
C51    C     0.50002   0.16668   0.26043   0.00000  Uiso   1.00
C52    C     0.50001   0.16665   0.02180   0.00000  Uiso   1.00
C53    C     0.50001   0.16668   0.31154   0.00000  Uiso   1.00
C54    C     0.35506   0.14838   0.20883   0.00000  Uiso   1.00
C55    C     0.64446   0.18597   0.12686   0.00000  Uiso   1.00
C56    C     0.64529   0.14844   0.20923   0.00000  Uiso   1.00
H57    H     0.54860   0.04227   0.22050   0.00000  Uiso   1.00
H58    H     0.45140   0.29107   0.11283   0.00000  Uiso   1.00
H59    H     0.45140   0.04176   0.11283   0.00000  Uiso   1.00
H60    H     0.54860   0.29157   0.22050   0.00000  Uiso   1.00
H61    H     0.40481   0.14127   0.25148   0.00000  Uiso   1.00
H62    H     0.63919   0.21635   0.06186   0.00000  Uiso   1.00
H63    H     0.59580   0.14041   0.25184   0.00000  Uiso   1.00
H64    H     0.40360   0.18927   0.08134   0.00000  Uiso   1.00
N65    N     0.50000   0.28573   0.16667   0.00000  Uiso   1.00
N66    N     0.50000   0.04760   0.16667   0.00000  Uiso   1.00
O67    O     0.43892   0.20487   0.16666   0.00000  Uiso   1.00
O68    O     0.62076   0.20345   0.08794   0.00000  Uiso   1.00
O69    O     0.62549   0.13113   0.25114   0.00000  Uiso   1.00
O70    O     0.37481   0.20126   0.08336   0.00000  Uiso   1.00
O71    O     0.56108   0.12846   0.16667   0.00000  Uiso   1.00
O72    O     0.56108   0.20487   0.16667   0.00000  Uiso   1.00
O73    O     0.43892   0.12846   0.16666   0.00000  Uiso   1.00
O74    O     0.50000   0.20488   0.09511   0.00000  Uiso   1.00
O75    O     0.50000   0.12845   0.23822   0.00000  Uiso   1.00
O76    O     0.50000   0.20488   0.23822   0.00000  Uiso   1.00
O77    O     0.50000   0.12845   0.09511   0.00000  Uiso   1.00
O78    O     0.37523   0.13134   0.25066   0.00000  Uiso   1.00
Zn79   Zn    0.50000   0.21771   0.16667   0.00000  Uiso   1.00
Zn80   Zn    0.50000   0.11563   0.16667   0.00000  Uiso   1.00
C81    C     0.75351   0.16657   0.16668   0.00000  Uiso   1.00
C82    C     0.68795   0.18479   0.12545   0.00000  Uiso   1.00
C83    C     0.95728   0.16719   0.16812   0.00000  Uiso   1.00
C84    C     0.70939   0.16636   0.16688   0.00000  Uiso   1.00
C85    C     0.86032   0.02408   0.19656   0.00000  Uiso   1.00
C86    C     0.80634   0.30925   0.13677   0.00000  Uiso   1.00
C87    C     0.80635   0.02380   0.13678   0.00000  Uiso   1.00
C88    C     0.86032   0.30953   0.19656   0.00000  Uiso   1.00
C89    C     0.91316   0.16678   0.16711   0.00000  Uiso   1.00
C90    C     0.83335   0.16666   0.07290   0.00000  Uiso   1.00
C91    C     0.83335   0.16668   0.26043   0.00000  Uiso   1.00
C92    C     0.83334   0.16665   0.02180   0.00000  Uiso   1.00
C93    C     0.83334   0.16668   0.31154   0.00000  Uiso   1.00
C94    C     0.68839   0.14838   0.20883   0.00000  Uiso   1.00
C95    C     0.97779   0.18597   0.12686   0.00000  Uiso   1.00
C96    C     0.97863   0.14844   0.20923   0.00000  Uiso   1.00
H97    H     0.88193   0.04227   0.22050   0.00000  Uiso   1.00
H98    H     0.78473   0.29107   0.11283   0.00000  Uiso   1.00
H99    H     0.78474   0.04176   0.11283   0.00000  Uiso   1.00
H100   H     0.88193   0.29157   0.22050   0.00000  Uiso   1.00
H101   H     0.73814   0.14127   0.25148   0.00000  Uiso   1.00
H102   H     0.97252   0.21635   0.06186   0.00000  Uiso   1.00
H103   H     0.92913   0.14041   0.25184   0.00000  Uiso   1.00
H104   H     0.73693   0.18927   0.08134   0.00000  Uiso   1.00
N105   N     0.83333   0.28573   0.16667   0.00000  Uiso   1.00
N106   N     0.83333   0.04760   0.16667   0.00000  Uiso   1.00
O107   O     0.77226   0.20487   0.16666   0.00000  Uiso   1.00
O108   O     0.95410   0.20345   0.08794   0.00000  Uiso   1.00
O109   O     0.95883   0.13113   0.25114   0.00000  Uiso   1.00
O110   O     0.70814   0.20126   0.08336   0.00000  Uiso   1.00
O111   O     0.89441   0.12846   0.16667   0.00000  Uiso   1.00
O112   O     0.89441   0.20487   0.16667   0.00000  Uiso   1.00
O113   O     0.77226   0.12846   0.16666   0.00000  Uiso   1.00
O114   O     0.83334   0.20488   0.09511   0.00000  Uiso   1.00
O115   O     0.83333   0.12845   0.23822   0.00000  Uiso   1.00
O116   O     0.83333   0.20488   0.23822   0.00000  Uiso   1.00
O117   O     0.83334   0.12845   0.09511   0.00000  Uiso   1.00
O118   O     0.70856   0.13134   0.25066   0.00000  Uiso   1.00
Zn119  Zn    0.83333   0.21771   0.16667   0.00000  Uiso   1.00
Zn120  Zn    0.83333   0.11563   0.16667   0.00000  Uiso   1.00
C121   C     0.08684   0.49990   0.16668   0.00000  Uiso   1.00
C122   C     0.02128   0.51812   0.12545   0.00000  Uiso   1.00
C123   C     0.29061   0.50053   0.16812   0.00000  Uiso   1.00
C124   C     0.04272   0.49969   0.16688   0.00000  Uiso   1.00
C125   C     0.19365   0.35742   0.19656   0.00000  Uiso   1.00
C126   C     0.13968   0.64258   0.13677   0.00000  Uiso   1.00
C127   C     0.13968   0.35714   0.13678   0.00000  Uiso   1.00
C128   C     0.19365   0.64286   0.19656   0.00000  Uiso   1.00
C129   C     0.24649   0.50011   0.16711   0.00000  Uiso   1.00
C130   C     0.16669   0.49999   0.07290   0.00000  Uiso   1.00
C131   C     0.16668   0.50001   0.26043   0.00000  Uiso   1.00
C132   C     0.16668   0.49999   0.02180   0.00000  Uiso   1.00
C133   C     0.16668   0.50001   0.31154   0.00000  Uiso   1.00
C134   C     0.02173   0.48171   0.20883   0.00000  Uiso   1.00
C135   C     0.31113   0.51930   0.12686   0.00000  Uiso   1.00
C136   C     0.31196   0.48178   0.20923   0.00000  Uiso   1.00
H137   H     0.21527   0.37560   0.22050   0.00000  Uiso   1.00
H138   H     0.11807   0.62440   0.11283   0.00000  Uiso   1.00
H139   H     0.11807   0.37509   0.11283   0.00000  Uiso   1.00
H140   H     0.21526   0.62491   0.22050   0.00000  Uiso   1.00
H141   H     0.07148   0.47460   0.25148   0.00000  Uiso   1.00
H142   H     0.30586   0.54968   0.06186   0.00000  Uiso   1.00
H143   H     0.26247   0.47374   0.25184   0.00000  Uiso   1.00
H144   H     0.07027   0.52260   0.08134   0.00000  Uiso   1.00
N145   N     0.16667   0.61907   0.16667   0.00000  Uiso   1.00
N146   N     0.16667   0.38093   0.16667   0.00000  Uiso   1.00
O147   O     0.10559   0.53821   0.16666   0.00000  Uiso   1.00
O148   O     0.28743   0.53678   0.08794   0.00000  Uiso   1.00
O149   O     0.29216   0.46447   0.25114   0.00000  Uiso   1.00
O150   O     0.04147   0.53460   0.08336   0.00000  Uiso   1.00
O151   O     0.22774   0.46179   0.16667   0.00000  Uiso   1.00
O152   O     0.22774   0.53821   0.16667   0.00000  Uiso   1.00
O153   O     0.10559   0.46179   0.16666   0.00000  Uiso   1.00
O154   O     0.16667   0.53821   0.09511   0.00000  Uiso   1.00
O155   O     0.16666   0.46179   0.23822   0.00000  Uiso   1.00
O156   O     0.16666   0.53821   0.23822   0.00000  Uiso   1.00
O157   O     0.16667   0.46179   0.09511   0.00000  Uiso   1.00
O158   O     0.04190   0.46467   0.25066   0.00000  Uiso   1.00
Zn159  Zn    0.16667   0.55104   0.16667   0.00000  Uiso   1.00
Zn160  Zn    0.16667   0.44896   0.16667   0.00000  Uiso   1.00
C161   C     0.42018   0.49990   0.16668   0.00000  Uiso   1.00
C162   C     0.35462   0.51812   0.12545   0.00000  Uiso   1.00
C163   C     0.62394   0.50053   0.16812   0.00000  Uiso   1.00
C164   C     0.37606   0.49969   0.16688   0.00000  Uiso   1.00
C165   C     0.52699   0.35742   0.19656   0.00000  Uiso   1.00
C166   C     0.47301   0.64258   0.13677   0.00000  Uiso   1.00
C167   C     0.47301   0.35714   0.13678   0.00000  Uiso   1.00
C168   C     0.52699   0.64286   0.19656   0.00000  Uiso   1.00
C169   C     0.57983   0.50011   0.16711   0.00000  Uiso   1.00
C170   C     0.50002   0.49999   0.07290   0.00000  Uiso   1.00
C171   C     0.50002   0.50001   0.26043   0.00000  Uiso   1.00
C172   C     0.50001   0.49999   0.02180   0.00000  Uiso   1.00
C173   C     0.50001   0.50001   0.31154   0.00000  Uiso   1.00
C174   C     0.35506   0.48171   0.20883   0.00000  Uiso   1.00
C175   C     0.64446   0.51930   0.12686   0.00000  Uiso   1.00
C176   C     0.64529   0.48178   0.20923   0.00000  Uiso   1.00
H177   H     0.54860   0.37560   0.22050   0.00000  Uiso   1.00
H178   H     0.45140   0.62440   0.11283   0.00000  Uiso   1.00
H179   H     0.45140   0.37509   0.11283   0.00000  Uiso   1.00
H180   H     0.54860   0.62491   0.22050   0.00000  Uiso   1.00
H181   H     0.40481   0.47460   0.25148   0.00000  Uiso   1.00
H182   H     0.63919   0.54968   0.06186   0.00000  Uiso   1.00
H183   H     0.59580   0.47374   0.25184   0.00000  Uiso   1.00
H184   H     0.40360   0.52260   0.08134   0.00000  Uiso   1.00
N185   N     0.50000   0.61907   0.16667   0.00000  Uiso   1.00
N186   N     0.50000   0.38093   0.16667   0.00000  Uiso   1.00
O187   O     0.43892   0.53821   0.16666   0.00000  Uiso   1.00
O188   O     0.62076   0.53678   0.08794   0.00000  Uiso   1.00
O189   O     0.62549   0.46447   0.25114   0.00000  Uiso   1.00
O190   O     0.37481   0.53460   0.08336   0.00000  Uiso   1.00
O191   O     0.56108   0.46179   0.16667   0.00000  Uiso   1.00
O192   O     0.56108   0.53821   0.16667   0.00000  Uiso   1.00
O193   O     0.43892   0.46179   0.16666   0.00000  Uiso   1.00
O194   O     0.50000   0.53821   0.09511   0.00000  Uiso   1.00
O195   O     0.50000   0.46179   0.23822   0.00000  Uiso   1.00
O196   O     0.50000   0.53821   0.23822   0.00000  Uiso   1.00
O197   O     0.50000   0.46179   0.09511   0.00000  Uiso   1.00
O198   O     0.37523   0.46467   0.25066   0.00000  Uiso   1.00
Zn199  Zn    0.50000   0.55104   0.16667   0.00000  Uiso   1.00
Zn200  Zn    0.50000   0.44896   0.16667   0.00000  Uiso   1.00
C201   C     0.75351   0.49990   0.16668   0.00000  Uiso   1.00
C202   C     0.68795   0.51812   0.12545   0.00000  Uiso   1.00
C203   C     0.95728   0.50053   0.16812   0.00000  Uiso   1.00
C204   C     0.70939   0.49969   0.16688   0.00000  Uiso   1.00
C205   C     0.86032   0.35742   0.19656   0.00000  Uiso   1.00
C206   C     0.80634   0.64258   0.13677   0.00000  Uiso   1.00
C207   C     0.80635   0.35714   0.13678   0.00000  Uiso   1.00
C208   C     0.86032   0.64286   0.19656   0.00000  Uiso   1.00
C209   C     0.91316   0.50011   0.16711   0.00000  Uiso   1.00
C210   C     0.83335   0.49999   0.07290   0.00000  Uiso   1.00
C211   C     0.83335   0.50001   0.26043   0.00000  Uiso   1.00
C212   C     0.83334   0.49999   0.02180   0.00000  Uiso   1.00
C213   C     0.83334   0.50001   0.31154   0.00000  Uiso   1.00
C214   C     0.68839   0.48171   0.20883   0.00000  Uiso   1.00
C215   C     0.97779   0.51930   0.12686   0.00000  Uiso   1.00
C216   C     0.97863   0.48178   0.20923   0.00000  Uiso   1.00
H217   H     0.88193   0.37560   0.22050   0.00000  Uiso   1.00
H218   H     0.78473   0.62440   0.11283   0.00000  Uiso   1.00
H219   H     0.78474   0.37509   0.11283   0.00000  Uiso   1.00
H220   H     0.88193   0.62491   0.22050   0.00000  Uiso   1.00
H221   H     0.73814   0.47460   0.25148   0.00000  Uiso   1.00
H222   H     0.97252   0.54968   0.06186   0.00000  Uiso   1.00
H223   H     0.92913   0.47374   0.25184   0.00000  Uiso   1.00
H224   H     0.73693   0.52260   0.08134   0.00000  Uiso   1.00
N225   N     0.83333   0.61907   0.16667   0.00000  Uiso   1.00
N226   N     0.83333   0.38093   0.16667   0.00000  Uiso   1.00
O227   O     0.77226   0.53821   0.16666   0.00000  Uiso   1.00
O228   O     0.95410   0.53678   0.08794   0.00000  Uiso   1.00
O229   O     0.95883   0.46447   0.25114   0.00000  Uiso   1.00
O230   O     0.70814   0.53460   0.08336   0.00000  Uiso   1.00
O231   O     0.89441   0.46179   0.16667   0.00000  Uiso   1.00
O232   O     0.89441   0.53821   0.16667   0.00000  Uiso   1.00
O233   O     0.77226   0.46179   0.16666   0.00000  Uiso   1.00
O234   O     0.83334   0.53821   0.09511   0.00000  Uiso   1.00
O235   O     0.83333   0.46179   0.23822   0.00000  Uiso   1.00
O236   O     0.83333   0.53821   0.23822   0.00000  Uiso   1.00
O237   O     0.83334   0.46179   0.09511   0.00000  Uiso   1.00
O238   O     0.70856   0.46467   0.25066   0.00000  Uiso   1.00
Zn239  Zn    0.83333   0.55104   0.16667   0.00000  Uiso   1.00
Zn240  Zn    0.83333   0.44896   0.16667   0.00000  Uiso   1.00
C241   C     0.08684   0.83324   0.16668   0.00000  Uiso   1.00
C242   C     0.02128   0.85146   0.12545   0.00000  Uiso   1.00
C243   C     0.29061   0.83386   0.16812   0.00000  Uiso   1.00
C244   C     0.04272   0.83302   0.16688   0.00000  Uiso   1.00
C245   C     0.19365   0.69075   0.19656   0.00000  Uiso   1.00
C246   C     0.13968   0.97592   0.13677   0.00000  Uiso   1.00
C247   C     0.13968   0.69047   0.13678   0.00000  Uiso   1.00
C248   C     0.19365   0.97620   0.19656   0.00000  Uiso   1.00
C249   C     0.24649   0.83344   0.16711   0.00000  Uiso   1.00
C250   C     0.16669   0.83332   0.07290   0.00000  Uiso   1.00
C251   C     0.16668   0.83334   0.26043   0.00000  Uiso   1.00
C252   C     0.16668   0.83332   0.02180   0.00000  Uiso   1.00
C253   C     0.16668   0.83335   0.31154   0.00000  Uiso   1.00
C254   C     0.02173   0.81504   0.20883   0.00000  Uiso   1.00
C255   C     0.31113   0.85264   0.12686   0.00000  Uiso   1.00
C256   C     0.31196   0.81511   0.20923   0.00000  Uiso   1.00
H257   H     0.21527   0.70894   0.22050   0.00000  Uiso   1.00
H258   H     0.11807   0.95773   0.11283   0.00000  Uiso   1.00
H259   H     0.11807   0.70843   0.11283   0.00000  Uiso   1.00
H260   H     0.21526   0.95824   0.22050   0.00000  Uiso   1.00
H261   H     0.07148   0.80793   0.25148   0.00000  Uiso   1.00
H262   H     0.30586   0.88302   0.06186   0.00000  Uiso   1.00
H263   H     0.26247   0.80707   0.25184   0.00000  Uiso   1.00
H264   H     0.07027   0.85593   0.08134   0.00000  Uiso   1.00
N265   N     0.16667   0.95240   0.16667   0.00000  Uiso   1.00
N266   N     0.16667   0.71427   0.16667   0.00000  Uiso   1.00
O267   O     0.10559   0.87154   0.16666   0.00000  Uiso   1.00
O268   O     0.28743   0.87012   0.08794   0.00000  Uiso   1.00
O269   O     0.29216   0.79780   0.25114   0.00000  Uiso   1.00
O270   O     0.04147   0.86793   0.08336   0.00000  Uiso   1.00
O271   O     0.22774   0.79513   0.16667   0.00000  Uiso   1.00
O272   O     0.22774   0.87154   0.16667   0.00000  Uiso   1.00
O273   O     0.10559   0.79513   0.16666   0.00000  Uiso   1.00
O274   O     0.16667   0.87155   0.09511   0.00000  Uiso   1.00
O275   O     0.16666   0.79512   0.23822   0.00000  Uiso   1.00
O276   O     0.16666   0.87155   0.23822   0.00000  Uiso   1.00
O277   O     0.16667   0.79512   0.09511   0.00000  Uiso   1.00
O278   O     0.04190   0.79801   0.25066   0.00000  Uiso   1.00
Zn279  Zn    0.16667   0.88437   0.16667   0.00000  Uiso   1.00
Zn280  Zn    0.16667   0.78229   0.16667   0.00000  Uiso   1.00
C281   C     0.42018   0.83324   0.16668   0.00000  Uiso   1.00
C282   C     0.35462   0.85146   0.12545   0.00000  Uiso   1.00
C283   C     0.62394   0.83386   0.16812   0.00000  Uiso   1.00
C284   C     0.37606   0.83302   0.16688   0.00000  Uiso   1.00
C285   C     0.52699   0.69075   0.19656   0.00000  Uiso   1.00
C286   C     0.47301   0.97592   0.13677   0.00000  Uiso   1.00
C287   C     0.47301   0.69047   0.13678   0.00000  Uiso   1.00
C288   C     0.52699   0.97620   0.19656   0.00000  Uiso   1.00
C289   C     0.57983   0.83344   0.16711   0.00000  Uiso   1.00
C290   C     0.50002   0.83332   0.07290   0.00000  Uiso   1.00
C291   C     0.50002   0.83334   0.26043   0.00000  Uiso   1.00
C292   C     0.50001   0.83332   0.02180   0.00000  Uiso   1.00
C293   C     0.50001   0.83335   0.31154   0.00000  Uiso   1.00
C294   C     0.35506   0.81504   0.20883   0.00000  Uiso   1.00
C295   C     0.64446   0.85264   0.12686   0.00000  Uiso   1.00
C296   C     0.64529   0.81511   0.20923   0.00000  Uiso   1.00
H297   H     0.54860   0.70894   0.22050   0.00000  Uiso   1.00
H298   H     0.45140   0.95773   0.11283   0.00000  Uiso   1.00
H299   H     0.45140   0.70843   0.11283   0.00000  Uiso   1.00
H300   H     0.54860   0.95824   0.22050   0.00000  Uiso   1.00
H301   H     0.40481   0.80793   0.25148   0.00000  Uiso   1.00
H302   H     0.63919   0.88302   0.06186   0.00000  Uiso   1.00
H303   H     0.59580   0.80707   0.25184   0.00000  Uiso   1.00
H304   H     0.40360   0.85593   0.08134   0.00000  Uiso   1.00
N305   N     0.50000   0.95240   0.16667   0.00000  Uiso   1.00
N306   N     0.50000   0.71427   0.16667   0.00000  Uiso   1.00
O307   O     0.43892   0.87154   0.16666   0.00000  Uiso   1.00
O308   O     0.62076   0.87012   0.08794   0.00000  Uiso   1.00
O309   O     0.62549   0.79780   0.25114   0.00000  Uiso   1.00
O310   O     0.37481   0.86793   0.08336   0.00000  Uiso   1.00
O311   O     0.56108   0.79513   0.16667   0.00000  Uiso   1.00
O312   O     0.56108   0.87154   0.16667   0.00000  Uiso   1.00
O313   O     0.43892   0.79513   0.16666   0.00000  Uiso   1.00
O314   O     0.50000   0.87155   0.09511   0.00000  Uiso   1.00
O315   O     0.50000   0.79512   0.23822   0.00000  Uiso   1.00
O316   O     0.50000   0.87155   0.23822   0.00000  Uiso   1.00
O317   O     0.50000   0.79512   0.09511   0.00000  Uiso   1.00
O318   O     0.37523   0.79801   0.25066   0.00000  Uiso   1.00
Zn319  Zn    0.50000   0.88437   0.16667   0.00000  Uiso   1.00
Zn320  Zn    0.50000   0.78229   0.16667   0.00000  Uiso   1.00
C321   C     0.75351   0.83324   0.16668   0.00000  Uiso   1.00
C322   C     0.68795   0.85146   0.12545   0.00000  Uiso   1.00
C323   C     0.95728   0.83386   0.16812   0.00000  Uiso   1.00
C324   C     0.70939   0.83302   0.16688   0.00000  Uiso   1.00
C325   C     0.86032   0.69075   0.19656   0.00000  Uiso   1.00
C326   C     0.80634   0.97592   0.13677   0.00000  Uiso   1.00
C327   C     0.80635   0.69047   0.13678   0.00000  Uiso   1.00
C328   C     0.86032   0.97620   0.19656   0.00000  Uiso   1.00
C329   C     0.91316   0.83344   0.16711   0.00000  Uiso   1.00
C330   C     0.83335   0.83332   0.07290   0.00000  Uiso   1.00
C331   C     0.83335   0.83334   0.26043   0.00000  Uiso   1.00
C332   C     0.83334   0.83332   0.02180   0.00000  Uiso   1.00
C333   C     0.83334   0.83335   0.31154   0.00000  Uiso   1.00
C334   C     0.68839   0.81504   0.20883   0.00000  Uiso   1.00
C335   C     0.97779   0.85264   0.12686   0.00000  Uiso   1.00
C336   C     0.97863   0.81511   0.20923   0.00000  Uiso   1.00
H337   H     0.88193   0.70894   0.22050   0.00000  Uiso   1.00
H338   H     0.78473   0.95773   0.11283   0.00000  Uiso   1.00
H339   H     0.78474   0.70843   0.11283   0.00000  Uiso   1.00
H340   H     0.88193   0.95824   0.22050   0.00000  Uiso   1.00
H341   H     0.73814   0.80793   0.25148   0.00000  Uiso   1.00
H342   H     0.97252   0.88302   0.06186   0.00000  Uiso   1.00
H343   H     0.92913   0.80707   0.25184   0.00000  Uiso   1.00
H344   H     0.73693   0.85593   0.08134   0.00000  Uiso   1.00
N345   N     0.83333   0.95240   0.16667   0.00000  Uiso   1.00
N346   N     0.83333   0.71427   0.16667   0.00000  Uiso   1.00
O347   O     0.77226   0.87154   0.16666   0.00000  Uiso   1.00
O348   O     0.95410   0.87012   0.08794   0.00000  Uiso   1.00
O349   O     0.95883   0.79780   0.25114   0.00000  Uiso   1.00
O350   O     0.70814   0.86793   0.08336   0.00000  Uiso   1.00
O351   O     0.89441   0.79513   0.16667   0.00000  Uiso   1.00
O352   O     0.89441   0.87154   0.16667   0.00000  Uiso   1.00
O353   O     0.77226   0.79513   0.16666   0.00000  Uiso   1.00
O354   O     0.83334   0.87155   0.09511   0.00000  Uiso   1.00
O355   O     0.83333   0.79512   0.23822   0.00000  Uiso   1.00
O356   O     0.83333   0.87155   0.23822   0.00000  Uiso   1.00
O357   O     0.83334   0.79512   0.09511   0.00000  Uiso   1.00
O358   O     0.70856   0.79801   0.25066   0.00000  Uiso   1.00
Zn359  Zn    0.83333   0.88437   0.16667   0.00000  Uiso   1.00
Zn360  Zn    0.83333   0.78229   0.16667   0.00000  Uiso   1.00
C361   C     0.08684   0.16657   0.50002   0.00000  Uiso   1.00
C362   C     0.02128   0.18479   0.45879   0.00000  Uiso   1.00
C363   C     0.29061   0.16719   0.50146   0.00000  Uiso   1.00
C364   C     0.04272   0.16636   0.50021   0.00000  Uiso   1.00
C365   C     0.19365   0.02408   0.52989   0.00000  Uiso   1.00
C366   C     0.13968   0.30925   0.47011   0.00000  Uiso   1.00
C367   C     0.13968   0.02380   0.47011   0.00000  Uiso   1.00
C368   C     0.19365   0.30953   0.52989   0.00000  Uiso   1.00
C369   C     0.24649   0.16678   0.50044   0.00000  Uiso   1.00
C370   C     0.16669   0.16666   0.40623   0.00000  Uiso   1.00
C371   C     0.16668   0.16668   0.59377   0.00000  Uiso   1.00
C372   C     0.16668   0.16665   0.35513   0.00000  Uiso   1.00
C373   C     0.16668   0.16668   0.64487   0.00000  Uiso   1.00
C374   C     0.02173   0.14838   0.54216   0.00000  Uiso   1.00
C375   C     0.31113   0.18597   0.46019   0.00000  Uiso   1.00
C376   C     0.31196   0.14844   0.54257   0.00000  Uiso   1.00
H377   H     0.21527   0.04227   0.55384   0.00000  Uiso   1.00
H378   H     0.11807   0.29107   0.44617   0.00000  Uiso   1.00
H379   H     0.11807   0.04176   0.44617   0.00000  Uiso   1.00
H380   H     0.21526   0.29157   0.55383   0.00000  Uiso   1.00
H381   H     0.07148   0.14127   0.58481   0.00000  Uiso   1.00
H382   H     0.30586   0.21635   0.39520   0.00000  Uiso   1.00
H383   H     0.26247   0.14041   0.58518   0.00000  Uiso   1.00
H384   H     0.07027   0.18927   0.41468   0.00000  Uiso   1.00
N385   N     0.16667   0.28573   0.50000   0.00000  Uiso   1.00
N386   N     0.16667   0.04760   0.50000   0.00000  Uiso   1.00
O387   O     0.10559   0.20487   0.50000   0.00000  Uiso   1.00
O388   O     0.28743   0.20345   0.42128   0.00000  Uiso   1.00
O389   O     0.29216   0.13113   0.58448   0.00000  Uiso   1.00
O390   O     0.04147   0.20126   0.41670   0.00000  Uiso   1.00
O391   O     0.22774   0.12846   0.50000   0.00000  Uiso   1.00
O392   O     0.22774   0.20487   0.50000   0.00000  Uiso   1.00
O393   O     0.10559   0.12846   0.50000   0.00000  Uiso   1.00
O394   O     0.16667   0.20488   0.42845   0.00000  Uiso   1.00
O395   O     0.16666   0.12845   0.57155   0.00000  Uiso   1.00
O396   O     0.16666   0.20488   0.57155   0.00000  Uiso   1.00
O397   O     0.16667   0.12845   0.42845   0.00000  Uiso   1.00
O398   O     0.04190   0.13134   0.58399   0.00000  Uiso   1.00
Zn399  Zn    0.16667   0.21771   0.50000   0.00000  Uiso   1.00
Zn400  Zn    0.16667   0.11563   0.50000   0.00000  Uiso   1.00
C401   C     0.42018   0.16657   0.50002   0.00000  Uiso   1.00
C402   C     0.35462   0.18479   0.45879   0.00000  Uiso   1.00
C403   C     0.62394   0.16719   0.50146   0.00000  Uiso   1.00
C404   C     0.37606   0.16636   0.50021   0.00000  Uiso   1.00
C405   C     0.52699   0.02408   0.52989   0.00000  Uiso   1.00
C406   C     0.47301   0.30925   0.47011   0.00000  Uiso   1.00
C407   C     0.47301   0.02380   0.47011   0.00000  Uiso   1.00
C408   C     0.52699   0.30953   0.52989   0.00000  Uiso   1.00
C409   C     0.57983   0.16678   0.50044   0.00000  Uiso   1.00
C410   C     0.50002   0.16666   0.40623   0.00000  Uiso   1.00
C411   C     0.50002   0.16668   0.59377   0.00000  Uiso   1.00
C412   C     0.50001   0.16665   0.35513   0.00000  Uiso   1.00
C413   C     0.50001   0.16668   0.64487   0.00000  Uiso   1.00
C414   C     0.35506   0.14838   0.54216   0.00000  Uiso   1.00
C415   C     0.64446   0.18597   0.46019   0.00000  Uiso   1.00
C416   C     0.64529   0.14844   0.54257   0.00000  Uiso   1.00
H417   H     0.54860   0.04227   0.55384   0.00000  Uiso   1.00
H418   H     0.45140   0.29107   0.44617   0.00000  Uiso   1.00
H419   H     0.45140   0.04176   0.44617   0.00000  Uiso   1.00
H420   H     0.54860   0.29157   0.55383   0.00000  Uiso   1.00
H421   H     0.40481   0.14127   0.58481   0.00000  Uiso   1.00
H422   H     0.63919   0.21635   0.39520   0.00000  Uiso   1.00
H423   H     0.59580   0.14041   0.58518   0.00000  Uiso   1.00
H424   H     0.40360   0.18927   0.41468   0.00000  Uiso   1.00
N425   N     0.50000   0.28573   0.50000   0.00000  Uiso   1.00
N426   N     0.50000   0.04760   0.50000   0.00000  Uiso   1.00
O427   O     0.43892   0.20487   0.50000   0.00000  Uiso   1.00
O428   O     0.62076   0.20345   0.42128   0.00000  Uiso   1.00
O429   O     0.62549   0.13113   0.58448   0.00000  Uiso   1.00
O430   O     0.37481   0.20126   0.41670   0.00000  Uiso   1.00
O431   O     0.56108   0.12846   0.50000   0.00000  Uiso   1.00
O432   O     0.56108   0.20487   0.50000   0.00000  Uiso   1.00
O433   O     0.43892   0.12846   0.50000   0.00000  Uiso   1.00
O434   O     0.50000   0.20488   0.42845   0.00000  Uiso   1.00
O435   O     0.50000   0.12845   0.57155   0.00000  Uiso   1.00
O436   O     0.50000   0.20488   0.57155   0.00000  Uiso   1.00
O437   O     0.50000   0.12845   0.42845   0.00000  Uiso   1.00
O438   O     0.37523   0.13134   0.58399   0.00000  Uiso   1.00
Zn439  Zn    0.50000   0.21771   0.50000   0.00000  Uiso   1.00
Zn440  Zn    0.50000   0.11563   0.50000   0.00000  Uiso   1.00
C441   C     0.75351   0.16657   0.50002   0.00000  Uiso   1.00
C442   C     0.68795   0.18479   0.45879   0.00000  Uiso   1.00
C443   C     0.95728   0.16719   0.50146   0.00000  Uiso   1.00
C444   C     0.70939   0.16636   0.50021   0.00000  Uiso   1.00
C445   C     0.86032   0.02408   0.52989   0.00000  Uiso   1.00
C446   C     0.80634   0.30925   0.47011   0.00000  Uiso   1.00
C447   C     0.80635   0.02380   0.47011   0.00000  Uiso   1.00
C448   C     0.86032   0.30953   0.52989   0.00000  Uiso   1.00
C449   C     0.91316   0.16678   0.50044   0.00000  Uiso   1.00
C450   C     0.83335   0.16666   0.40623   0.00000  Uiso   1.00
C451   C     0.83335   0.16668   0.59377   0.00000  Uiso   1.00
C452   C     0.83334   0.16665   0.35513   0.00000  Uiso   1.00
C453   C     0.83334   0.16668   0.64487   0.00000  Uiso   1.00
C454   C     0.68839   0.14838   0.54216   0.00000  Uiso   1.00
C455   C     0.97779   0.18597   0.46019   0.00000  Uiso   1.00
C456   C     0.97863   0.14844   0.54257   0.00000  Uiso   1.00
H457   H     0.88193   0.04227   0.55384   0.00000  Uiso   1.00
H458   H     0.78473   0.29107   0.44617   0.00000  Uiso   1.00
H459   H     0.78474   0.04176   0.44617   0.00000  Uiso   1.00
H460   H     0.88193   0.29157   0.55383   0.00000  Uiso   1.00
H461   H     0.73814   0.14127   0.58481   0.00000  Uiso   1.00
H462   H     0.97252   0.21635   0.39520   0.00000  Uiso   1.00
H463   H     0.92913   0.14041   0.58518   0.00000  Uiso   1.00
H464   H     0.73693   0.18927   0.41468   0.00000  Uiso   1.00
N465   N     0.83333   0.28573   0.50000   0.00000  Uiso   1.00
N466   N     0.83333   0.04760   0.50000   0.00000  Uiso   1.00
O467   O     0.77226   0.20487   0.50000   0.00000  Uiso   1.00
O468   O     0.95410   0.20345   0.42128   0.00000  Uiso   1.00
O469   O     0.95883   0.13113   0.58448   0.00000  Uiso   1.00
O470   O     0.70814   0.20126   0.41670   0.00000  Uiso   1.00
O471   O     0.89441   0.12846   0.50000   0.00000  Uiso   1.00
O472   O     0.89441   0.20487   0.50000   0.00000  Uiso   1.00
O473   O     0.77226   0.12846   0.50000   0.00000  Uiso   1.00
O474   O     0.83334   0.20488   0.42845   0.00000  Uiso   1.00
O475   O     0.83333   0.12845   0.57155   0.00000  Uiso   1.00
O476   O     0.83333   0.20488   0.57155   0.00000  Uiso   1.00
O477   O     0.83334   0.12845   0.42845   0.00000  Uiso   1.00
O478   O     0.70856   0.13134   0.58399   0.00000  Uiso   1.00
Zn479  Zn    0.83333   0.21771   0.50000   0.00000  Uiso   1.00
Zn480  Zn    0.83333   0.11563   0.50000   0.00000  Uiso   1.00
C481   C     0.08684   0.49990   0.50002   0.00000  Uiso   1.00
C482   C     0.02128   0.51812   0.45879   0.00000  Uiso   1.00
C483   C     0.29061   0.50053   0.50146   0.00000  Uiso   1.00
C484   C     0.04272   0.49969   0.50021   0.00000  Uiso   1.00
C485   C     0.19365   0.35742   0.52989   0.00000  Uiso   1.00
C486   C     0.13968   0.64258   0.47011   0.00000  Uiso   1.00
C487   C     0.13968   0.35714   0.47011   0.00000  Uiso   1.00
C488   C     0.19365   0.64286   0.52989   0.00000  Uiso   1.00
C489   C     0.24649   0.50011   0.50044   0.00000  Uiso   1.00
C490   C     0.16669   0.49999   0.40623   0.00000  Uiso   1.00
C491   C     0.16668   0.50001   0.59377   0.00000  Uiso   1.00
C492   C     0.16668   0.49999   0.35513   0.00000  Uiso   1.00
C493   C     0.16668   0.50001   0.64487   0.00000  Uiso   1.00
C494   C     0.02173   0.48171   0.54216   0.00000  Uiso   1.00
C495   C     0.31113   0.51930   0.46019   0.00000  Uiso   1.00
C496   C     0.31196   0.48178   0.54257   0.00000  Uiso   1.00
H497   H     0.21527   0.37560   0.55384   0.00000  Uiso   1.00
H498   H     0.11807   0.62440   0.44617   0.00000  Uiso   1.00
H499   H     0.11807   0.37509   0.44617   0.00000  Uiso   1.00
H500   H     0.21526   0.62491   0.55383   0.00000  Uiso   1.00
H501   H     0.07148   0.47460   0.58481   0.00000  Uiso   1.00
H502   H     0.30586   0.54968   0.39520   0.00000  Uiso   1.00
H503   H     0.26247   0.47374   0.58518   0.00000  Uiso   1.00
H504   H     0.07027   0.52260   0.41468   0.00000  Uiso   1.00
N505   N     0.16667   0.61907   0.50000   0.00000  Uiso   1.00
N506   N     0.16667   0.38093   0.50000   0.00000  Uiso   1.00
O507   O     0.10559   0.53821   0.50000   0.00000  Uiso   1.00
O508   O     0.28743   0.53678   0.42128   0.00000  Uiso   1.00
O509   O     0.29216   0.46447   0.58448   0.00000  Uiso   1.00
O510   O     0.04147   0.53460   0.41670   0.00000  Uiso   1.00
O511   O     0.22774   0.46179   0.50000   0.00000  Uiso   1.00
O512   O     0.22774   0.53821   0.50000   0.00000  Uiso   1.00
O513   O     0.10559   0.46179   0.50000   0.00000  Uiso   1.00
O514   O     0.16667   0.53821   0.42845   0.00000  Uiso   1.00
O515   O     0.16666   0.46179   0.57155   0.00000  Uiso   1.00
O516   O     0.16666   0.53821   0.57155   0.00000  Uiso   1.00
O517   O     0.16667   0.46179   0.42845   0.00000  Uiso   1.00
O518   O     0.04190   0.46467   0.58399   0.00000  Uiso   1.00
Zn519  Zn    0.16667   0.55104   0.50000   0.00000  Uiso   1.00
Zn520  Zn    0.16667   0.44896   0.50000   0.00000  Uiso   1.00
C521   C     0.42018   0.49990   0.50002   0.00000  Uiso   1.00
C522   C     0.35462   0.51812   0.45879   0.00000  Uiso   1.00
C523   C     0.62394   0.50053   0.50146   0.00000  Uiso   1.00
C524   C     0.37606   0.49969   0.50021   0.00000  Uiso   1.00
C525   C     0.52699   0.35742   0.52989   0.00000  Uiso   1.00
C526   C     0.47301   0.64258   0.47011   0.00000  Uiso   1.00
C527   C     0.47301   0.35714   0.47011   0.00000  Uiso   1.00
C528   C     0.52699   0.64286   0.52989   0.00000  Uiso   1.00
C529   C     0.57983   0.50011   0.50044   0.00000  Uiso   1.00
C530   C     0.50002   0.49999   0.40623   0.00000  Uiso   1.00
C531   C     0.50002   0.50001   0.59377   0.00000  Uiso   1.00
C532   C     0.50001   0.49999   0.35513   0.00000  Uiso   1.00
C533   C     0.50001   0.50001   0.64487   0.00000  Uiso   1.00
C534   C     0.35506   0.48171   0.54216   0.00000  Uiso   1.00
C535   C     0.64446   0.51930   0.46019   0.00000  Uiso   1.00
C536   C     0.64529   0.48178   0.54257   0.00000  Uiso   1.00
H537   H     0.54860   0.37560   0.55384   0.00000  Uiso   1.00
H538   H     0.45140   0.62440   0.44617   0.00000  Uiso   1.00
H539   H     0.45140   0.37509   0.44617   0.00000  Uiso   1.00
H540   H     0.54860   0.62491   0.55383   0.00000  Uiso   1.00
H541   H     0.40481   0.47460   0.58481   0.00000  Uiso   1.00
H542   H     0.63919   0.54968   0.39520   0.00000  Uiso   1.00
H543   H     0.59580   0.47374   0.58518   0.00000  Uiso   1.00
H544   H     0.40360   0.52260   0.41468   0.00000  Uiso   1.00
N545   N     0.50000   0.61907   0.50000   0.00000  Uiso   1.00
N546   N     0.50000   0.38093   0.50000   0.00000  Uiso   1.00
O547   O     0.43892   0.53821   0.50000   0.00000  Uiso   1.00
O548   O     0.62076   0.53678   0.42128   0.00000  Uiso   1.00
O549   O     0.62549   0.46447   0.58448   0.00000  Uiso   1.00
O550   O     0.37481   0.53460   0.41670   0.00000  Uiso   1.00
O551   O     0.56108   0.46179   0.50000   0.00000  Uiso   1.00
O552   O     0.56108   0.53821   0.50000   0.00000  Uiso   1.00
O553   O     0.43892   0.46179   0.50000   0.00000  Uiso   1.00
O554   O     0.50000   0.53821   0.42845   0.00000  Uiso   1.00
O555   O     0.50000   0.46179   0.57155   0.00000  Uiso   1.00
O556   O     0.50000   0.53821   0.57155   0.00000  Uiso   1.00
O557   O     0.50000   0.46179   0.42845   0.00000  Uiso   1.00
O558   O     0.37523   0.46467   0.58399   0.00000  Uiso   1.00
Zn559  Zn    0.50000   0.55104   0.50000   0.00000  Uiso   1.00
Zn560  Zn    0.50000   0.44896   0.50000   0.00000  Uiso   1.00
C561   C     0.75351   0.49990   0.50002   0.00000  Uiso   1.00
C562   C     0.68795   0.51812   0.45879   0.00000  Uiso   1.00
C563   C     0.95728   0.50053   0.50146   0.00000  Uiso   1.00
C564   C     0.70939   0.49969   0.50021   0.00000  Uiso   1.00
C565   C     0.86032   0.35742   0.52989   0.00000  Uiso   1.00
C566   C     0.80634   0.64258   0.47011   0.00000  Uiso   1.00
C567   C     0.80635   0.35714   0.47011   0.00000  Uiso   1.00
C568   C     0.86032   0.64286   0.52989   0.00000  Uiso   1.00
C569   C     0.91316   0.50011   0.50044   0.00000  Uiso   1.00
C570   C     0.83335   0.49999   0.40623   0.00000  Uiso   1.00
C571   C     0.83335   0.50001   0.59377   0.00000  Uiso   1.00
C572   C     0.83334   0.49999   0.35513   0.00000  Uiso   1.00
C573   C     0.83334   0.50001   0.64487   0.00000  Uiso   1.00
C574   C     0.68839   0.48171   0.54216   0.00000  Uiso   1.00
C575   C     0.97779   0.51930   0.46019   0.00000  Uiso   1.00
C576   C     0.97863   0.48178   0.54257   0.00000  Uiso   1.00
H577   H     0.88193   0.37560   0.55384   0.00000  Uiso   1.00
H578   H     0.78473   0.62440   0.44617   0.00000  Uiso   1.00
H579   H     0.78474   0.37509   0.44617   0.00000  Uiso   1.00
H580   H     0.88193   0.62491   0.55383   0.00000  Uiso   1.00
H581   H     0.73814   0.47460   0.58481   0.00000  Uiso   1.00
H582   H     0.97252   0.54968   0.39520   0.00000  Uiso   1.00
H583   H     0.92913   0.47374   0.58518   0.00000  Uiso   1.00
H584   H     0.73693   0.52260   0.41468   0.00000  Uiso   1.00
N585   N     0.83333   0.61907   0.50000   0.00000  Uiso   1.00
N586   N     0.83333   0.38093   0.50000   0.00000  Uiso   1.00
O587   O     0.77226   0.53821   0.50000   0.00000  Uiso   1.00
O588   O     0.95410   0.53678   0.42128   0.00000  Uiso   1.00
O589   O     0.95883   0.46447   0.58448   0.00000  Uiso   1.00
O590   O     0.70814   0.53460   0.41670   0.00000  Uiso   1.00
O591   O     0.89441   0.46179   0.50000   0.00000  Uiso   1.00
O592   O     0.89441   0.53821   0.50000   0.00000  Uiso   1.00
O593   O     0.77226   0.46179   0.50000   0.00000  Uiso   1.00
O594   O     0.83334   0.53821   0.42845   0.00000  Uiso   1.00
O595   O     0.83333   0.46179   0.57155   0.00000  Uiso   1.00
O596   O     0.83333   0.53821   0.57155   0.00000  Uiso   1.00
O597   O     0.83334   0.46179   0.42845   0.00000  Uiso   1.00
O598   O     0.70856   0.46467   0.58399   0.00000  Uiso   1.00
Zn599  Zn    0.83333   0.55104   0.50000   0.00000  Uiso   1.00
Zn600  Zn    0.83333   0.44896   0.50000   0.00000  Uiso   1.00
C601   C     0.08684   0.83324   0.50002   0.00000  Uiso   1.00
C602   C     0.02128   0.85146   0.45879   0.00000  Uiso   1.00
C603   C     0.29061   0.83386   0.50146   0.00000  Uiso   1.00
C604   C     0.04272   0.83302   0.50021   0.00000  Uiso   1.00
C605   C     0.19365   0.69075   0.52989   0.00000  Uiso   1.00
C606   C     0.13968   0.97592   0.47011   0.00000  Uiso   1.00
C607   C     0.13968   0.69047   0.47011   0.00000  Uiso   1.00
C608   C     0.19365   0.97620   0.52989   0.00000  Uiso   1.00
C609   C     0.24649   0.83344   0.50044   0.00000  Uiso   1.00
C610   C     0.16669   0.83332   0.40623   0.00000  Uiso   1.00
C611   C     0.16668   0.83334   0.59377   0.00000  Uiso   1.00
C612   C     0.16668   0.83332   0.35513   0.00000  Uiso   1.00
C613   C     0.16668   0.83335   0.64487   0.00000  Uiso   1.00
C614   C     0.02173   0.81504   0.54216   0.00000  Uiso   1.00
C615   C     0.31113   0.85264   0.46019   0.00000  Uiso   1.00
C616   C     0.31196   0.81511   0.54257   0.00000  Uiso   1.00
H617   H     0.21527   0.70894   0.55384   0.00000  Uiso   1.00
H618   H     0.11807   0.95773   0.44617   0.00000  Uiso   1.00
H619   H     0.11807   0.70843   0.44617   0.00000  Uiso   1.00
H620   H     0.21526   0.95824   0.55383   0.00000  Uiso   1.00
H621   H     0.07148   0.80793   0.58481   0.00000  Uiso   1.00
H622   H     0.30586   0.88302   0.39520   0.00000  Uiso   1.00
H623   H     0.26247   0.80707   0.58518   0.00000  Uiso   1.00
H624   H     0.07027   0.85593   0.41468   0.00000  Uiso   1.00
N625   N     0.16667   0.95240   0.50000   0.00000  Uiso   1.00
N626   N     0.16667   0.71427   0.50000   0.00000  Uiso   1.00
O627   O     0.10559   0.87154   0.50000   0.00000  Uiso   1.00
O628   O     0.28743   0.87012   0.42128   0.00000  Uiso   1.00
O629   O     0.29216   0.79780   0.58448   0.00000  Uiso   1.00
O630   O     0.04147   0.86793   0.41670   0.00000  Uiso   1.00
O631   O     0.22774   0.79513   0.50000   0.00000  Uiso   1.00
O632   O     0.22774   0.87154   0.50000   0.00000  Uiso   1.00
O633   O     0.10559   0.79513   0.50000   0.00000  Uiso   1.00
O634   O     0.16667   0.87155   0.42845   0.00000  Uiso   1.00
O635   O     0.16666   0.79512   0.57155   0.00000  Uiso   1.00
O636   O     0.16666   0.87155   0.57155   0.00000  Uiso   1.00
O637   O     0.16667   0.79512   0.42845   0.00000  Uiso   1.00
O638   O     0.04190   0.79801   0.58399   0.00000  Uiso   1.00
Zn639  Zn    0.16667   0.88437   0.50000   0.00000  Uiso   1.00
Zn640  Zn    0.16667   0.78229   0.50000   0.00000  Uiso   1.00
C641   C     0.42018   0.83324   0.50002   0.00000  Uiso   1.00
C642   C     0.35462   0.85146   0.45879   0.00000  Uiso   1.00
C643   C     0.62394   0.83386   0.50146   0.00000  Uiso   1.00
C644   C     0.37606   0.83302   0.50021   0.00000  Uiso   1.00
C645   C     0.52699   0.69075   0.52989   0.00000  Uiso   1.00
C646   C     0.47301   0.97592   0.47011   0.00000  Uiso   1.00
C647   C     0.47301   0.69047   0.47011   0.00000  Uiso   1.00
C648   C     0.52699   0.97620   0.52989   0.00000  Uiso   1.00
C649   C     0.57983   0.83344   0.50044   0.00000  Uiso   1.00
C650   C     0.50002   0.83332   0.40623   0.00000  Uiso   1.00
C651   C     0.50002   0.83334   0.59377   0.00000  Uiso   1.00
C652   C     0.50001   0.83332   0.35513   0.00000  Uiso   1.00
C653   C     0.50001   0.83335   0.64487   0.00000  Uiso   1.00
C654   C     0.35506   0.81504   0.54216   0.00000  Uiso   1.00
C655   C     0.64446   0.85264   0.46019   0.00000  Uiso   1.00
C656   C     0.64529   0.81511   0.54257   0.00000  Uiso   1.00
H657   H     0.54860   0.70894   0.55384   0.00000  Uiso   1.00
H658   H     0.45140   0.95773   0.44617   0.00000  Uiso   1.00
H659   H     0.45140   0.70843   0.44617   0.00000  Uiso   1.00
H660   H     0.54860   0.95824   0.55383   0.00000  Uiso   1.00
H661   H     0.40481   0.80793   0.58481   0.00000  Uiso   1.00
H662   H     0.63919   0.88302   0.39520   0.00000  Uiso   1.00
H663   H     0.59580   0.80707   0.58518   0.00000  Uiso   1.00
H664   H     0.40360   0.85593   0.41468   0.00000  Uiso   1.00
N665   N     0.50000   0.95240   0.50000   0.00000  Uiso   1.00
N666   N     0.50000   0.71427   0.50000   0.00000  Uiso   1.00
O667   O     0.43892   0.87154   0.50000   0.00000  Uiso   1.00
O668   O     0.62076   0.87012   0.42128   0.00000  Uiso   1.00
O669   O     0.62549   0.79780   0.58448   0.00000  Uiso   1.00
O670   O     0.37481   0.86793   0.41670   0.00000  Uiso   1.00
O671   O     0.56108   0.79513   0.50000   0.00000  Uiso   1.00
O672   O     0.56108   0.87154   0.50000   0.00000  Uiso   1.00
O673   O     0.43892   0.79513   0.50000   0.00000  Uiso   1.00
O674   O     0.50000   0.87155   0.42845   0.00000  Uiso   1.00
O675   O     0.50000   0.79512   0.57155   0.00000  Uiso   1.00
O676   O     0.50000   0.87155   0.57155   0.00000  Uiso   1.00
O677   O     0.50000   0.79512   0.42845   0.00000  Uiso   1.00
O678   O     0.37523   0.79801   0.58399   0.00000  Uiso   1.00
Zn679  Zn    0.50000   0.88437   0.50000   0.00000  Uiso   1.00
Zn680  Zn    0.50000   0.78229   0.50000   0.00000  Uiso   1.00
C681   C     0.75351   0.83324   0.50002   0.00000  Uiso   1.00
C682   C     0.68795   0.85146   0.45879   0.00000  Uiso   1.00
C683   C     0.95728   0.83386   0.50146   0.00000  Uiso   1.00
C684   C     0.70939   0.83302   0.50021   0.00000  Uiso   1.00
C685   C     0.86032   0.69075   0.52989   0.00000  Uiso   1.00
C686   C     0.80634   0.97592   0.47011   0.00000  Uiso   1.00
C687   C     0.80635   0.69047   0.47011   0.00000  Uiso   1.00
C688   C     0.86032   0.97620   0.52989   0.00000  Uiso   1.00
C689   C     0.91316   0.83344   0.50044   0.00000  Uiso   1.00
C690   C     0.83335   0.83332   0.40623   0.00000  Uiso   1.00
C691   C     0.83335   0.83334   0.59377   0.00000  Uiso   1.00
C692   C     0.83334   0.83332   0.35513   0.00000  Uiso   1.00
C693   C     0.83334   0.83335   0.64487   0.00000  Uiso   1.00
C694   C     0.68839   0.81504   0.54216   0.00000  Uiso   1.00
C695   C     0.97779   0.85264   0.46019   0.00000  Uiso   1.00
C696   C     0.97863   0.81511   0.54257   0.00000  Uiso   1.00
H697   H     0.88193   0.70894   0.55384   0.00000  Uiso   1.00
H698   H     0.78473   0.95773   0.44617   0.00000  Uiso   1.00
H699   H     0.78474   0.70843   0.44617   0.00000  Uiso   1.00
H700   H     0.88193   0.95824   0.55383   0.00000  Uiso   1.00
H701   H     0.73814   0.80793   0.58481   0.00000  Uiso   1.00
H702   H     0.97252   0.88302   0.39520   0.00000  Uiso   1.00
H703   H     0.92913   0.80707   0.58518   0.00000  Uiso   1.00
H704   H     0.73693   0.85593   0.41468   0.00000  Uiso   1.00
N705   N     0.83333   0.95240   0.50000   0.00000  Uiso   1.00
N706   N     0.83333   0.71427   0.50000   0.00000  Uiso   1.00
O707   O     0.77226   0.87154   0.50000   0.00000  Uiso   1.00
O708   O     0.95410   0.87012   0.42128   0.00000  Uiso   1.00
O709   O     0.95883   0.79780   0.58448   0.00000  Uiso   1.00
O710   O     0.70814   0.86793   0.41670   0.00000  Uiso   1.00
O711   O     0.89441   0.79513   0.50000   0.00000  Uiso   1.00
O712   O     0.89441   0.87154   0.50000   0.00000  Uiso   1.00
O713   O     0.77226   0.79513   0.50000   0.00000  Uiso   1.00
O714   O     0.83334   0.87155   0.42845   0.00000  Uiso   1.00
O715   O     0.83333   0.79512   0.57155   0.00000  Uiso   1.00
O716   O     0.83333   0.87155   0.57155   0.00000  Uiso   1.00
O717   O     0.83334   0.79512   0.42845   0.00000  Uiso   1.00
O718   O     0.70856   0.79801   0.58399   0.00000  Uiso   1.00
Zn719  Zn    0.83333   0.88437   0.50000   0.00000  Uiso   1.00
Zn720  Zn    0.83333   0.78229   0.50000   0.00000  Uiso   1.00
C721   C     0.08684   0.16657   0.83335   0.00000  Uiso   1.00
C722   C     0.02128   0.18479   0.79212   0.00000  Uiso   1.00
C723   C     0.29061   0.16719   0.83479   0.00000  Uiso   1.00
C724   C     0.04272   0.16636   0.83354   0.00000  Uiso   1.00
C725   C     0.19365   0.02408   0.86323   0.00000  Uiso   1.00
C726   C     0.13968   0.30925   0.80344   0.00000  Uiso   1.00
C727   C     0.13968   0.02380   0.80344   0.00000  Uiso   1.00
C728   C     0.19365   0.30953   0.86323   0.00000  Uiso   1.00
C729   C     0.24649   0.16678   0.83378   0.00000  Uiso   1.00
C730   C     0.16669   0.16666   0.73957   0.00000  Uiso   1.00
C731   C     0.16668   0.16668   0.92710   0.00000  Uiso   1.00
C732   C     0.16668   0.16665   0.68846   0.00000  Uiso   1.00
C733   C     0.16668   0.16668   0.97820   0.00000  Uiso   1.00
C734   C     0.02173   0.14838   0.87550   0.00000  Uiso   1.00
C735   C     0.31113   0.18597   0.79353   0.00000  Uiso   1.00
C736   C     0.31196   0.14844   0.87590   0.00000  Uiso   1.00
H737   H     0.21527   0.04227   0.88717   0.00000  Uiso   1.00
H738   H     0.11807   0.29107   0.77950   0.00000  Uiso   1.00
H739   H     0.11807   0.04176   0.77950   0.00000  Uiso   1.00
H740   H     0.21526   0.29157   0.88717   0.00000  Uiso   1.00
H741   H     0.07148   0.14127   0.91814   0.00000  Uiso   1.00
H742   H     0.30586   0.21635   0.72853   0.00000  Uiso   1.00
H743   H     0.26247   0.14041   0.91851   0.00000  Uiso   1.00
H744   H     0.07027   0.18927   0.74801   0.00000  Uiso   1.00
N745   N     0.16667   0.28573   0.83333   0.00000  Uiso   1.00
N746   N     0.16667   0.04760   0.83333   0.00000  Uiso   1.00
O747   O     0.10559   0.20487   0.83333   0.00000  Uiso   1.00
O748   O     0.28743   0.20345   0.75461   0.00000  Uiso   1.00
O749   O     0.29216   0.13113   0.91781   0.00000  Uiso   1.00
O750   O     0.04147   0.20126   0.75003   0.00000  Uiso   1.00
O751   O     0.22774   0.12846   0.83334   0.00000  Uiso   1.00
O752   O     0.22774   0.20487   0.83334   0.00000  Uiso   1.00
O753   O     0.10559   0.12846   0.83333   0.00000  Uiso   1.00
O754   O     0.16667   0.20488   0.76178   0.00000  Uiso   1.00
O755   O     0.16666   0.12845   0.90489   0.00000  Uiso   1.00
O756   O     0.16666   0.20488   0.90489   0.00000  Uiso   1.00
O757   O     0.16667   0.12845   0.76178   0.00000  Uiso   1.00
O758   O     0.04190   0.13134   0.91733   0.00000  Uiso   1.00
Zn759  Zn    0.16667   0.21771   0.83333   0.00000  Uiso   1.00
Zn760  Zn    0.16667   0.11563   0.83333   0.00000  Uiso   1.00
C761   C     0.42018   0.16657   0.83335   0.00000  Uiso   1.00
C762   C     0.35462   0.18479   0.79212   0.00000  Uiso   1.00
C763   C     0.62394   0.16719   0.83479   0.00000  Uiso   1.00
C764   C     0.37606   0.16636   0.83354   0.00000  Uiso   1.00
C765   C     0.52699   0.02408   0.86323   0.00000  Uiso   1.00
C766   C     0.47301   0.30925   0.80344   0.00000  Uiso   1.00
C767   C     0.47301   0.02380   0.80344   0.00000  Uiso   1.00
C768   C     0.52699   0.30953   0.86323   0.00000  Uiso   1.00
C769   C     0.57983   0.16678   0.83378   0.00000  Uiso   1.00
C770   C     0.50002   0.16666   0.73957   0.00000  Uiso   1.00
C771   C     0.50002   0.16668   0.92710   0.00000  Uiso   1.00
C772   C     0.50001   0.16665   0.68846   0.00000  Uiso   1.00
C773   C     0.50001   0.16668   0.97820   0.00000  Uiso   1.00
C774   C     0.35506   0.14838   0.87550   0.00000  Uiso   1.00
C775   C     0.64446   0.18597   0.79353   0.00000  Uiso   1.00
C776   C     0.64529   0.14844   0.87590   0.00000  Uiso   1.00
H777   H     0.54860   0.04227   0.88717   0.00000  Uiso   1.00
H778   H     0.45140   0.29107   0.77950   0.00000  Uiso   1.00
H779   H     0.45140   0.04176   0.77950   0.00000  Uiso   1.00
H780   H     0.54860   0.29157   0.88717   0.00000  Uiso   1.00
H781   H     0.40481   0.14127   0.91814   0.00000  Uiso   1.00
H782   H     0.63919   0.21635   0.72853   0.00000  Uiso   1.00
H783   H     0.59580   0.14041   0.91851   0.00000  Uiso   1.00
H784   H     0.40360   0.18927   0.74801   0.00000  Uiso   1.00
N785   N     0.50000   0.28573   0.83333   0.00000  Uiso   1.00
N786   N     0.50000   0.04760   0.83333   0.00000  Uiso   1.00
O787   O     0.43892   0.20487   0.83333   0.00000  Uiso   1.00
O788   O     0.62076   0.20345   0.75461   0.00000  Uiso   1.00
O789   O     0.62549   0.13113   0.91781   0.00000  Uiso   1.00
O790   O     0.37481   0.20126   0.75003   0.00000  Uiso   1.00
O791   O     0.56108   0.12846   0.83334   0.00000  Uiso   1.00
O792   O     0.56108   0.20487   0.83334   0.00000  Uiso   1.00
O793   O     0.43892   0.12846   0.83333   0.00000  Uiso   1.00
O794   O     0.50000   0.20488   0.76178   0.00000  Uiso   1.00
O795   O     0.50000   0.12845   0.90489   0.00000  Uiso   1.00
O796   O     0.50000   0.20488   0.90489   0.00000  Uiso   1.00
O797   O     0.50000   0.12845   0.76178   0.00000  Uiso   1.00
O798   O     0.37523   0.13134   0.91733   0.00000  Uiso   1.00
Zn799  Zn    0.50000   0.21771   0.83333   0.00000  Uiso   1.00
Zn800  Zn    0.50000   0.11563   0.83333   0.00000  Uiso   1.00
C801   C     0.75351   0.16657   0.83335   0.00000  Uiso   1.00
C802   C     0.68795   0.18479   0.79212   0.00000  Uiso   1.00
C803   C     0.95728   0.16719   0.83479   0.00000  Uiso   1.00
C804   C     0.70939   0.16636   0.83354   0.00000  Uiso   1.00
C805   C     0.86032   0.02408   0.86323   0.00000  Uiso   1.00
C806   C     0.80634   0.30925   0.80344   0.00000  Uiso   1.00
C807   C     0.80635   0.02380   0.80344   0.00000  Uiso   1.00
C808   C     0.86032   0.30953   0.86323   0.00000  Uiso   1.00
C809   C     0.91316   0.16678   0.83378   0.00000  Uiso   1.00
C810   C     0.83335   0.16666   0.73957   0.00000  Uiso   1.00
C811   C     0.83335   0.16668   0.92710   0.00000  Uiso   1.00
C812   C     0.83334   0.16665   0.68846   0.00000  Uiso   1.00
C813   C     0.83334   0.16668   0.97820   0.00000  Uiso   1.00
C814   C     0.68839   0.14838   0.87550   0.00000  Uiso   1.00
C815   C     0.97779   0.18597   0.79353   0.00000  Uiso   1.00
C816   C     0.97863   0.14844   0.87590   0.00000  Uiso   1.00
H817   H     0.88193   0.04227   0.88717   0.00000  Uiso   1.00
H818   H     0.78473   0.29107   0.77950   0.00000  Uiso   1.00
H819   H     0.78474   0.04176   0.77950   0.00000  Uiso   1.00
H820   H     0.88193   0.29157   0.88717   0.00000  Uiso   1.00
H821   H     0.73814   0.14127   0.91814   0.00000  Uiso   1.00
H822   H     0.97252   0.21635   0.72853   0.00000  Uiso   1.00
H823   H     0.92913   0.14041   0.91851   0.00000  Uiso   1.00
H824   H     0.73693   0.18927   0.74801   0.00000  Uiso   1.00
N825   N     0.83333   0.28573   0.83333   0.00000  Uiso   1.00
N826   N     0.83333   0.04760   0.83333   0.00000  Uiso   1.00
O827   O     0.77226   0.20487   0.83333   0.00000  Uiso   1.00
O828   O     0.95410   0.20345   0.75461   0.00000  Uiso   1.00
O829   O     0.95883   0.13113   0.91781   0.00000  Uiso   1.00
O830   O     0.70814   0.20126   0.75003   0.00000  Uiso   1.00
O831   O     0.89441   0.12846   0.83334   0.00000  Uiso   1.00
O832   O     0.89441   0.20487   0.83334   0.00000  Uiso   1.00
O833   O     0.77226   0.12846   0.83333   0.00000  Uiso   1.00
O834   O     0.83334   0.20488   0.76178   0.00000  Uiso   1.00
O835   O     0.83333   0.12845   0.90489   0.00000  Uiso   1.00
O836   O     0.83333   0.20488   0.90489   0.00000  Uiso   1.00
O837   O     0.83334   0.12845   0.76178   0.00000  Uiso   1.00
O838   O     0.70856   0.13134   0.91733   0.00000  Uiso   1.00
Zn839  Zn    0.83333   0.21771   0.83333   0.00000  Uiso   1.00
Zn840  Zn    0.83333   0.11563   0.83333   0.00000  Uiso   1.00
C841   C     0.08684   0.49990   0.83335   0.00000  Uiso   1.00
C842   C     0.02128   0.51812   0.79212   0.00000  Uiso   1.00
C843   C     0.29061   0.50053   0.83479   0.00000  Uiso   1.00
C844   C     0.04272   0.49969   0.83354   0.00000  Uiso   1.00
C845   C     0.19365   0.35742   0.86323   0.00000  Uiso   1.00
C846   C     0.13968   0.64258   0.80344   0.00000  Uiso   1.00
C847   C     0.13968   0.35714   0.80344   0.00000  Uiso   1.00
C848   C     0.19365   0.64286   0.86323   0.00000  Uiso   1.00
C849   C     0.24649   0.50011   0.83378   0.00000  Uiso   1.00
C850   C     0.16669   0.49999   0.73957   0.00000  Uiso   1.00
C851   C     0.16668   0.50001   0.92710   0.00000  Uiso   1.00
C852   C     0.16668   0.49999   0.68846   0.00000  Uiso   1.00
C853   C     0.16668   0.50001   0.97820   0.00000  Uiso   1.00
C854   C     0.02173   0.48171   0.87550   0.00000  Uiso   1.00
C855   C     0.31113   0.51930   0.79353   0.00000  Uiso   1.00
C856   C     0.31196   0.48178   0.87590   0.00000  Uiso   1.00
H857   H     0.21527   0.37560   0.88717   0.00000  Uiso   1.00
H858   H     0.11807   0.62440   0.77950   0.00000  Uiso   1.00
H859   H     0.11807   0.37509   0.77950   0.00000  Uiso   1.00
H860   H     0.21526   0.62491   0.88717   0.00000  Uiso   1.00
H861   H     0.07148   0.47460   0.91814   0.00000  Uiso   1.00
H862   H     0.30586   0.54968   0.72853   0.00000  Uiso   1.00
H863   H     0.26247   0.47374   0.91851   0.00000  Uiso   1.00
H864   H     0.07027   0.52260   0.74801   0.00000  Uiso   1.00
N865   N     0.16667   0.61907   0.83333   0.00000  Uiso   1.00
N866   N     0.16667   0.38093   0.83333   0.00000  Uiso   1.00
O867   O     0.10559   0.53821   0.83333   0.00000  Uiso   1.00
O868   O     0.28743   0.53678   0.75461   0.00000  Uiso   1.00
O869   O     0.29216   0.46447   0.91781   0.00000  Uiso   1.00
O870   O     0.04147   0.53460   0.75003   0.00000  Uiso   1.00
O871   O     0.22774   0.46179   0.83334   0.00000  Uiso   1.00
O872   O     0.22774   0.53821   0.83334   0.00000  Uiso   1.00
O873   O     0.10559   0.46179   0.83333   0.00000  Uiso   1.00
O874   O     0.16667   0.53821   0.76178   0.00000  Uiso   1.00
O875   O     0.16666   0.46179   0.90489   0.00000  Uiso   1.00
O876   O     0.16666   0.53821   0.90489   0.00000  Uiso   1.00
O877   O     0.16667   0.46179   0.76178   0.00000  Uiso   1.00
O878   O     0.04190   0.46467   0.91733   0.00000  Uiso   1.00
Zn879  Zn    0.16667   0.55104   0.83333   0.00000  Uiso   1.00
Zn880  Zn    0.16667   0.44896   0.83333   0.00000  Uiso   1.00
C881   C     0.42018   0.49990   0.83335   0.00000  Uiso   1.00
C882   C     0.35462   0.51812   0.79212   0.00000  Uiso   1.00
C883   C     0.62394   0.50053   0.83479   0.00000  Uiso   1.00
C884   C     0.37606   0.49969   0.83354   0.00000  Uiso   1.00
C885   C     0.52699   0.35742   0.86323   0.00000  Uiso   1.00
C886   C     0.47301   0.64258   0.80344   0.00000  Uiso   1.00
C887   C     0.47301   0.35714   0.80344   0.00000  Uiso   1.00
C888   C     0.52699   0.64286   0.86323   0.00000  Uiso   1.00
C889   C     0.57983   0.50011   0.83378   0.00000  Uiso   1.00
C890   C     0.50002   0.49999   0.73957   0.00000  Uiso   1.00
C891   C     0.50002   0.50001   0.92710   0.00000  Uiso   1.00
C892   C     0.50001   0.49999   0.68846   0.00000  Uiso   1.00
C893   C     0.50001   0.50001   0.97820   0.00000  Uiso   1.00
C894   C     0.35506   0.48171   0.87550   0.00000  Uiso   1.00
C895   C     0.64446   0.51930   0.79353   0.00000  Uiso   1.00
C896   C     0.64529   0.48178   0.87590   0.00000  Uiso   1.00
H897   H     0.54860   0.37560   0.88717   0.00000  Uiso   1.00
H898   H     0.45140   0.62440   0.77950   0.00000  Uiso   1.00
H899   H     0.45140   0.37509   0.77950   0.00000  Uiso   1.00
H900   H     0.54860   0.62491   0.88717   0.00000  Uiso   1.00
H901   H     0.40481   0.47460   0.91814   0.00000  Uiso   1.00
H902   H     0.63919   0.54968   0.72853   0.00000  Uiso   1.00
H903   H     0.59580   0.47374   0.91851   0.00000  Uiso   1.00
H904   H     0.40360   0.52260   0.74801   0.00000  Uiso   1.00
N905   N     0.50000   0.61907   0.83333   0.00000  Uiso   1.00
N906   N     0.50000   0.38093   0.83333   0.00000  Uiso   1.00
O907   O     0.43892   0.53821   0.83333   0.00000  Uiso   1.00
O908   O     0.62076   0.53678   0.75461   0.00000  Uiso   1.00
O909   O     0.62549   0.46447   0.91781   0.00000  Uiso   1.00
O910   O     0.37481   0.53460   0.75003   0.00000  Uiso   1.00
O911   O     0.56108   0.46179   0.83334   0.00000  Uiso   1.00
O912   O     0.56108   0.53821   0.83334   0.00000  Uiso   1.00
O913   O     0.43892   0.46179   0.83333   0.00000  Uiso   1.00
O914   O     0.50000   0.53821   0.76178   0.00000  Uiso   1.00
O915   O     0.50000   0.46179   0.90489   0.00000  Uiso   1.00
O916   O     0.50000   0.53821   0.90489   0.00000  Uiso   1.00
O917   O     0.50000   0.46179   0.76178   0.00000  Uiso   1.00
O918   O     0.37523   0.46467   0.91733   0.00000  Uiso   1.00
Zn919  Zn    0.50000   0.55104   0.83333   0.00000  Uiso   1.00
Zn920  Zn    0.50000   0.44896   0.83333   0.00000  Uiso   1.00
C921   C     0.75351   0.49990   0.83335   0.00000  Uiso   1.00
C922   C     0.68795   0.51812   0.79212   0.00000  Uiso   1.00
C923   C     0.95728   0.50053   0.83479   0.00000  Uiso   1.00
C924   C     0.70939   0.49969   0.83354   0.00000  Uiso   1.00
C925   C     0.86032   0.35742   0.86323   0.00000  Uiso   1.00
C926   C     0.80634   0.64258   0.80344   0.00000  Uiso   1.00
C927   C     0.80635   0.35714   0.80344   0.00000  Uiso   1.00
C928   C     0.86032   0.64286   0.86323   0.00000  Uiso   1.00
C929   C     0.91316   0.50011   0.83378   0.00000  Uiso   1.00
C930   C     0.83335   0.49999   0.73957   0.00000  Uiso   1.00
C931   C     0.83335   0.50001   0.92710   0.00000  Uiso   1.00
C932   C     0.83334   0.49999   0.68846   0.00000  Uiso   1.00
C933   C     0.83334   0.50001   0.97820   0.00000  Uiso   1.00
C934   C     0.68839   0.48171   0.87550   0.00000  Uiso   1.00
C935   C     0.97779   0.51930   0.79353   0.00000  Uiso   1.00
C936   C     0.97863   0.48178   0.87590   0.00000  Uiso   1.00
H937   H     0.88193   0.37560   0.88717   0.00000  Uiso   1.00
H938   H     0.78473   0.62440   0.77950   0.00000  Uiso   1.00
H939   H     0.78474   0.37509   0.77950   0.00000  Uiso   1.00
H940   H     0.88193   0.62491   0.88717   0.00000  Uiso   1.00
H941   H     0.73814   0.47460   0.91814   0.00000  Uiso   1.00
H942   H     0.97252   0.54968   0.72853   0.00000  Uiso   1.00
H943   H     0.92913   0.47374   0.91851   0.00000  Uiso   1.00
H944   H     0.73693   0.52260   0.74801   0.00000  Uiso   1.00
N945   N     0.83333   0.61907   0.83333   0.00000  Uiso   1.00
N946   N     0.83333   0.38093   0.83333   0.00000  Uiso   1.00
O947   O     0.77226   0.53821   0.83333   0.00000  Uiso   1.00
O948   O     0.95410   0.53678   0.75461   0.00000  Uiso   1.00
O949   O     0.95883   0.46447   0.91781   0.00000  Uiso   1.00
O950   O     0.70814   0.53460   0.75003   0.00000  Uiso   1.00
O951   O     0.89441   0.46179   0.83334   0.00000  Uiso   1.00
O952   O     0.89441   0.53821   0.83334   0.00000  Uiso   1.00
O953   O     0.77226   0.46179   0.83333   0.00000  Uiso   1.00
O954   O     0.83334   0.53821   0.76178   0.00000  Uiso   1.00
O955   O     0.83333   0.46179   0.90489   0.00000  Uiso   1.00
O956   O     0.83333   0.53821   0.90489   0.00000  Uiso   1.00
O957   O     0.83334   0.46179   0.76178   0.00000  Uiso   1.00
O958   O     0.70856   0.46467   0.91733   0.00000  Uiso   1.00
Zn959  Zn    0.83333   0.55104   0.83333   0.00000  Uiso   1.00
Zn960  Zn    0.83333   0.44896   0.83333   0.00000  Uiso   1.00
C961   C     0.08684   0.83324   0.83335   0.00000  Uiso   1.00
C962   C     0.02128   0.85146   0.79212   0.00000  Uiso   1.00
C963   C     0.29061   0.83386   0.83479   0.00000  Uiso   1.00
C964   C     0.04272   0.83302   0.83354   0.00000  Uiso   1.00
C965   C     0.19365   0.69075   0.86323   0.00000  Uiso   1.00
C966   C     0.13968   0.97592   0.80344   0.00000  Uiso   1.00
C967   C     0.13968   0.69047   0.80344   0.00000  Uiso   1.00
C968   C     0.19365   0.97620   0.86323   0.00000  Uiso   1.00
C969   C     0.24649   0.83344   0.83378   0.00000  Uiso   1.00
C970   C     0.16669   0.83332   0.73957   0.00000  Uiso   1.00
C971   C     0.16668   0.83334   0.92710   0.00000  Uiso   1.00
C972   C     0.16668   0.83332   0.68846   0.00000  Uiso   1.00
C973   C     0.16668   0.83335   0.97820   0.00000  Uiso   1.00
C974   C     0.02173   0.81504   0.87550   0.00000  Uiso   1.00
C975   C     0.31113   0.85264   0.79353   0.00000  Uiso   1.00
C976   C     0.31196   0.81511   0.87590   0.00000  Uiso   1.00
H977   H     0.21527   0.70894   0.88717   0.00000  Uiso   1.00
H978   H     0.11807   0.95773   0.77950   0.00000  Uiso   1.00
H979   H     0.11807   0.70843   0.77950   0.00000  Uiso   1.00
H980   H     0.21526   0.95824   0.88717   0.00000  Uiso   1.00
H981   H     0.07148   0.80793   0.91814   0.00000  Uiso   1.00
H982   H     0.30586   0.88302   0.72853   0.00000  Uiso   1.00
H983   H     0.26247   0.80707   0.91851   0.00000  Uiso   1.00
H984   H     0.07027   0.85593   0.74801   0.00000  Uiso   1.00
N985   N     0.16667   0.95240   0.83333   0.00000  Uiso   1.00
N986   N     0.16667   0.71427   0.83333   0.00000  Uiso   1.00
O987   O     0.10559   0.87154   0.83333   0.00000  Uiso   1.00
O988   O     0.28743   0.87012   0.75461   0.00000  Uiso   1.00
O989   O     0.29216   0.79780   0.91781   0.00000  Uiso   1.00
O990   O     0.04147   0.86793   0.75003   0.00000  Uiso   1.00
O991   O     0.22774   0.79513   0.83334   0.00000  Uiso   1.00
O992   O     0.22774   0.87154   0.83334   0.00000  Uiso   1.00
O993   O     0.10559   0.79513   0.83333   0.00000  Uiso   1.00
O994   O     0.16667   0.87155   0.76178   0.00000  Uiso   1.00
O995   O     0.16666   0.79512   0.90489   0.00000  Uiso   1.00
O996   O     0.16666   0.87155   0.90489   0.00000  Uiso   1.00
O997   O     0.16667   0.79512   0.76178   0.00000  Uiso   1.00
O998   O     0.04190   0.79801   0.91733   0.00000  Uiso   1.00
Zn999  Zn    0.16667   0.88437   0.83333   0.00000  Uiso   1.00
Zn1000 Zn    0.16667   0.78229   0.83333   0.00000  Uiso   1.00
C1001  C     0.42018   0.83324   0.83335   0.00000  Uiso   1.00
C1002  C     0.35462   0.85146   0.79212   0.00000  Uiso   1.00
C1003  C     0.62394   0.83386   0.83479   0.00000  Uiso   1.00
C1004  C     0.37606   0.83302   0.83354   0.00000  Uiso   1.00
C1005  C     0.52699   0.69075   0.86323   0.00000  Uiso   1.00
C1006  C     0.47301   0.97592   0.80344   0.00000  Uiso   1.00
C1007  C     0.47301   0.69047   0.80344   0.00000  Uiso   1.00
C1008  C     0.52699   0.97620   0.86323   0.00000  Uiso   1.00
C1009  C     0.57983   0.83344   0.83378   0.00000  Uiso   1.00
C1010  C     0.50002   0.83332   0.73957   0.00000  Uiso   1.00
C1011  C     0.50002   0.83334   0.92710   0.00000  Uiso   1.00
C1012  C     0.50001   0.83332   0.68846   0.00000  Uiso   1.00
C1013  C     0.50001   0.83335   0.97820   0.00000  Uiso   1.00
C1014  C     0.35506   0.81504   0.87550   0.00000  Uiso   1.00
C1015  C     0.64446   0.85264   0.79353   0.00000  Uiso   1.00
C1016  C     0.64529   0.81511   0.87590   0.00000  Uiso   1.00
H1017  H     0.54860   0.70894   0.88717   0.00000  Uiso   1.00
H1018  H     0.45140   0.95773   0.77950   0.00000  Uiso   1.00
H1019  H     0.45140   0.70843   0.77950   0.00000  Uiso   1.00
H1020  H     0.54860   0.95824   0.88717   0.00000  Uiso   1.00
H1021  H     0.40481   0.80793   0.91814   0.00000  Uiso   1.00
H1022  H     0.63919   0.88302   0.72853   0.00000  Uiso   1.00
H1023  H     0.59580   0.80707   0.91851   0.00000  Uiso   1.00
H1024  H     0.40360   0.85593   0.74801   0.00000  Uiso   1.00
N1025  N     0.50000   0.95240   0.83333   0.00000  Uiso   1.00
N1026  N     0.50000   0.71427   0.83333   0.00000  Uiso   1.00
O1027  O     0.43892   0.87154   0.83333   0.00000  Uiso   1.00
O1028  O     0.62076   0.87012   0.75461   0.00000  Uiso   1.00
O1029  O     0.62549   0.79780   0.91781   0.00000  Uiso   1.00
O1030  O     0.37481   0.86793   0.75003   0.00000  Uiso   1.00
O1031  O     0.56108   0.79513   0.83334   0.00000  Uiso   1.00
O1032  O     0.56108   0.87154   0.83334   0.00000  Uiso   1.00
O1033  O     0.43892   0.79513   0.83333   0.00000  Uiso   1.00
O1034  O     0.50000   0.87155   0.76178   0.00000  Uiso   1.00
O1035  O     0.50000   0.79512   0.90489   0.00000  Uiso   1.00
O1036  O     0.50000   0.87155   0.90489   0.00000  Uiso   1.00
O1037  O     0.50000   0.79512   0.76178   0.00000  Uiso   1.00
O1038  O     0.37523   0.79801   0.91733   0.00000  Uiso   1.00
Zn1039 Zn    0.50000   0.88437   0.83333   0.00000  Uiso   1.00
Zn1040 Zn    0.50000   0.78229   0.83333   0.00000  Uiso   1.00
C1041  C     0.75351   0.83324   0.83335   0.00000  Uiso   1.00
C1042  C     0.68795   0.85146   0.79212   0.00000  Uiso   1.00
C1043  C     0.95728   0.83386   0.83479   0.00000  Uiso   1.00
C1044  C     0.70939   0.83302   0.83354   0.00000  Uiso   1.00
C1045  C     0.86032   0.69075   0.86323   0.00000  Uiso   1.00
C1046  C     0.80634   0.97592   0.80344   0.00000  Uiso   1.00
C1047  C     0.80635   0.69047   0.80344   0.00000  Uiso   1.00
C1048  C     0.86032   0.97620   0.86323   0.00000  Uiso   1.00
C1049  C     0.91316   0.83344   0.83378   0.00000  Uiso   1.00
C1050  C     0.83335   0.83332   0.73957   0.00000  Uiso   1.00
C1051  C     0.83335   0.83334   0.92710   0.00000  Uiso   1.00
C1052  C     0.83334   0.83332   0.68846   0.00000  Uiso   1.00
C1053  C     0.83334   0.83335   0.97820   0.00000  Uiso   1.00
C1054  C     0.68839   0.81504   0.87550   0.00000  Uiso   1.00
C1055  C     0.97779   0.85264   0.79353   0.00000  Uiso   1.00
C1056  C     0.97863   0.81511   0.87590   0.00000  Uiso   1.00
H1057  H     0.88193   0.70894   0.88717   0.00000  Uiso   1.00
H1058  H     0.78473   0.95773   0.77950   0.00000  Uiso   1.00
H1059  H     0.78474   0.70843   0.77950   0.00000  Uiso   1.00
H1060  H     0.88193   0.95824   0.88717   0.00000  Uiso   1.00
H1061  H     0.73814   0.80793   0.91814   0.00000  Uiso   1.00
H1062  H     0.97252   0.88302   0.72853   0.00000  Uiso   1.00
H1063  H     0.92913   0.80707   0.91851   0.00000  Uiso   1.00
H1064  H     0.73693   0.85593   0.74801   0.00000  Uiso   1.00
N1065  N     0.83333   0.95240   0.83333   0.00000  Uiso   1.00
N1066  N     0.83333   0.71427   0.83333   0.00000  Uiso   1.00
O1067  O     0.77226   0.87154   0.83333   0.00000  Uiso   1.00
O1068  O     0.95410   0.87012   0.75461   0.00000  Uiso   1.00
O1069  O     0.95883   0.79780   0.91781   0.00000  Uiso   1.00
O1070  O     0.70814   0.86793   0.75003   0.00000  Uiso   1.00
O1071  O     0.89441   0.79513   0.83334   0.00000  Uiso   1.00
O1072  O     0.89441   0.87154   0.83334   0.00000  Uiso   1.00
O1073  O     0.77226   0.79513   0.83333   0.00000  Uiso   1.00
O1074  O     0.83334   0.87155   0.76178   0.00000  Uiso   1.00
O1075  O     0.83333   0.79512   0.90489   0.00000  Uiso   1.00
O1076  O     0.83333   0.87155   0.90489   0.00000  Uiso   1.00
O1077  O     0.83334   0.79512   0.76178   0.00000  Uiso   1.00
O1078  O     0.70856   0.79801   0.91733   0.00000  Uiso   1.00
Zn1079 Zn    0.83333   0.88437   0.83333   0.00000  Uiso   1.00
Zn1080 Zn    0.83333   0.78229   0.83333   0.00000  Uiso   1.00
loop_
_geom_bond_atom_site_label_1
_geom_bond_atom_site_label_2
_geom_bond_distance
_geom_bond_site_symmetry_2
_ccdc_geom_bond_type
C1     C4      1.409   .     S
C1     O33     1.280   .     A
C1     O27     1.281   .     A
C2     C4      1.412   .     A
C2     O30     1.386   .     S
C2     C95     1.390   1_455 S
C3     C9      1.409   .     S
C3     C15     1.399   .     A
C3     C16     1.408   .     A
C4     C14     1.412   .     A
C5     H17     1.082   .     S
C5     N26     1.367   .     A
C5     C248    1.419   1_545 S
C6     H18     1.082   .     S
C6     N25     1.367   .     A
C6     C127    1.419   .     S
C7     N26     1.367   .     A
C7     H19     1.082   .     S
C7     C246    1.419   1_545 S
C8     N25     1.367   .     A
C8     H20     1.082   .     S
C8     C125    1.419   .     S
C9     O31     1.281   .     A
C9     O32     1.280   .     A
C10    O34     1.278   .     A
C10    C12     1.367   .     S
C10    O37     1.279   .     A
C11    O35     1.278   .     A
C11    C13     1.366   .     S
C11    O36     1.278   .     A
C12    C733    1.166   1_554 S
C13    C372    1.166   .     S
C14    O38     1.386   .     S
C14    C96     1.376   1_455 S
C15    O28     1.387   .     S
C15    C42     1.390   .     S
C16    O29     1.386   .     S
C16    C54     1.376   .     S
H21    O38     0.988   .     S
H22    O28     0.989   .     S
H23    O29     0.988   .     S
H24    O30     0.989   .     S
N25    Zn39    2.015   .     S
N26    Zn40    2.015   .     S
O27    Zn39    1.985   .     S
O31    Zn40    1.985   .     S
O32    Zn39    1.988   .     S
O33    Zn40    1.988   .     S
O34    Zn39    1.950   .     S
O35    Zn40    1.950   .     S
O36    Zn39    1.951   .     S
O37    Zn40    1.951   .     S
C41    C44     1.409   .     S
C41    O73     1.280   .     A
C41    O67     1.281   .     A
C42    C44     1.412   .     A
C42    O70     1.386   .     S
C43    C49     1.409   .     S
C43    C55     1.399   .     A
C43    C56     1.408   .     A
C44    C54     1.412   .     A
C45    H57     1.082   .     S
C45    N66     1.367   .     A
C45    C288    1.419   1_545 S
C46    H58     1.082   .     S
C46    N65     1.367   .     A
C46    C167    1.419   .     S
C47    N66     1.367   .     A
C47    H59     1.082   .     S
C47    C286    1.419   1_545 S
C48    N65     1.367   .     A
C48    H60     1.082   .     S
C48    C165    1.419   .     S
C49    O71     1.281   .     A
C49    O72     1.280   .     A
C50    O74     1.278   .     A
C50    C52     1.367   .     S
C50    O77     1.279   .     A
C51    O75     1.278   .     A
C51    C53     1.366   .     S
C51    O76     1.278   .     A
C52    C773    1.166   1_554 S
C53    C412    1.166   .     S
C54    O78     1.386   .     S
C55    O68     1.387   .     S
C55    C82     1.390   .     S
C56    O69     1.386   .     S
C56    C94     1.376   .     S
H61    O78     0.988   .     S
H62    O68     0.989   .     S
H63    O69     0.988   .     S
H64    O70     0.989   .     S
N65    Zn79    2.015   .     S
N66    Zn80    2.015   .     S
O67    Zn79    1.985   .     S
O71    Zn80    1.985   .     S
O72    Zn79    1.988   .     S
O73    Zn80    1.988   .     S
O74    Zn79    1.950   .     S
O75    Zn80    1.950   .     S
O76    Zn79    1.951   .     S
O77    Zn80    1.951   .     S
C81    C84     1.409   .     S
C81    O113    1.280   .     A
C81    O107    1.281   .     A
C82    C84     1.412   .     A
C82    O110    1.386   .     S
C83    C89     1.409   .     S
C83    C95     1.399   .     A
C83    C96     1.408   .     A
C84    C94     1.412   .     A
C85    H97     1.082   .     S
C85    N106    1.367   .     A
C85    C328    1.419   1_545 S
C86    H98     1.082   .     S
C86    N105    1.367   .     A
C86    C207    1.419   .     S
C87    N106    1.367   .     A
C87    H99     1.082   .     S
C87    C326    1.419   1_545 S
C88    N105    1.367   .     A
C88    H100    1.082   .     S
C88    C205    1.419   .     S
C89    O111    1.281   .     A
C89    O112    1.280   .     A
C90    O114    1.278   .     A
C90    C92     1.367   .     S
C90    O117    1.279   .     A
C91    O115    1.278   .     A
C91    C93     1.366   .     S
C91    O116    1.278   .     A
C92    C813    1.166   1_554 S
C93    C452    1.166   .     S
C94    O118    1.386   .     S
C95    O108    1.387   .     S
C95    C2      1.390   1_655 S
C96    O109    1.386   .     S
C96    C14     1.376   1_655 S
H101   O118    0.988   .     S
H102   O108    0.989   .     S
H103   O109    0.988   .     S
H104   O110    0.989   .     S
N105   Zn119   2.015   .     S
N106   Zn120   2.015   .     S
O107   Zn119   1.985   .     S
O111   Zn120   1.985   .     S
O112   Zn119   1.988   .     S
O113   Zn120   1.988   .     S
O114   Zn119   1.950   .     S
O115   Zn120   1.950   .     S
O116   Zn119   1.951   .     S
O117   Zn120   1.951   .     S
C121   C124    1.409   .     S
C121   O153    1.280   .     A
C121   O147    1.281   .     A
C122   C124    1.412   .     A
C122   O150    1.386   .     S
C122   C215    1.390   1_455 S
C123   C129    1.409   .     S
C123   C135    1.399   .     A
C123   C136    1.408   .     A
C124   C134    1.412   .     A
C125   H137    1.082   .     S
C125   N146    1.367   .     A
C126   H138    1.082   .     S
C126   N145    1.367   .     A
C126   C247    1.419   .     S
C127   N146    1.367   .     A
C127   H139    1.082   .     S
C128   N145    1.367   .     A
C128   H140    1.082   .     S
C128   C245    1.419   .     S
C129   O151    1.281   .     A
C129   O152    1.280   .     A
C130   O154    1.278   .     A
C130   C132    1.367   .     S
C130   O157    1.279   .     A
C131   O155    1.278   .     A
C131   C133    1.366   .     S
C131   O156    1.278   .     A
C132   C853    1.166   1_554 S
C133   C492    1.166   .     S
C134   O158    1.386   .     S
C134   C216    1.376   1_455 S
C135   O148    1.387   .     S
C135   C162    1.390   .     S
C136   O149    1.386   .     S
C136   C174    1.376   .     S
H141   O158    0.988   .     S
H142   O148    0.989   .     S
H143   O149    0.988   .     S
H144   O150    0.989   .     S
N145   Zn159   2.015   .     S
N146   Zn160   2.015   .     S
O147   Zn159   1.985   .     S
O151   Zn160   1.985   .     S
O152   Zn159   1.988   .     S
O153   Zn160   1.988   .     S
O154   Zn159   1.950   .     S
O155   Zn160   1.950   .     S
O156   Zn159   1.951   .     S
O157   Zn160   1.951   .     S
C161   C164    1.409   .     S
C161   O193    1.280   .     A
C161   O187    1.281   .     A
C162   C164    1.412   .     A
C162   O190    1.386   .     S
C163   C169    1.409   .     S
C163   C175    1.399   .     A
C163   C176    1.408   .     A
C164   C174    1.412   .     A
C165   H177    1.082   .     S
C165   N186    1.367   .     A
C166   H178    1.082   .     S
C166   N185    1.367   .     A
C166   C287    1.419   .     S
C167   N186    1.367   .     A
C167   H179    1.082   .     S
C168   N185    1.367   .     A
C168   H180    1.082   .     S
C168   C285    1.419   .     S
C169   O191    1.281   .     A
C169   O192    1.280   .     A
C170   O194    1.278   .     A
C170   C172    1.367   .     S
C170   O197    1.279   .     A
C171   O195    1.278   .     A
C171   C173    1.366   .     S
C171   O196    1.278   .     A
C172   C893    1.166   1_554 S
C173   C532    1.166   .     S
C174   O198    1.386   .     S
C175   O188    1.387   .     S
C175   C202    1.390   .     S
C176   O189    1.386   .     S
C176   C214    1.376   .     S
H181   O198    0.988   .     S
H182   O188    0.989   .     S
H183   O189    0.988   .     S
H184   O190    0.989   .     S
N185   Zn199   2.015   .     S
N186   Zn200   2.015   .     S
O187   Zn199   1.985   .     S
O191   Zn200   1.985   .     S
O192   Zn199   1.988   .     S
O193   Zn200   1.988   .     S
O194   Zn199   1.950   .     S
O195   Zn200   1.950   .     S
O196   Zn199   1.951   .     S
O197   Zn200   1.951   .     S
C201   C204    1.409   .     S
C201   O233    1.280   .     A
C201   O227    1.281   .     A
C202   C204    1.412   .     A
C202   O230    1.386   .     S
C203   C209    1.409   .     S
C203   C215    1.399   .     A
C203   C216    1.408   .     A
C204   C214    1.412   .     A
C205   H217    1.082   .     S
C205   N226    1.367   .     A
C206   H218    1.082   .     S
C206   N225    1.367   .     A
C206   C327    1.419   .     S
C207   N226    1.367   .     A
C207   H219    1.082   .     S
C208   N225    1.367   .     A
C208   H220    1.082   .     S
C208   C325    1.419   .     S
C209   O231    1.281   .     A
C209   O232    1.280   .     A
C210   O234    1.278   .     A
C210   C212    1.367   .     S
C210   O237    1.279   .     A
C211   O235    1.278   .     A
C211   C213    1.366   .     S
C211   O236    1.278   .     A
C212   C933    1.166   1_554 S
C213   C572    1.166   .     S
C214   O238    1.386   .     S
C215   O228    1.387   .     S
C215   C122    1.390   1_655 S
C216   O229    1.386   .     S
C216   C134    1.376   1_655 S
H221   O238    0.988   .     S
H222   O228    0.989   .     S
H223   O229    0.988   .     S
H224   O230    0.989   .     S
N225   Zn239   2.015   .     S
N226   Zn240   2.015   .     S
O227   Zn239   1.985   .     S
O231   Zn240   1.985   .     S
O232   Zn239   1.988   .     S
O233   Zn240   1.988   .     S
O234   Zn239   1.950   .     S
O235   Zn240   1.950   .     S
O236   Zn239   1.951   .     S
O237   Zn240   1.951   .     S
C241   C244    1.409   .     S
C241   O273    1.280   .     A
C241   O267    1.281   .     A
C242   C244    1.412   .     A
C242   O270    1.386   .     S
C242   C335    1.390   1_455 S
C243   C249    1.409   .     S
C243   C255    1.399   .     A
C243   C256    1.408   .     A
C244   C254    1.412   .     A
C245   H257    1.082   .     S
C245   N266    1.367   .     A
C246   H258    1.082   .     S
C246   N265    1.367   .     A
C246   C7      1.419   1_565 S
C247   N266    1.367   .     A
C247   H259    1.082   .     S
C248   N265    1.367   .     A
C248   H260    1.082   .     S
C248   C5      1.419   1_565 S
C249   O271    1.281   .     A
C249   O272    1.280   .     A
C250   O274    1.278   .     A
C250   C252    1.367   .     S
C250   O277    1.279   .     A
C251   O275    1.278   .     A
C251   C253    1.366   .     S
C251   O276    1.278   .     A
C252   C973    1.166   1_554 S
C253   C612    1.166   .     S
C254   O278    1.386   .     S
C254   C336    1.376   1_455 S
C255   O268    1.387   .     S
C255   C282    1.390   .     S
C256   O269    1.386   .     S
C256   C294    1.376   .     S
H261   O278    0.988   .     S
H262   O268    0.989   .     S
H263   O269    0.988   .     S
H264   O270    0.989   .     S
N265   Zn279   2.015   .     S
N266   Zn280   2.015   .     S
O267   Zn279   1.985   .     S
O271   Zn280   1.985   .     S
O272   Zn279   1.988   .     S
O273   Zn280   1.988   .     S
O274   Zn279   1.950   .     S
O275   Zn280   1.950   .     S
O276   Zn279   1.951   .     S
O277   Zn280   1.951   .     S
C281   C284    1.409   .     S
C281   O313    1.280   .     A
C281   O307    1.281   .     A
C282   C284    1.412   .     A
C282   O310    1.386   .     S
C283   C289    1.409   .     S
C283   C295    1.399   .     A
C283   C296    1.408   .     A
C284   C294    1.412   .     A
C285   H297    1.082   .     S
C285   N306    1.367   .     A
C286   H298    1.082   .     S
C286   N305    1.367   .     A
C286   C47     1.419   1_565 S
C287   N306    1.367   .     A
C287   H299    1.082   .     S
C288   N305    1.367   .     A
C288   H300    1.082   .     S
C288   C45     1.419   1_565 S
C289   O311    1.281   .     A
C289   O312    1.280   .     A
C290   O314    1.278   .     A
C290   C292    1.367   .     S
C290   O317    1.279   .     A
C291   O315    1.278   .     A
C291   C293    1.366   .     S
C291   O316    1.278   .     A
C292   C1013   1.166   1_554 S
C293   C652    1.166   .     S
C294   O318    1.386   .     S
C295   O308    1.387   .     S
C295   C322    1.390   .     S
C296   O309    1.386   .     S
C296   C334    1.376   .     S
H301   O318    0.988   .     S
H302   O308    0.989   .     S
H303   O309    0.988   .     S
H304   O310    0.989   .     S
N305   Zn319   2.015   .     S
N306   Zn320   2.015   .     S
O307   Zn319   1.985   .     S
O311   Zn320   1.985   .     S
O312   Zn319   1.988   .     S
O313   Zn320   1.988   .     S
O314   Zn319   1.950   .     S
O315   Zn320   1.950   .     S
O316   Zn319   1.951   .     S
O317   Zn320   1.951   .     S
C321   C324    1.409   .     S
C321   O353    1.280   .     A
C321   O347    1.281   .     A
C322   C324    1.412   .     A
C322   O350    1.386   .     S
C323   C329    1.409   .     S
C323   C335    1.399   .     A
C323   C336    1.408   .     A
C324   C334    1.412   .     A
C325   H337    1.082   .     S
C325   N346    1.367   .     A
C326   H338    1.082   .     S
C326   N345    1.367   .     A
C326   C87     1.419   1_565 S
C327   N346    1.367   .     A
C327   H339    1.082   .     S
C328   N345    1.367   .     A
C328   H340    1.082   .     S
C328   C85     1.419   1_565 S
C329   O351    1.281   .     A
C329   O352    1.280   .     A
C330   O354    1.278   .     A
C330   C332    1.367   .     S
C330   O357    1.279   .     A
C331   O355    1.278   .     A
C331   C333    1.366   .     S
C331   O356    1.278   .     A
C332   C1053   1.166   1_554 S
C333   C692    1.166   .     S
C334   O358    1.386   .     S
C335   O348    1.387   .     S
C335   C242    1.390   1_655 S
C336   O349    1.386   .     S
C336   C254    1.376   1_655 S
H341   O358    0.988   .     S
H342   O348    0.989   .     S
H343   O349    0.988   .     S
H344   O350    0.989   .     S
N345   Zn359   2.015   .     S
N346   Zn360   2.015   .     S
O347   Zn359   1.985   .     S
O351   Zn360   1.985   .     S
O352   Zn359   1.988   .     S
O353   Zn360   1.988   .     S
O354   Zn359   1.950   .     S
O355   Zn360   1.950   .     S
O356   Zn359   1.951   .     S
O357   Zn360   1.951   .     S
C361   C364    1.409   .     S
C361   O393    1.280   .     A
C361   O387    1.281   .     A
C362   C364    1.412   .     A
C362   O390    1.386   .     S
C362   C455    1.390   1_455 S
C363   C369    1.409   .     S
C363   C375    1.399   .     A
C363   C376    1.408   .     A
C364   C374    1.412   .     A
C365   H377    1.082   .     S
C365   N386    1.367   .     A
C365   C608    1.419   1_545 S
C366   H378    1.082   .     S
C366   N385    1.367   .     A
C366   C487    1.419   .     S
C367   N386    1.367   .     A
C367   H379    1.082   .     S
C367   C606    1.419   1_545 S
C368   N385    1.367   .     A
C368   H380    1.082   .     S
C368   C485    1.419   .     S
C369   O391    1.281   .     A
C369   O392    1.280   .     A
C370   O394    1.278   .     A
C370   C372    1.367   .     S
C370   O397    1.279   .     A
C371   O395    1.278   .     A
C371   C373    1.366   .     S
C371   O396    1.278   .     A
C373   C732    1.166   .     S
C374   O398    1.386   .     S
C374   C456    1.376   1_455 S
C375   O388    1.387   .     S
C375   C402    1.390   .     S
C376   O389    1.386   .     S
C376   C414    1.376   .     S
H381   O398    0.988   .     S
H382   O388    0.989   .     S
H383   O389    0.988   .     S
H384   O390    0.989   .     S
N385   Zn399   2.015   .     S
N386   Zn400   2.015   .     S
O387   Zn399   1.985   .     S
O391   Zn400   1.985   .     S
O392   Zn399   1.988   .     S
O393   Zn400   1.988   .     S
O394   Zn399   1.950   .     S
O395   Zn400   1.950   .     S
O396   Zn399   1.951   .     S
O397   Zn400   1.951   .     S
C401   C404    1.409   .     S
C401   O433    1.280   .     A
C401   O427    1.281   .     A
C402   C404    1.412   .     A
C402   O430    1.386   .     S
C403   C409    1.409   .     S
C403   C415    1.399   .     A
C403   C416    1.408   .     A
C404   C414    1.412   .     A
C405   H417    1.082   .     S
C405   N426    1.367   .     A
C405   C648    1.419   1_545 S
C406   H418    1.082   .     S
C406   N425    1.367   .     A
C406   C527    1.419   .     S
C407   N426    1.367   .     A
C407   H419    1.082   .     S
C407   C646    1.419   1_545 S
C408   N425    1.367   .     A
C408   H420    1.082   .     S
C408   C525    1.419   .     S
C409   O431    1.281   .     A
C409   O432    1.280   .     A
C410   O434    1.278   .     A
C410   C412    1.367   .     S
C410   O437    1.279   .     A
C411   O435    1.278   .     A
C411   C413    1.366   .     S
C411   O436    1.278   .     A
C413   C772    1.166   .     S
C414   O438    1.386   .     S
C415   O428    1.387   .     S
C415   C442    1.390   .     S
C416   O429    1.386   .     S
C416   C454    1.376   .     S
H421   O438    0.988   .     S
H422   O428    0.989   .     S
H423   O429    0.988   .     S
H424   O430    0.989   .     S
N425   Zn439   2.015   .     S
N426   Zn440   2.015   .     S
O427   Zn439   1.985   .     S
O431   Zn440   1.985   .     S
O432   Zn439   1.988   .     S
O433   Zn440   1.988   .     S
O434   Zn439   1.950   .     S
O435   Zn440   1.950   .     S
O436   Zn439   1.951   .     S
O437   Zn440   1.951   .     S
C441   C444    1.409   .     S
C441   O473    1.280   .     A
C441   O467    1.281   .     A
C442   C444    1.412   .     A
C442   O470    1.386   .     S
C443   C449    1.409   .     S
C443   C455    1.399   .     A
C443   C456    1.408   .     A
C444   C454    1.412   .     A
C445   H457    1.082   .     S
C445   N466    1.367   .     A
C445   C688    1.419   1_545 S
C446   H458    1.082   .     S
C446   N465    1.367   .     A
C446   C567    1.419   .     S
C447   N466    1.367   .     A
C447   H459    1.082   .     S
C447   C686    1.419   1_545 S
C448   N465    1.367   .     A
C448   H460    1.082   .     S
C448   C565    1.419   .     S
C449   O471    1.281   .     A
C449   O472    1.280   .     A
C450   O474    1.278   .     A
C450   C452    1.367   .     S
C450   O477    1.279   .     A
C451   O475    1.278   .     A
C451   C453    1.366   .     S
C451   O476    1.278   .     A
C453   C812    1.166   .     S
C454   O478    1.386   .     S
C455   O468    1.387   .     S
C455   C362    1.390   1_655 S
C456   O469    1.386   .     S
C456   C374    1.376   1_655 S
H461   O478    0.988   .     S
H462   O468    0.989   .     S
H463   O469    0.988   .     S
H464   O470    0.989   .     S
N465   Zn479   2.015   .     S
N466   Zn480   2.015   .     S
O467   Zn479   1.985   .     S
O471   Zn480   1.985   .     S
O472   Zn479   1.988   .     S
O473   Zn480   1.988   .     S
O474   Zn479   1.950   .     S
O475   Zn480   1.950   .     S
O476   Zn479   1.951   .     S
O477   Zn480   1.951   .     S
C481   C484    1.409   .     S
C481   O513    1.280   .     A
C481   O507    1.281   .     A
C482   C484    1.412   .     A
C482   O510    1.386   .     S
C482   C575    1.390   1_455 S
C483   C489    1.409   .     S
C483   C495    1.399   .     A
C483   C496    1.408   .     A
C484   C494    1.412   .     A
C485   H497    1.082   .     S
C485   N506    1.367   .     A
C486   H498    1.082   .     S
C486   N505    1.367   .     A
C486   C607    1.419   .     S
C487   N506    1.367   .     A
C487   H499    1.082   .     S
C488   N505    1.367   .     A
C488   H500    1.082   .     S
C488   C605    1.419   .     S
C489   O511    1.281   .     A
C489   O512    1.280   .     A
C490   O514    1.278   .     A
C490   C492    1.367   .     S
C490   O517    1.279   .     A
C491   O515    1.278   .     A
C491   C493    1.366   .     S
C491   O516    1.278   .     A
C493   C852    1.166   .     S
C494   O518    1.386   .     S
C494   C576    1.376   1_455 S
C495   O508    1.387   .     S
C495   C522    1.390   .     S
C496   O509    1.386   .     S
C496   C534    1.376   .     S
H501   O518    0.988   .     S
H502   O508    0.989   .     S
H503   O509    0.988   .     S
H504   O510    0.989   .     S
N505   Zn519   2.015   .     S
N506   Zn520   2.015   .     S
O507   Zn519   1.985   .     S
O511   Zn520   1.985   .     S
O512   Zn519   1.988   .     S
O513   Zn520   1.988   .     S
O514   Zn519   1.950   .     S
O515   Zn520   1.950   .     S
O516   Zn519   1.951   .     S
O517   Zn520   1.951   .     S
C521   C524    1.409   .     S
C521   O553    1.280   .     A
C521   O547    1.281   .     A
C522   C524    1.412   .     A
C522   O550    1.386   .     S
C523   C529    1.409   .     S
C523   C535    1.399   .     A
C523   C536    1.408   .     A
C524   C534    1.412   .     A
C525   H537    1.082   .     S
C525   N546    1.367   .     A
C526   H538    1.082   .     S
C526   N545    1.367   .     A
C526   C647    1.419   .     S
C527   N546    1.367   .     A
C527   H539    1.082   .     S
C528   N545    1.367   .     A
C528   H540    1.082   .     S
C528   C645    1.419   .     S
C529   O551    1.281   .     A
C529   O552    1.280   .     A
C530   O554    1.278   .     A
C530   C532    1.367   .     S
C530   O557    1.279   .     A
C531   O555    1.278   .     A
C531   C533    1.366   .     S
C531   O556    1.278   .     A
C533   C892    1.166   .     S
C534   O558    1.386   .     S
C535   O548    1.387   .     S
C535   C562    1.390   .     S
C536   O549    1.386   .     S
C536   C574    1.376   .     S
H541   O558    0.988   .     S
H542   O548    0.989   .     S
H543   O549    0.988   .     S
H544   O550    0.989   .     S
N545   Zn559   2.015   .     S
N546   Zn560   2.015   .     S
O547   Zn559   1.985   .     S
O551   Zn560   1.985   .     S
O552   Zn559   1.988   .     S
O553   Zn560   1.988   .     S
O554   Zn559   1.950   .     S
O555   Zn560   1.950   .     S
O556   Zn559   1.951   .     S
O557   Zn560   1.951   .     S
C561   C564    1.409   .     S
C561   O593    1.280   .     A
C561   O587    1.281   .     A
C562   C564    1.412   .     A
C562   O590    1.386   .     S
C563   C569    1.409   .     S
C563   C575    1.399   .     A
C563   C576    1.408   .     A
C564   C574    1.412   .     A
C565   H577    1.082   .     S
C565   N586    1.367   .     A
C566   H578    1.082   .     S
C566   N585    1.367   .     A
C566   C687    1.419   .     S
C567   N586    1.367   .     A
C567   H579    1.082   .     S
C568   N585    1.367   .     A
C568   H580    1.082   .     S
C568   C685    1.419   .     S
C569   O591    1.281   .     A
C569   O592    1.280   .     A
C570   O594    1.278   .     A
C570   C572    1.367   .     S
C570   O597    1.279   .     A
C571   O595    1.278   .     A
C571   C573    1.366   .     S
C571   O596    1.278   .     A
C573   C932    1.166   .     S
C574   O598    1.386   .     S
C575   O588    1.387   .     S
C575   C482    1.390   1_655 S
C576   O589    1.386   .     S
C576   C494    1.376   1_655 S
H581   O598    0.988   .     S
H582   O588    0.989   .     S
H583   O589    0.988   .     S
H584   O590    0.989   .     S
N585   Zn599   2.015   .     S
N586   Zn600   2.015   .     S
O587   Zn599   1.985   .     S
O591   Zn600   1.985   .     S
O592   Zn599   1.988   .     S
O593   Zn600   1.988   .     S
O594   Zn599   1.950   .     S
O595   Zn600   1.950   .     S
O596   Zn599   1.951   .     S
O597   Zn600   1.951   .     S
C601   C604    1.409   .     S
C601   O633    1.280   .     A
C601   O627    1.281   .     A
C602   C604    1.412   .     A
C602   O630    1.386   .     S
C602   C695    1.390   1_455 S
C603   C609    1.409   .     S
C603   C615    1.399   .     A
C603   C616    1.408   .     A
C604   C614    1.412   .     A
C605   H617    1.082   .     S
C605   N626    1.367   .     A
C606   H618    1.082   .     S
C606   N625    1.367   .     A
C606   C367    1.419   1_565 S
C607   N626    1.367   .     A
C607   H619    1.082   .     S
C608   N625    1.367   .     A
C608   H620    1.082   .     S
C608   C365    1.419   1_565 S
C609   O631    1.281   .     A
C609   O632    1.280   .     A
C610   O634    1.278   .     A
C610   C612    1.367   .     S
C610   O637    1.279   .     A
C611   O635    1.278   .     A
C611   C613    1.366   .     S
C611   O636    1.278   .     A
C613   C972    1.166   .     S
C614   O638    1.386   .     S
C614   C696    1.376   1_455 S
C615   O628    1.387   .     S
C615   C642    1.390   .     S
C616   O629    1.386   .     S
C616   C654    1.376   .     S
H621   O638    0.988   .     S
H622   O628    0.989   .     S
H623   O629    0.988   .     S
H624   O630    0.989   .     S
N625   Zn639   2.015   .     S
N626   Zn640   2.015   .     S
O627   Zn639   1.985   .     S
O631   Zn640   1.985   .     S
O632   Zn639   1.988   .     S
O633   Zn640   1.988   .     S
O634   Zn639   1.950   .     S
O635   Zn640   1.950   .     S
O636   Zn639   1.951   .     S
O637   Zn640   1.951   .     S
C641   C644    1.409   .     S
C641   O673    1.280   .     A
C641   O667    1.281   .     A
C642   C644    1.412   .     A
C642   O670    1.386   .     S
C643   C649    1.409   .     S
C643   C655    1.399   .     A
C643   C656    1.408   .     A
C644   C654    1.412   .     A
C645   H657    1.082   .     S
C645   N666    1.367   .     A
C646   H658    1.082   .     S
C646   N665    1.367   .     A
C646   C407    1.419   1_565 S
C647   N666    1.367   .     A
C647   H659    1.082   .     S
C648   N665    1.367   .     A
C648   H660    1.082   .     S
C648   C405    1.419   1_565 S
C649   O671    1.281   .     A
C649   O672    1.280   .     A
C650   O674    1.278   .     A
C650   C652    1.367   .     S
C650   O677    1.279   .     A
C651   O675    1.278   .     A
C651   C653    1.366   .     S
C651   O676    1.278   .     A
C653   C1012   1.166   .     S
C654   O678    1.386   .     S
C655   O668    1.387   .     S
C655   C682    1.390   .     S
C656   O669    1.386   .     S
C656   C694    1.376   .     S
H661   O678    0.988   .     S
H662   O668    0.989   .     S
H663   O669    0.988   .     S
H664   O670    0.989   .     S
N665   Zn679   2.015   .     S
N666   Zn680   2.015   .     S
O667   Zn679   1.985   .     S
O671   Zn680   1.985   .     S
O672   Zn679   1.988   .     S
O673   Zn680   1.988   .     S
O674   Zn679   1.950   .     S
O675   Zn680   1.950   .     S
O676   Zn679   1.951   .     S
O677   Zn680   1.951   .     S
C681   C684    1.409   .     S
C681   O713    1.280   .     A
C681   O707    1.281   .     A
C682   C684    1.412   .     A
C682   O710    1.386   .     S
C683   C689    1.409   .     S
C683   C695    1.399   .     A
C683   C696    1.408   .     A
C684   C694    1.412   .     A
C685   H697    1.082   .     S
C685   N706    1.367   .     A
C686   H698    1.082   .     S
C686   N705    1.367   .     A
C686   C447    1.419   1_565 S
C687   N706    1.367   .     A
C687   H699    1.082   .     S
C688   N705    1.367   .     A
C688   H700    1.082   .     S
C688   C445    1.419   1_565 S
C689   O711    1.281   .     A
C689   O712    1.280   .     A
C690   O714    1.278   .     A
C690   C692    1.367   .     S
C690   O717    1.279   .     A
C691   O715    1.278   .     A
C691   C693    1.366   .     S
C691   O716    1.278   .     A
C693   C1052   1.166   .     S
C694   O718    1.386   .     S
C695   O708    1.387   .     S
C695   C602    1.390   1_655 S
C696   O709    1.386   .     S
C696   C614    1.376   1_655 S
H701   O718    0.988   .     S
H702   O708    0.989   .     S
H703   O709    0.988   .     S
H704   O710    0.989   .     S
N705   Zn719   2.015   .     S
N706   Zn720   2.015   .     S
O707   Zn719   1.985   .     S
O711   Zn720   1.985   .     S
O712   Zn719   1.988   .     S
O713   Zn720   1.988   .     S
O714   Zn719   1.950   .     S
O715   Zn720   1.950   .     S
O716   Zn719   1.951   .     S
O717   Zn720   1.951   .     S
C721   C724    1.409   .     S
C721   O753    1.280   .     A
C721   O747    1.281   .     A
C722   C724    1.412   .     A
C722   O750    1.386   .     S
C722   C815    1.390   1_455 S
C723   C729    1.409   .     S
C723   C735    1.399   .     A
C723   C736    1.408   .     A
C724   C734    1.412   .     A
C725   H737    1.082   .     S
C725   N746    1.367   .     A
C725   C968    1.419   1_545 S
C726   H738    1.082   .     S
C726   N745    1.367   .     A
C726   C847    1.419   .     S
C727   N746    1.367   .     A
C727   H739    1.082   .     S
C727   C966    1.419   1_545 S
C728   N745    1.367   .     A
C728   H740    1.082   .     S
C728   C845    1.419   .     S
C729   O751    1.281   .     A
C729   O752    1.280   .     A
C730   O754    1.278   .     A
C730   C732    1.367   .     S
C730   O757    1.279   .     A
C731   O755    1.278   .     A
C731   C733    1.366   .     S
C731   O756    1.278   .     A
C733   C12     1.166   1_556 S
C734   O758    1.386   .     S
C734   C816    1.376   1_455 S
C735   O748    1.387   .     S
C735   C762    1.390   .     S
C736   O749    1.386   .     S
C736   C774    1.376   .     S
H741   O758    0.988   .     S
H742   O748    0.989   .     S
H743   O749    0.988   .     S
H744   O750    0.989   .     S
N745   Zn759   2.015   .     S
N746   Zn760   2.015   .     S
O747   Zn759   1.985   .     S
O751   Zn760   1.985   .     S
O752   Zn759   1.988   .     S
O753   Zn760   1.988   .     S
O754   Zn759   1.950   .     S
O755   Zn760   1.950   .     S
O756   Zn759   1.951   .     S
O757   Zn760   1.951   .     S
C761   C764    1.409   .     S
C761   O793    1.280   .     A
C761   O787    1.281   .     A
C762   C764    1.412   .     A
C762   O790    1.386   .     S
C763   C769    1.409   .     S
C763   C775    1.399   .     A
C763   C776    1.408   .     A
C764   C774    1.412   .     A
C765   H777    1.082   .     S
C765   N786    1.367   .     A
C765   C1008   1.419   1_545 S
C766   H778    1.082   .     S
C766   N785    1.367   .     A
C766   C887    1.419   .     S
C767   N786    1.367   .     A
C767   H779    1.082   .     S
C767   C1006   1.419   1_545 S
C768   N785    1.367   .     A
C768   H780    1.082   .     S
C768   C885    1.419   .     S
C769   O791    1.281   .     A
C769   O792    1.280   .     A
C770   O794    1.278   .     A
C770   C772    1.367   .     S
C770   O797    1.279   .     A
C771   O795    1.278   .     A
C771   C773    1.366   .     S
C771   O796    1.278   .     A
C773   C52     1.166   1_556 S
C774   O798    1.386   .     S
C775   O788    1.387   .     S
C775   C802    1.390   .     S
C776   O789    1.386   .     S
C776   C814    1.376   .     S
H781   O798    0.988   .     S
H782   O788    0.989   .     S
H783   O789    0.988   .     S
H784   O790    0.989   .     S
N785   Zn799   2.015   .     S
N786   Zn800   2.015   .     S
O787   Zn799   1.985   .     S
O791   Zn800   1.985   .     S
O792   Zn799   1.988   .     S
O793   Zn800   1.988   .     S
O794   Zn799   1.950   .     S
O795   Zn800   1.950   .     S
O796   Zn799   1.951   .     S
O797   Zn800   1.951   .     S
C801   C804    1.409   .     S
C801   O833    1.280   .     A
C801   O827    1.281   .     A
C802   C804    1.412   .     A
C802   O830    1.386   .     S
C803   C809    1.409   .     S
C803   C815    1.399   .     A
C803   C816    1.408   .     A
C804   C814    1.412   .     A
C805   H817    1.082   .     S
C805   N826    1.367   .     A
C805   C1048   1.419   1_545 S
C806   H818    1.082   .     S
C806   N825    1.367   .     A
C806   C927    1.419   .     S
C807   N826    1.367   .     A
C807   H819    1.082   .     S
C807   C1046   1.419   1_545 S
C808   N825    1.367   .     A
C808   H820    1.082   .     S
C808   C925    1.419   .     S
C809   O831    1.281   .     A
C809   O832    1.280   .     A
C810   O834    1.278   .     A
C810   C812    1.367   .     S
C810   O837    1.279   .     A
C811   O835    1.278   .     A
C811   C813    1.366   .     S
C811   O836    1.278   .     A
C813   C92     1.166   1_556 S
C814   O838    1.386   .     S
C815   O828    1.387   .     S
C815   C722    1.390   1_655 S
C816   O829    1.386   .     S
C816   C734    1.376   1_655 S
H821   O838    0.988   .     S
H822   O828    0.989   .     S
H823   O829    0.988   .     S
H824   O830    0.989   .     S
N825   Zn839   2.015   .     S
N826   Zn840   2.015   .     S
O827   Zn839   1.985   .     S
O831   Zn840   1.985   .     S
O832   Zn839   1.988   .     S
O833   Zn840   1.988   .     S
O834   Zn839   1.950   .     S
O835   Zn840   1.950   .     S
O836   Zn839   1.951   .     S
O837   Zn840   1.951   .     S
C841   C844    1.409   .     S
C841   O873    1.280   .     A
C841   O867    1.281   .     A
C842   C844    1.412   .     A
C842   O870    1.386   .     S
C842   C935    1.390   1_455 S
C843   C849    1.409   .     S
C843   C855    1.399   .     A
C843   C856    1.408   .     A
C844   C854    1.412   .     A
C845   H857    1.082   .     S
C845   N866    1.367   .     A
C846   H858    1.082   .     S
C846   N865    1.367   .     A
C846   C967    1.419   .     S
C847   N866    1.367   .     A
C847   H859    1.082   .     S
C848   N865    1.367   .     A
C848   H860    1.082   .     S
C848   C965    1.419   .     S
C849   O871    1.281   .     A
C849   O872    1.280   .     A
C850   O874    1.278   .     A
C850   C852    1.367   .     S
C850   O877    1.279   .     A
C851   O875    1.278   .     A
C851   C853    1.366   .     S
C851   O876    1.278   .     A
C853   C132    1.166   1_556 S
C854   O878    1.386   .     S
C854   C936    1.376   1_455 S
C855   O868    1.387   .     S
C855   C882    1.390   .     S
C856   O869    1.386   .     S
C856   C894    1.376   .     S
H861   O878    0.988   .     S
H862   O868    0.989   .     S
H863   O869    0.988   .     S
H864   O870    0.989   .     S
N865   Zn879   2.015   .     S
N866   Zn880   2.015   .     S
O867   Zn879   1.985   .     S
O871   Zn880   1.985   .     S
O872   Zn879   1.988   .     S
O873   Zn880   1.988   .     S
O874   Zn879   1.950   .     S
O875   Zn880   1.950   .     S
O876   Zn879   1.951   .     S
O877   Zn880   1.951   .     S
C881   C884    1.409   .     S
C881   O913    1.280   .     A
C881   O907    1.281   .     A
C882   C884    1.412   .     A
C882   O910    1.386   .     S
C883   C889    1.409   .     S
C883   C895    1.399   .     A
C883   C896    1.408   .     A
C884   C894    1.412   .     A
C885   H897    1.082   .     S
C885   N906    1.367   .     A
C886   H898    1.082   .     S
C886   N905    1.367   .     A
C886   C1007   1.419   .     S
C887   N906    1.367   .     A
C887   H899    1.082   .     S
C888   N905    1.367   .     A
C888   H900    1.082   .     S
C888   C1005   1.419   .     S
C889   O911    1.281   .     A
C889   O912    1.280   .     A
C890   O914    1.278   .     A
C890   C892    1.367   .     S
C890   O917    1.279   .     A
C891   O915    1.278   .     A
C891   C893    1.366   .     S
C891   O916    1.278   .     A
C893   C172    1.166   1_556 S
C894   O918    1.386   .     S
C895   O908    1.387   .     S
C895   C922    1.390   .     S
C896   O909    1.386   .     S
C896   C934    1.376   .     S
H901   O918    0.988   .     S
H902   O908    0.989   .     S
H903   O909    0.988   .     S
H904   O910    0.989   .     S
N905   Zn919   2.015   .     S
N906   Zn920   2.015   .     S
O907   Zn919   1.985   .     S
O911   Zn920   1.985   .     S
O912   Zn919   1.988   .     S
O913   Zn920   1.988   .     S
O914   Zn919   1.950   .     S
O915   Zn920   1.950   .     S
O916   Zn919   1.951   .     S
O917   Zn920   1.951   .     S
C921   C924    1.409   .     S
C921   O953    1.280   .     A
C921   O947    1.281   .     A
C922   C924    1.412   .     A
C922   O950    1.386   .     S
C923   C929    1.409   .     S
C923   C935    1.399   .     A
C923   C936    1.408   .     A
C924   C934    1.412   .     A
C925   H937    1.082   .     S
C925   N946    1.367   .     A
C926   H938    1.082   .     S
C926   N945    1.367   .     A
C926   C1047   1.419   .     S
C927   N946    1.367   .     A
C927   H939    1.082   .     S
C928   N945    1.367   .     A
C928   H940    1.082   .     S
C928   C1045   1.419   .     S
C929   O951    1.281   .     A
C929   O952    1.280   .     A
C930   O954    1.278   .     A
C930   C932    1.367   .     S
C930   O957    1.279   .     A
C931   O955    1.278   .     A
C931   C933    1.366   .     S
C931   O956    1.278   .     A
C933   C212    1.166   1_556 S
C934   O958    1.386   .     S
C935   O948    1.387   .     S
C935   C842    1.390   1_655 S
C936   O949    1.386   .     S
C936   C854    1.376   1_655 S
H941   O958    0.988   .     S
H942   O948    0.989   .     S
H943   O949    0.988   .     S
H944   O950    0.989   .     S
N945   Zn959   2.015   .     S
N946   Zn960   2.015   .     S
O947   Zn959   1.985   .     S
O951   Zn960   1.985   .     S
O952   Zn959   1.988   .     S
O953   Zn960   1.988   .     S
O954   Zn959   1.950   .     S
O955   Zn960   1.950   .     S
O956   Zn959   1.951   .     S
O957   Zn960   1.951   .     S
C961   C964    1.409   .     S
C961   O993    1.280   .     A
C961   O987    1.281   .     A
C962   C964    1.412   .     A
C962   O990    1.386   .     S
C962   C1055   1.390   1_455 S
C963   C969    1.409   .     S
C963   C975    1.399   .     A
C963   C976    1.408   .     A
C964   C974    1.412   .     A
C965   H977    1.082   .     S
C965   N986    1.367   .     A
C966   H978    1.082   .     S
C966   N985    1.367   .     A
C966   C727    1.419   1_565 S
C967   N986    1.367   .     A
C967   H979    1.082   .     S
C968   N985    1.367   .     A
C968   H980    1.082   .     S
C968   C725    1.419   1_565 S
C969   O991    1.281   .     A
C969   O992    1.280   .     A
C970   O994    1.278   .     A
C970   C972    1.367   .     S
C970   O997    1.279   .     A
C971   O995    1.278   .     A
C971   C973    1.366   .     S
C971   O996    1.278   .     A
C973   C252    1.166   1_556 S
C974   O998    1.386   .     S
C974   C1056   1.376   1_455 S
C975   O988    1.387   .     S
C975   C1002   1.390   .     S
C976   O989    1.386   .     S
C976   C1014   1.376   .     S
H981   O998    0.988   .     S
H982   O988    0.989   .     S
H983   O989    0.988   .     S
H984   O990    0.989   .     S
N985   Zn999   2.015   .     S
N986   Zn1000  2.015   .     S
O987   Zn999   1.985   .     S
O991   Zn1000  1.985   .     S
O992   Zn999   1.988   .     S
O993   Zn1000  1.988   .     S
O994   Zn999   1.950   .     S
O995   Zn1000  1.950   .     S
O996   Zn999   1.951   .     S
O997   Zn1000  1.951   .     S
C1001  C1004   1.409   .     S
C1001  O1033   1.280   .     A
C1001  O1027   1.281   .     A
C1002  C1004   1.412   .     A
C1002  O1030   1.386   .     S
C1003  C1009   1.409   .     S
C1003  C1015   1.399   .     A
C1003  C1016   1.408   .     A
C1004  C1014   1.412   .     A
C1005  H1017   1.082   .     S
C1005  N1026   1.367   .     A
C1006  H1018   1.082   .     S
C1006  N1025   1.367   .     A
C1006  C767    1.419   1_565 S
C1007  N1026   1.367   .     A
C1007  H1019   1.082   .     S
C1008  N1025   1.367   .     A
C1008  H1020   1.082   .     S
C1008  C765    1.419   1_565 S
C1009  O1031   1.281   .     A
C1009  O1032   1.280   .     A
C1010  O1034   1.278   .     A
C1010  C1012   1.367   .     S
C1010  O1037   1.279   .     A
C1011  O1035   1.278   .     A
C1011  C1013   1.366   .     S
C1011  O1036   1.278   .     A
C1013  C292    1.166   1_556 S
C1014  O1038   1.386   .     S
C1015  O1028   1.387   .     S
C1015  C1042   1.390   .     S
C1016  O1029   1.386   .     S
C1016  C1054   1.376   .     S
H1021  O1038   0.988   .     S
H1022  O1028   0.989   .     S
H1023  O1029   0.988   .     S
H1024  O1030   0.989   .     S
N1025  Zn1039  2.015   .     S
N1026  Zn1040  2.015   .     S
O1027  Zn1039  1.985   .     S
O1031  Zn1040  1.985   .     S
O1032  Zn1039  1.988   .     S
O1033  Zn1040  1.988   .     S
O1034  Zn1039  1.950   .     S
O1035  Zn1040  1.950   .     S
O1036  Zn1039  1.951   .     S
O1037  Zn1040  1.951   .     S
C1041  C1044   1.409   .     S
C1041  O1073   1.280   .     A
C1041  O1067   1.281   .     A
C1042  C1044   1.412   .     A
C1042  O1070   1.386   .     S
C1043  C1049   1.409   .     S
C1043  C1055   1.399   .     A
C1043  C1056   1.408   .     A
C1044  C1054   1.412   .     A
C1045  H1057   1.082   .     S
C1045  N1066   1.367   .     A
C1046  H1058   1.082   .     S
C1046  N1065   1.367   .     A
C1046  C807    1.419   1_565 S
C1047  N1066   1.367   .     A
C1047  H1059   1.082   .     S
C1048  N1065   1.367   .     A
C1048  H1060   1.082   .     S
C1048  C805    1.419   1_565 S
C1049  O1071   1.281   .     A
C1049  O1072   1.280   .     A
C1050  O1074   1.278   .     A
C1050  C1052   1.367   .     S
C1050  O1077   1.279   .     A
C1051  O1075   1.278   .     A
C1051  C1053   1.366   .     S
C1051  O1076   1.278   .     A
C1053  C332    1.166   1_556 S
C1054  O1078   1.386   .     S
C1055  O1068   1.387   .     S
C1055  C962    1.390   1_655 S
C1056  O1069   1.386   .     S
C1056  C974    1.376   1_655 S
H1061  O1078   0.988   .     S
H1062  O1068   0.989   .     S
H1063  O1069   0.988   .     S
H1064  O1070   0.989   .     S
N1065  Zn1079  2.015   .     S
N1066  Zn1080  2.015   .     S
O1067  Zn1079  1.985   .     S
O1071  Zn1080  1.985   .     S
O1072  Zn1079  1.988   .     S
O1073  Zn1080  1.988   .     S
O1074  Zn1079  1.950   .     S
O1075  Zn1080  1.950   .     S
O1076  Zn1079  1.951   .     S
O1077  Zn1080  1.951   .     S
