data_str_m3_o1_o17_pcu_sym.191
_audit_creation_date              2020-01-03
_audit_creation_method            'Materials Studio'
_symmetry_space_group_name_H-M    'P1'
_symmetry_Int_Tables_number       1
_symmetry_cell_setting            triclinic
loop_
_symmetry_equiv_pos_as_xyz
  x,y,z
_cell_length_a                    32.0985
_cell_length_b                    29.5297
_cell_length_c                    29.8963
_cell_angle_alpha                 89.6893
_cell_angle_beta                  90.0124
_cell_angle_gamma                 89.9243
loop_
_atom_site_label
_atom_site_type_symbol
_atom_site_fract_x
_atom_site_fract_y
_atom_site_fract_z
_atom_site_U_iso_or_equiv
_atom_site_adp_type
_atom_site_occupancy
O1     O     0.10559   0.20487   0.25000   0.00000  Uiso   1.00
O2     O     0.22774   0.12846   0.25001   0.00000  Uiso   1.00
O3     O     0.22774   0.20487   0.25001   0.00000  Uiso   1.00
O4     O     0.10559   0.12846   0.25000   0.00000  Uiso   1.00
C5     C     0.08664   0.16669   0.24997   0.00000  Uiso   1.00
C6     C     0.24669   0.16664   0.25003   0.00000  Uiso   1.00
O7     O     0.16666   0.20489   0.18393   0.00000  Uiso   1.00
O8     O     0.16667   0.12844   0.31608   0.00000  Uiso   1.00
O9     O     0.16667   0.20489   0.31608   0.00000  Uiso   1.00
O10    O     0.16666   0.12844   0.18393   0.00000  Uiso   1.00
C11    C     0.16532   0.16679   0.16355   0.00000  Uiso   1.00
C12    C     0.16801   0.16654   0.33645   0.00000  Uiso   1.00
Zn13   Zn    0.16667   0.21771   0.25000   0.00000  Uiso   1.00
Zn14   Zn    0.16667   0.11563   0.25000   0.00000  Uiso   1.00
C15    C     0.20175   0.18972   0.40719   0.00000  Uiso   1.00
C16    C     0.13157   0.14361   0.09282   0.00000  Uiso   1.00
C17    C     0.17024   0.16612   0.38413   0.00000  Uiso   1.00
C18    C     0.16308   0.16721   0.11587   0.00000  Uiso   1.00
C19    C     0.13936   0.14193   0.40634   0.00000  Uiso   1.00
C20    C     0.19395   0.19141   0.09366   0.00000  Uiso   1.00
C21    C     0.13789   0.14183   0.45238   0.00000  Uiso   1.00
C22    C     0.19542   0.19153   0.04762   0.00000  Uiso   1.00
C23    C     0.16775   0.16653   0.47662   0.00000  Uiso   1.00
C24    C     0.16556   0.16682   0.02338   0.00000  Uiso   1.00
C25    C     0.19980   0.19081   0.45419   0.00000  Uiso   1.00
C26    C     0.13351   0.14255   0.04581   0.00000  Uiso   1.00
C27    C     0.10654   0.11771   0.47432   0.00000  Uiso   1.00
C28    C     0.22676   0.21565   0.02568   0.00000  Uiso   1.00
C29    C     0.10433   0.11795   0.02057   0.00000  Uiso   1.00
C30    C     0.22898   0.21541   0.47943   0.00000  Uiso   1.00
H31    H     0.11584   0.12380   0.38741   0.00000  Uiso   1.00
H32    H     0.21747   0.20955   0.11258   0.00000  Uiso   1.00
H33    H     0.08360   0.09863   0.45563   0.00000  Uiso   1.00
H34    H     0.24970   0.23474   0.04436   0.00000  Uiso   1.00
H35    H     0.07968   0.09849   0.03606   0.00000  Uiso   1.00
H36    H     0.25363   0.23487   0.46394   0.00000  Uiso   1.00
C37    C     0.02140   0.12769   0.23663   0.00000  Uiso   1.00
C38    C     0.31194   0.20564   0.26337   0.00000  Uiso   1.00
C39    C     0.31204   0.12763   0.23677   0.00000  Uiso   1.00
C40    C     0.02130   0.20570   0.26323   0.00000  Uiso   1.00
H41    H     0.03778   0.09755   0.22585   0.00000  Uiso   1.00
H42    H     0.29555   0.23578   0.27415   0.00000  Uiso   1.00
H43    H     0.29573   0.09745   0.22609   0.00000  Uiso   1.00
H44    H     0.03760   0.23589   0.27391   0.00000  Uiso   1.00
C45    C     0.29083   0.16662   0.25010   0.00000  Uiso   1.00
C46    C     0.04250   0.16671   0.24990   0.00000  Uiso   1.00
C47    C     0.19299   0.02379   0.27732   0.00000  Uiso   1.00
C48    C     0.14034   0.30954   0.22269   0.00000  Uiso   1.00
C49    C     0.14034   0.02417   0.22268   0.00000  Uiso   1.00
C50    C     0.19299   0.30916   0.27732   0.00000  Uiso   1.00
H51    H     0.21404   0.04182   0.29915   0.00000  Uiso   1.00
H52    H     0.11929   0.29152   0.20085   0.00000  Uiso   1.00
H53    H     0.11929   0.04250   0.20084   0.00000  Uiso   1.00
H54    H     0.21404   0.29083   0.29916   0.00000  Uiso   1.00
N55    N     0.16667   0.28573   0.25000   0.00000  Uiso   1.00
N56    N     0.16667   0.04760   0.25000   0.00000  Uiso   1.00
C57    C     0.23779   0.21193   0.38245   0.00000  Uiso   1.00
H58    H     0.26781   0.19929   0.39617   0.00000  Uiso   1.00
H59    H     0.23867   0.20426   0.34627   0.00000  Uiso   1.00
H60    H     0.23609   0.24927   0.38632   0.00000  Uiso   1.00
C61    C     0.09554   0.12139   0.11756   0.00000  Uiso   1.00
H62    H     0.06551   0.13404   0.10385   0.00000  Uiso   1.00
H63    H     0.09724   0.08406   0.11366   0.00000  Uiso   1.00
H64    H     0.09467   0.12905   0.15374   0.00000  Uiso   1.00
O65    O     0.43892   0.20487   0.25000   0.00000  Uiso   1.00
O66    O     0.56108   0.12846   0.25001   0.00000  Uiso   1.00
O67    O     0.56108   0.20487   0.25001   0.00000  Uiso   1.00
O68    O     0.43892   0.12846   0.25000   0.00000  Uiso   1.00
C69    C     0.41997   0.16669   0.24997   0.00000  Uiso   1.00
C70    C     0.58003   0.16664   0.25003   0.00000  Uiso   1.00
O71    O     0.49999   0.20489   0.18393   0.00000  Uiso   1.00
O72    O     0.50001   0.12844   0.31608   0.00000  Uiso   1.00
O73    O     0.50001   0.20489   0.31608   0.00000  Uiso   1.00
O74    O     0.49999   0.12844   0.18393   0.00000  Uiso   1.00
C75    C     0.49866   0.16679   0.16355   0.00000  Uiso   1.00
C76    C     0.50134   0.16654   0.33645   0.00000  Uiso   1.00
Zn77   Zn    0.50000   0.21771   0.25000   0.00000  Uiso   1.00
Zn78   Zn    0.50000   0.11563   0.25000   0.00000  Uiso   1.00
C79    C     0.53508   0.18972   0.40719   0.00000  Uiso   1.00
C80    C     0.46491   0.14361   0.09282   0.00000  Uiso   1.00
C81    C     0.50358   0.16612   0.38413   0.00000  Uiso   1.00
C82    C     0.49641   0.16721   0.11587   0.00000  Uiso   1.00
C83    C     0.47270   0.14193   0.40634   0.00000  Uiso   1.00
C84    C     0.52728   0.19141   0.09366   0.00000  Uiso   1.00
C85    C     0.47122   0.14183   0.45238   0.00000  Uiso   1.00
C86    C     0.52875   0.19153   0.04762   0.00000  Uiso   1.00
C87    C     0.50108   0.16653   0.47662   0.00000  Uiso   1.00
C88    C     0.49889   0.16682   0.02338   0.00000  Uiso   1.00
C89    C     0.53314   0.19081   0.45419   0.00000  Uiso   1.00
C90    C     0.46684   0.14255   0.04581   0.00000  Uiso   1.00
C91    C     0.43987   0.11771   0.47432   0.00000  Uiso   1.00
C92    C     0.56010   0.21565   0.02568   0.00000  Uiso   1.00
C93    C     0.43766   0.11795   0.02057   0.00000  Uiso   1.00
C94    C     0.56231   0.21541   0.47943   0.00000  Uiso   1.00
H95    H     0.44918   0.12380   0.38741   0.00000  Uiso   1.00
H96    H     0.55080   0.20955   0.11258   0.00000  Uiso   1.00
H97    H     0.41694   0.09863   0.45563   0.00000  Uiso   1.00
H98    H     0.58303   0.23474   0.04436   0.00000  Uiso   1.00
H99    H     0.41301   0.09849   0.03606   0.00000  Uiso   1.00
H100   H     0.58696   0.23487   0.46394   0.00000  Uiso   1.00
C101   C     0.35473   0.12769   0.23663   0.00000  Uiso   1.00
C102   C     0.64527   0.20564   0.26337   0.00000  Uiso   1.00
C103   C     0.64537   0.12763   0.23677   0.00000  Uiso   1.00
C104   C     0.35463   0.20570   0.26323   0.00000  Uiso   1.00
H105   H     0.37112   0.09755   0.22585   0.00000  Uiso   1.00
H106   H     0.62888   0.23578   0.27415   0.00000  Uiso   1.00
H107   H     0.62906   0.09745   0.22609   0.00000  Uiso   1.00
H108   H     0.37094   0.23589   0.27391   0.00000  Uiso   1.00
C109   C     0.62417   0.16662   0.25010   0.00000  Uiso   1.00
C110   C     0.37583   0.16671   0.24990   0.00000  Uiso   1.00
C111   C     0.52633   0.02379   0.27732   0.00000  Uiso   1.00
C112   C     0.47367   0.30954   0.22269   0.00000  Uiso   1.00
C113   C     0.47367   0.02417   0.22268   0.00000  Uiso   1.00
C114   C     0.52633   0.30916   0.27732   0.00000  Uiso   1.00
H115   H     0.54737   0.04182   0.29915   0.00000  Uiso   1.00
H116   H     0.45263   0.29152   0.20085   0.00000  Uiso   1.00
H117   H     0.45263   0.04250   0.20084   0.00000  Uiso   1.00
H118   H     0.54737   0.29083   0.29916   0.00000  Uiso   1.00
N119   N     0.50000   0.28573   0.25000   0.00000  Uiso   1.00
N120   N     0.50000   0.04760   0.25000   0.00000  Uiso   1.00
C121   C     0.57113   0.21193   0.38245   0.00000  Uiso   1.00
H122   H     0.60115   0.19929   0.39617   0.00000  Uiso   1.00
H123   H     0.57200   0.20426   0.34627   0.00000  Uiso   1.00
H124   H     0.56942   0.24927   0.38632   0.00000  Uiso   1.00
C125   C     0.42887   0.12139   0.11756   0.00000  Uiso   1.00
H126   H     0.39884   0.13404   0.10385   0.00000  Uiso   1.00
H127   H     0.43058   0.08406   0.11366   0.00000  Uiso   1.00
H128   H     0.42801   0.12905   0.15374   0.00000  Uiso   1.00
O129   O     0.77226   0.20487   0.25000   0.00000  Uiso   1.00
O130   O     0.89441   0.12846   0.25001   0.00000  Uiso   1.00
O131   O     0.89441   0.20487   0.25001   0.00000  Uiso   1.00
O132   O     0.77226   0.12846   0.25000   0.00000  Uiso   1.00
C133   C     0.75331   0.16669   0.24997   0.00000  Uiso   1.00
C134   C     0.91336   0.16664   0.25003   0.00000  Uiso   1.00
O135   O     0.83333   0.20489   0.18393   0.00000  Uiso   1.00
O136   O     0.83334   0.12844   0.31608   0.00000  Uiso   1.00
O137   O     0.83334   0.20489   0.31608   0.00000  Uiso   1.00
O138   O     0.83333   0.12844   0.18393   0.00000  Uiso   1.00
C139   C     0.83199   0.16679   0.16355   0.00000  Uiso   1.00
C140   C     0.83467   0.16654   0.33645   0.00000  Uiso   1.00
Zn141  Zn    0.83333   0.21771   0.25000   0.00000  Uiso   1.00
Zn142  Zn    0.83333   0.11563   0.25000   0.00000  Uiso   1.00
C143   C     0.86841   0.18972   0.40719   0.00000  Uiso   1.00
C144   C     0.79824   0.14361   0.09282   0.00000  Uiso   1.00
C145   C     0.83691   0.16612   0.38413   0.00000  Uiso   1.00
C146   C     0.82975   0.16721   0.11587   0.00000  Uiso   1.00
C147   C     0.80603   0.14193   0.40634   0.00000  Uiso   1.00
C148   C     0.86062   0.19141   0.09366   0.00000  Uiso   1.00
C149   C     0.80455   0.14183   0.45238   0.00000  Uiso   1.00
C150   C     0.86209   0.19153   0.04762   0.00000  Uiso   1.00
C151   C     0.83442   0.16653   0.47662   0.00000  Uiso   1.00
C152   C     0.83222   0.16682   0.02338   0.00000  Uiso   1.00
C153   C     0.86647   0.19081   0.45419   0.00000  Uiso   1.00
C154   C     0.80017   0.14255   0.04581   0.00000  Uiso   1.00
C155   C     0.77320   0.11771   0.47432   0.00000  Uiso   1.00
C156   C     0.89343   0.21565   0.02568   0.00000  Uiso   1.00
C157   C     0.77099   0.11795   0.02057   0.00000  Uiso   1.00
C158   C     0.89565   0.21541   0.47943   0.00000  Uiso   1.00
H159   H     0.78251   0.12380   0.38741   0.00000  Uiso   1.00
H160   H     0.88414   0.20955   0.11258   0.00000  Uiso   1.00
H161   H     0.75027   0.09863   0.45563   0.00000  Uiso   1.00
H162   H     0.91636   0.23474   0.04436   0.00000  Uiso   1.00
H163   H     0.74634   0.09849   0.03606   0.00000  Uiso   1.00
H164   H     0.92029   0.23487   0.46394   0.00000  Uiso   1.00
C165   C     0.68806   0.12769   0.23663   0.00000  Uiso   1.00
C166   C     0.97860   0.20564   0.26337   0.00000  Uiso   1.00
C167   C     0.97870   0.12763   0.23677   0.00000  Uiso   1.00
C168   C     0.68796   0.20570   0.26323   0.00000  Uiso   1.00
H169   H     0.70445   0.09755   0.22585   0.00000  Uiso   1.00
H170   H     0.96222   0.23578   0.27415   0.00000  Uiso   1.00
H171   H     0.96239   0.09745   0.22609   0.00000  Uiso   1.00
H172   H     0.70427   0.23589   0.27391   0.00000  Uiso   1.00
C173   C     0.95750   0.16662   0.25010   0.00000  Uiso   1.00
C174   C     0.70916   0.16671   0.24990   0.00000  Uiso   1.00
C175   C     0.85966   0.02379   0.27732   0.00000  Uiso   1.00
C176   C     0.80701   0.30954   0.22269   0.00000  Uiso   1.00
C177   C     0.80701   0.02417   0.22268   0.00000  Uiso   1.00
C178   C     0.85966   0.30916   0.27732   0.00000  Uiso   1.00
H179   H     0.88071   0.04182   0.29915   0.00000  Uiso   1.00
H180   H     0.78596   0.29152   0.20085   0.00000  Uiso   1.00
H181   H     0.78596   0.04250   0.20084   0.00000  Uiso   1.00
H182   H     0.88071   0.29083   0.29916   0.00000  Uiso   1.00
N183   N     0.83333   0.28573   0.25000   0.00000  Uiso   1.00
N184   N     0.83333   0.04760   0.25000   0.00000  Uiso   1.00
C185   C     0.90446   0.21193   0.38245   0.00000  Uiso   1.00
H186   H     0.93448   0.19929   0.39617   0.00000  Uiso   1.00
H187   H     0.90534   0.20426   0.34627   0.00000  Uiso   1.00
H188   H     0.90276   0.24927   0.38632   0.00000  Uiso   1.00
C189   C     0.76221   0.12139   0.11756   0.00000  Uiso   1.00
H190   H     0.73218   0.13404   0.10385   0.00000  Uiso   1.00
H191   H     0.76391   0.08406   0.11366   0.00000  Uiso   1.00
H192   H     0.76134   0.12905   0.15374   0.00000  Uiso   1.00
O193   O     0.10559   0.53821   0.25000   0.00000  Uiso   1.00
O194   O     0.22774   0.46179   0.25001   0.00000  Uiso   1.00
O195   O     0.22774   0.53821   0.25001   0.00000  Uiso   1.00
O196   O     0.10559   0.46179   0.25000   0.00000  Uiso   1.00
C197   C     0.08664   0.50002   0.24997   0.00000  Uiso   1.00
C198   C     0.24669   0.49998   0.25003   0.00000  Uiso   1.00
O199   O     0.16666   0.53823   0.18393   0.00000  Uiso   1.00
O200   O     0.16667   0.46177   0.31608   0.00000  Uiso   1.00
O201   O     0.16667   0.53823   0.31608   0.00000  Uiso   1.00
O202   O     0.16666   0.46177   0.18393   0.00000  Uiso   1.00
C203   C     0.16532   0.50013   0.16355   0.00000  Uiso   1.00
C204   C     0.16801   0.49987   0.33645   0.00000  Uiso   1.00
Zn205  Zn    0.16667   0.55104   0.25000   0.00000  Uiso   1.00
Zn206  Zn    0.16667   0.44896   0.25000   0.00000  Uiso   1.00
C207   C     0.20175   0.52306   0.40719   0.00000  Uiso   1.00
C208   C     0.13157   0.47695   0.09282   0.00000  Uiso   1.00
C209   C     0.17024   0.49946   0.38413   0.00000  Uiso   1.00
C210   C     0.16308   0.50055   0.11587   0.00000  Uiso   1.00
C211   C     0.13936   0.47527   0.40634   0.00000  Uiso   1.00
C212   C     0.19395   0.52475   0.09366   0.00000  Uiso   1.00
C213   C     0.13789   0.47516   0.45238   0.00000  Uiso   1.00
C214   C     0.19542   0.52486   0.04762   0.00000  Uiso   1.00
C215   C     0.16775   0.49987   0.47662   0.00000  Uiso   1.00
C216   C     0.16556   0.50015   0.02338   0.00000  Uiso   1.00
C217   C     0.19980   0.52414   0.45419   0.00000  Uiso   1.00
C218   C     0.13351   0.47588   0.04581   0.00000  Uiso   1.00
C219   C     0.10654   0.45105   0.47432   0.00000  Uiso   1.00
C220   C     0.22676   0.54898   0.02568   0.00000  Uiso   1.00
C221   C     0.10433   0.45129   0.02057   0.00000  Uiso   1.00
C222   C     0.22898   0.54874   0.47943   0.00000  Uiso   1.00
H223   H     0.11584   0.45713   0.38741   0.00000  Uiso   1.00
H224   H     0.21747   0.54288   0.11258   0.00000  Uiso   1.00
H225   H     0.08360   0.43196   0.45563   0.00000  Uiso   1.00
H226   H     0.24970   0.56807   0.04436   0.00000  Uiso   1.00
H227   H     0.07968   0.43182   0.03606   0.00000  Uiso   1.00
H228   H     0.25363   0.56821   0.46394   0.00000  Uiso   1.00
C229   C     0.02140   0.46103   0.23663   0.00000  Uiso   1.00
C230   C     0.31194   0.53897   0.26337   0.00000  Uiso   1.00
C231   C     0.31204   0.46097   0.23677   0.00000  Uiso   1.00
C232   C     0.02130   0.53903   0.26323   0.00000  Uiso   1.00
H233   H     0.03778   0.43088   0.22585   0.00000  Uiso   1.00
H234   H     0.29555   0.56912   0.27415   0.00000  Uiso   1.00
H235   H     0.29573   0.43078   0.22609   0.00000  Uiso   1.00
H236   H     0.03760   0.56922   0.27391   0.00000  Uiso   1.00
C237   C     0.29083   0.49995   0.25010   0.00000  Uiso   1.00
C238   C     0.04250   0.50005   0.24990   0.00000  Uiso   1.00
C239   C     0.19299   0.35712   0.27732   0.00000  Uiso   1.00
C240   C     0.14034   0.64288   0.22269   0.00000  Uiso   1.00
C241   C     0.14034   0.35751   0.22268   0.00000  Uiso   1.00
C242   C     0.19299   0.64249   0.27732   0.00000  Uiso   1.00
H243   H     0.21404   0.37515   0.29915   0.00000  Uiso   1.00
H244   H     0.11929   0.62485   0.20085   0.00000  Uiso   1.00
H245   H     0.11929   0.37584   0.20084   0.00000  Uiso   1.00
H246   H     0.21404   0.62416   0.29916   0.00000  Uiso   1.00
N247   N     0.16667   0.61907   0.25000   0.00000  Uiso   1.00
N248   N     0.16667   0.38093   0.25000   0.00000  Uiso   1.00
C249   C     0.23779   0.54527   0.38245   0.00000  Uiso   1.00
H250   H     0.26781   0.53262   0.39617   0.00000  Uiso   1.00
H251   H     0.23867   0.53759   0.34627   0.00000  Uiso   1.00
H252   H     0.23609   0.58260   0.38632   0.00000  Uiso   1.00
C253   C     0.09554   0.45472   0.11756   0.00000  Uiso   1.00
H254   H     0.06551   0.46737   0.10385   0.00000  Uiso   1.00
H255   H     0.09724   0.41739   0.11366   0.00000  Uiso   1.00
H256   H     0.09467   0.46238   0.15374   0.00000  Uiso   1.00
O257   O     0.43892   0.53821   0.25000   0.00000  Uiso   1.00
O258   O     0.56108   0.46179   0.25001   0.00000  Uiso   1.00
O259   O     0.56108   0.53821   0.25001   0.00000  Uiso   1.00
O260   O     0.43892   0.46179   0.25000   0.00000  Uiso   1.00
C261   C     0.41997   0.50002   0.24997   0.00000  Uiso   1.00
C262   C     0.58003   0.49998   0.25003   0.00000  Uiso   1.00
O263   O     0.49999   0.53823   0.18393   0.00000  Uiso   1.00
O264   O     0.50001   0.46177   0.31608   0.00000  Uiso   1.00
O265   O     0.50001   0.53823   0.31608   0.00000  Uiso   1.00
O266   O     0.49999   0.46177   0.18393   0.00000  Uiso   1.00
C267   C     0.49866   0.50013   0.16355   0.00000  Uiso   1.00
C268   C     0.50134   0.49987   0.33645   0.00000  Uiso   1.00
Zn269  Zn    0.50000   0.55104   0.25000   0.00000  Uiso   1.00
Zn270  Zn    0.50000   0.44896   0.25000   0.00000  Uiso   1.00
C271   C     0.53508   0.52306   0.40719   0.00000  Uiso   1.00
C272   C     0.46491   0.47695   0.09282   0.00000  Uiso   1.00
C273   C     0.50358   0.49946   0.38413   0.00000  Uiso   1.00
C274   C     0.49641   0.50055   0.11587   0.00000  Uiso   1.00
C275   C     0.47270   0.47527   0.40634   0.00000  Uiso   1.00
C276   C     0.52728   0.52475   0.09366   0.00000  Uiso   1.00
C277   C     0.47122   0.47516   0.45238   0.00000  Uiso   1.00
C278   C     0.52875   0.52486   0.04762   0.00000  Uiso   1.00
C279   C     0.50108   0.49987   0.47662   0.00000  Uiso   1.00
C280   C     0.49889   0.50015   0.02338   0.00000  Uiso   1.00
C281   C     0.53314   0.52414   0.45419   0.00000  Uiso   1.00
C282   C     0.46684   0.47588   0.04581   0.00000  Uiso   1.00
C283   C     0.43987   0.45105   0.47432   0.00000  Uiso   1.00
C284   C     0.56010   0.54898   0.02568   0.00000  Uiso   1.00
C285   C     0.43766   0.45129   0.02057   0.00000  Uiso   1.00
C286   C     0.56231   0.54874   0.47943   0.00000  Uiso   1.00
H287   H     0.44918   0.45713   0.38741   0.00000  Uiso   1.00
H288   H     0.55080   0.54288   0.11258   0.00000  Uiso   1.00
H289   H     0.41694   0.43196   0.45563   0.00000  Uiso   1.00
H290   H     0.58303   0.56807   0.04436   0.00000  Uiso   1.00
H291   H     0.41301   0.43182   0.03606   0.00000  Uiso   1.00
H292   H     0.58696   0.56821   0.46394   0.00000  Uiso   1.00
C293   C     0.35473   0.46103   0.23663   0.00000  Uiso   1.00
C294   C     0.64527   0.53897   0.26337   0.00000  Uiso   1.00
C295   C     0.64537   0.46097   0.23677   0.00000  Uiso   1.00
C296   C     0.35463   0.53903   0.26323   0.00000  Uiso   1.00
H297   H     0.37112   0.43088   0.22585   0.00000  Uiso   1.00
H298   H     0.62888   0.56912   0.27415   0.00000  Uiso   1.00
H299   H     0.62906   0.43078   0.22609   0.00000  Uiso   1.00
H300   H     0.37094   0.56922   0.27391   0.00000  Uiso   1.00
C301   C     0.62417   0.49995   0.25010   0.00000  Uiso   1.00
C302   C     0.37583   0.50005   0.24990   0.00000  Uiso   1.00
C303   C     0.52633   0.35712   0.27732   0.00000  Uiso   1.00
C304   C     0.47367   0.64288   0.22269   0.00000  Uiso   1.00
C305   C     0.47367   0.35751   0.22268   0.00000  Uiso   1.00
C306   C     0.52633   0.64249   0.27732   0.00000  Uiso   1.00
H307   H     0.54737   0.37515   0.29915   0.00000  Uiso   1.00
H308   H     0.45263   0.62485   0.20085   0.00000  Uiso   1.00
H309   H     0.45263   0.37584   0.20084   0.00000  Uiso   1.00
H310   H     0.54737   0.62416   0.29916   0.00000  Uiso   1.00
N311   N     0.50000   0.61907   0.25000   0.00000  Uiso   1.00
N312   N     0.50000   0.38093   0.25000   0.00000  Uiso   1.00
C313   C     0.57113   0.54527   0.38245   0.00000  Uiso   1.00
H314   H     0.60115   0.53262   0.39617   0.00000  Uiso   1.00
H315   H     0.57200   0.53759   0.34627   0.00000  Uiso   1.00
H316   H     0.56942   0.58260   0.38632   0.00000  Uiso   1.00
C317   C     0.42887   0.45472   0.11756   0.00000  Uiso   1.00
H318   H     0.39884   0.46737   0.10385   0.00000  Uiso   1.00
H319   H     0.43058   0.41739   0.11366   0.00000  Uiso   1.00
H320   H     0.42801   0.46238   0.15374   0.00000  Uiso   1.00
O321   O     0.77226   0.53821   0.25000   0.00000  Uiso   1.00
O322   O     0.89441   0.46179   0.25001   0.00000  Uiso   1.00
O323   O     0.89441   0.53821   0.25001   0.00000  Uiso   1.00
O324   O     0.77226   0.46179   0.25000   0.00000  Uiso   1.00
C325   C     0.75331   0.50002   0.24997   0.00000  Uiso   1.00
C326   C     0.91336   0.49998   0.25003   0.00000  Uiso   1.00
O327   O     0.83333   0.53823   0.18393   0.00000  Uiso   1.00
O328   O     0.83334   0.46177   0.31608   0.00000  Uiso   1.00
O329   O     0.83334   0.53823   0.31608   0.00000  Uiso   1.00
O330   O     0.83333   0.46177   0.18393   0.00000  Uiso   1.00
C331   C     0.83199   0.50013   0.16355   0.00000  Uiso   1.00
C332   C     0.83467   0.49987   0.33645   0.00000  Uiso   1.00
Zn333  Zn    0.83333   0.55104   0.25000   0.00000  Uiso   1.00
Zn334  Zn    0.83333   0.44896   0.25000   0.00000  Uiso   1.00
C335   C     0.86841   0.52306   0.40719   0.00000  Uiso   1.00
C336   C     0.79824   0.47695   0.09282   0.00000  Uiso   1.00
C337   C     0.83691   0.49946   0.38413   0.00000  Uiso   1.00
C338   C     0.82975   0.50055   0.11587   0.00000  Uiso   1.00
C339   C     0.80603   0.47527   0.40634   0.00000  Uiso   1.00
C340   C     0.86062   0.52475   0.09366   0.00000  Uiso   1.00
C341   C     0.80455   0.47516   0.45238   0.00000  Uiso   1.00
C342   C     0.86209   0.52486   0.04762   0.00000  Uiso   1.00
C343   C     0.83442   0.49987   0.47662   0.00000  Uiso   1.00
C344   C     0.83222   0.50015   0.02338   0.00000  Uiso   1.00
C345   C     0.86647   0.52414   0.45419   0.00000  Uiso   1.00
C346   C     0.80017   0.47588   0.04581   0.00000  Uiso   1.00
C347   C     0.77320   0.45105   0.47432   0.00000  Uiso   1.00
C348   C     0.89343   0.54898   0.02568   0.00000  Uiso   1.00
C349   C     0.77099   0.45129   0.02057   0.00000  Uiso   1.00
C350   C     0.89565   0.54874   0.47943   0.00000  Uiso   1.00
H351   H     0.78251   0.45713   0.38741   0.00000  Uiso   1.00
H352   H     0.88414   0.54288   0.11258   0.00000  Uiso   1.00
H353   H     0.75027   0.43196   0.45563   0.00000  Uiso   1.00
H354   H     0.91636   0.56807   0.04436   0.00000  Uiso   1.00
H355   H     0.74634   0.43182   0.03606   0.00000  Uiso   1.00
H356   H     0.92029   0.56821   0.46394   0.00000  Uiso   1.00
C357   C     0.68806   0.46103   0.23663   0.00000  Uiso   1.00
C358   C     0.97860   0.53897   0.26337   0.00000  Uiso   1.00
C359   C     0.97870   0.46097   0.23677   0.00000  Uiso   1.00
C360   C     0.68796   0.53903   0.26323   0.00000  Uiso   1.00
H361   H     0.70445   0.43088   0.22585   0.00000  Uiso   1.00
H362   H     0.96222   0.56912   0.27415   0.00000  Uiso   1.00
H363   H     0.96239   0.43078   0.22609   0.00000  Uiso   1.00
H364   H     0.70427   0.56922   0.27391   0.00000  Uiso   1.00
C365   C     0.95750   0.49995   0.25010   0.00000  Uiso   1.00
C366   C     0.70916   0.50005   0.24990   0.00000  Uiso   1.00
C367   C     0.85966   0.35712   0.27732   0.00000  Uiso   1.00
C368   C     0.80701   0.64288   0.22269   0.00000  Uiso   1.00
C369   C     0.80701   0.35751   0.22268   0.00000  Uiso   1.00
C370   C     0.85966   0.64249   0.27732   0.00000  Uiso   1.00
H371   H     0.88071   0.37515   0.29915   0.00000  Uiso   1.00
H372   H     0.78596   0.62485   0.20085   0.00000  Uiso   1.00
H373   H     0.78596   0.37584   0.20084   0.00000  Uiso   1.00
H374   H     0.88071   0.62416   0.29916   0.00000  Uiso   1.00
N375   N     0.83333   0.61907   0.25000   0.00000  Uiso   1.00
N376   N     0.83333   0.38093   0.25000   0.00000  Uiso   1.00
C377   C     0.90446   0.54527   0.38245   0.00000  Uiso   1.00
H378   H     0.93448   0.53262   0.39617   0.00000  Uiso   1.00
H379   H     0.90534   0.53759   0.34627   0.00000  Uiso   1.00
H380   H     0.90276   0.58260   0.38632   0.00000  Uiso   1.00
C381   C     0.76221   0.45472   0.11756   0.00000  Uiso   1.00
H382   H     0.73218   0.46737   0.10385   0.00000  Uiso   1.00
H383   H     0.76391   0.41739   0.11366   0.00000  Uiso   1.00
H384   H     0.76134   0.46238   0.15374   0.00000  Uiso   1.00
O385   O     0.10559   0.87154   0.25000   0.00000  Uiso   1.00
O386   O     0.22774   0.79513   0.25001   0.00000  Uiso   1.00
O387   O     0.22774   0.87154   0.25001   0.00000  Uiso   1.00
O388   O     0.10559   0.79513   0.25000   0.00000  Uiso   1.00
C389   C     0.08664   0.83336   0.24997   0.00000  Uiso   1.00
C390   C     0.24669   0.83331   0.25003   0.00000  Uiso   1.00
O391   O     0.16666   0.87156   0.18393   0.00000  Uiso   1.00
O392   O     0.16667   0.79511   0.31608   0.00000  Uiso   1.00
O393   O     0.16667   0.87156   0.31608   0.00000  Uiso   1.00
O394   O     0.16666   0.79511   0.18393   0.00000  Uiso   1.00
C395   C     0.16532   0.83346   0.16355   0.00000  Uiso   1.00
C396   C     0.16801   0.83321   0.33645   0.00000  Uiso   1.00
Zn397  Zn    0.16667   0.88437   0.25000   0.00000  Uiso   1.00
Zn398  Zn    0.16667   0.78229   0.25000   0.00000  Uiso   1.00
C399   C     0.20175   0.85639   0.40719   0.00000  Uiso   1.00
C400   C     0.13157   0.81028   0.09282   0.00000  Uiso   1.00
C401   C     0.17024   0.83279   0.38413   0.00000  Uiso   1.00
C402   C     0.16308   0.83388   0.11587   0.00000  Uiso   1.00
C403   C     0.13936   0.80860   0.40634   0.00000  Uiso   1.00
C404   C     0.19395   0.85808   0.09366   0.00000  Uiso   1.00
C405   C     0.13789   0.80850   0.45238   0.00000  Uiso   1.00
C406   C     0.19542   0.85819   0.04762   0.00000  Uiso   1.00
C407   C     0.16775   0.83320   0.47662   0.00000  Uiso   1.00
C408   C     0.16556   0.83349   0.02338   0.00000  Uiso   1.00
C409   C     0.19980   0.85747   0.45419   0.00000  Uiso   1.00
C410   C     0.13351   0.80921   0.04581   0.00000  Uiso   1.00
C411   C     0.10654   0.78438   0.47432   0.00000  Uiso   1.00
C412   C     0.22676   0.88232   0.02568   0.00000  Uiso   1.00
C413   C     0.10433   0.78462   0.02057   0.00000  Uiso   1.00
C414   C     0.22898   0.88207   0.47943   0.00000  Uiso   1.00
H415   H     0.11584   0.79047   0.38741   0.00000  Uiso   1.00
H416   H     0.21747   0.87622   0.11258   0.00000  Uiso   1.00
H417   H     0.08360   0.76529   0.45563   0.00000  Uiso   1.00
H418   H     0.24970   0.90140   0.04436   0.00000  Uiso   1.00
H419   H     0.07968   0.76515   0.03606   0.00000  Uiso   1.00
H420   H     0.25363   0.90154   0.46394   0.00000  Uiso   1.00
C421   C     0.02140   0.79436   0.23663   0.00000  Uiso   1.00
C422   C     0.31194   0.87231   0.26337   0.00000  Uiso   1.00
C423   C     0.31204   0.79430   0.23677   0.00000  Uiso   1.00
C424   C     0.02130   0.87237   0.26323   0.00000  Uiso   1.00
H425   H     0.03778   0.76422   0.22585   0.00000  Uiso   1.00
H426   H     0.29555   0.90245   0.27415   0.00000  Uiso   1.00
H427   H     0.29573   0.76411   0.22609   0.00000  Uiso   1.00
H428   H     0.03760   0.90255   0.27391   0.00000  Uiso   1.00
C429   C     0.29083   0.83329   0.25010   0.00000  Uiso   1.00
C430   C     0.04250   0.83338   0.24990   0.00000  Uiso   1.00
C431   C     0.19299   0.69046   0.27732   0.00000  Uiso   1.00
C432   C     0.14034   0.97621   0.22269   0.00000  Uiso   1.00
C433   C     0.14034   0.69084   0.22268   0.00000  Uiso   1.00
C434   C     0.19299   0.97583   0.27732   0.00000  Uiso   1.00
H435   H     0.21404   0.70848   0.29915   0.00000  Uiso   1.00
H436   H     0.11929   0.95818   0.20085   0.00000  Uiso   1.00
H437   H     0.11929   0.70917   0.20084   0.00000  Uiso   1.00
H438   H     0.21404   0.95750   0.29916   0.00000  Uiso   1.00
N439   N     0.16667   0.95240   0.25000   0.00000  Uiso   1.00
N440   N     0.16667   0.71427   0.25000   0.00000  Uiso   1.00
C441   C     0.23779   0.87860   0.38245   0.00000  Uiso   1.00
H442   H     0.26781   0.86596   0.39617   0.00000  Uiso   1.00
H443   H     0.23867   0.87092   0.34627   0.00000  Uiso   1.00
H444   H     0.23609   0.91593   0.38632   0.00000  Uiso   1.00
C445   C     0.09554   0.78805   0.11756   0.00000  Uiso   1.00
H446   H     0.06551   0.80070   0.10385   0.00000  Uiso   1.00
H447   H     0.09724   0.75072   0.11366   0.00000  Uiso   1.00
H448   H     0.09467   0.79571   0.15374   0.00000  Uiso   1.00
O449   O     0.43892   0.87154   0.25000   0.00000  Uiso   1.00
O450   O     0.56108   0.79513   0.25001   0.00000  Uiso   1.00
O451   O     0.56108   0.87154   0.25001   0.00000  Uiso   1.00
O452   O     0.43892   0.79513   0.25000   0.00000  Uiso   1.00
C453   C     0.41997   0.83336   0.24997   0.00000  Uiso   1.00
C454   C     0.58003   0.83331   0.25003   0.00000  Uiso   1.00
O455   O     0.49999   0.87156   0.18393   0.00000  Uiso   1.00
O456   O     0.50001   0.79511   0.31608   0.00000  Uiso   1.00
O457   O     0.50001   0.87156   0.31608   0.00000  Uiso   1.00
O458   O     0.49999   0.79511   0.18393   0.00000  Uiso   1.00
C459   C     0.49866   0.83346   0.16355   0.00000  Uiso   1.00
C460   C     0.50134   0.83321   0.33645   0.00000  Uiso   1.00
Zn461  Zn    0.50000   0.88437   0.25000   0.00000  Uiso   1.00
Zn462  Zn    0.50000   0.78229   0.25000   0.00000  Uiso   1.00
C463   C     0.53508   0.85639   0.40719   0.00000  Uiso   1.00
C464   C     0.46491   0.81028   0.09282   0.00000  Uiso   1.00
C465   C     0.50358   0.83279   0.38413   0.00000  Uiso   1.00
C466   C     0.49641   0.83388   0.11587   0.00000  Uiso   1.00
C467   C     0.47270   0.80860   0.40634   0.00000  Uiso   1.00
C468   C     0.52728   0.85808   0.09366   0.00000  Uiso   1.00
C469   C     0.47122   0.80850   0.45238   0.00000  Uiso   1.00
C470   C     0.52875   0.85819   0.04762   0.00000  Uiso   1.00
C471   C     0.50108   0.83320   0.47662   0.00000  Uiso   1.00
C472   C     0.49889   0.83349   0.02338   0.00000  Uiso   1.00
C473   C     0.53314   0.85747   0.45419   0.00000  Uiso   1.00
C474   C     0.46684   0.80921   0.04581   0.00000  Uiso   1.00
C475   C     0.43987   0.78438   0.47432   0.00000  Uiso   1.00
C476   C     0.56010   0.88232   0.02568   0.00000  Uiso   1.00
C477   C     0.43766   0.78462   0.02057   0.00000  Uiso   1.00
C478   C     0.56231   0.88207   0.47943   0.00000  Uiso   1.00
H479   H     0.44918   0.79047   0.38741   0.00000  Uiso   1.00
H480   H     0.55080   0.87622   0.11258   0.00000  Uiso   1.00
H481   H     0.41694   0.76529   0.45563   0.00000  Uiso   1.00
H482   H     0.58303   0.90140   0.04436   0.00000  Uiso   1.00
H483   H     0.41301   0.76515   0.03606   0.00000  Uiso   1.00
H484   H     0.58696   0.90154   0.46394   0.00000  Uiso   1.00
C485   C     0.35473   0.79436   0.23663   0.00000  Uiso   1.00
C486   C     0.64527   0.87231   0.26337   0.00000  Uiso   1.00
C487   C     0.64537   0.79430   0.23677   0.00000  Uiso   1.00
C488   C     0.35463   0.87237   0.26323   0.00000  Uiso   1.00
H489   H     0.37112   0.76422   0.22585   0.00000  Uiso   1.00
H490   H     0.62888   0.90245   0.27415   0.00000  Uiso   1.00
H491   H     0.62906   0.76411   0.22609   0.00000  Uiso   1.00
H492   H     0.37094   0.90255   0.27391   0.00000  Uiso   1.00
C493   C     0.62417   0.83329   0.25010   0.00000  Uiso   1.00
C494   C     0.37583   0.83338   0.24990   0.00000  Uiso   1.00
C495   C     0.52633   0.69046   0.27732   0.00000  Uiso   1.00
C496   C     0.47367   0.97621   0.22269   0.00000  Uiso   1.00
C497   C     0.47367   0.69084   0.22268   0.00000  Uiso   1.00
C498   C     0.52633   0.97583   0.27732   0.00000  Uiso   1.00
H499   H     0.54737   0.70848   0.29915   0.00000  Uiso   1.00
H500   H     0.45263   0.95818   0.20085   0.00000  Uiso   1.00
H501   H     0.45263   0.70917   0.20084   0.00000  Uiso   1.00
H502   H     0.54737   0.95750   0.29916   0.00000  Uiso   1.00
N503   N     0.50000   0.95240   0.25000   0.00000  Uiso   1.00
N504   N     0.50000   0.71427   0.25000   0.00000  Uiso   1.00
C505   C     0.57113   0.87860   0.38245   0.00000  Uiso   1.00
H506   H     0.60115   0.86596   0.39617   0.00000  Uiso   1.00
H507   H     0.57200   0.87092   0.34627   0.00000  Uiso   1.00
H508   H     0.56942   0.91593   0.38632   0.00000  Uiso   1.00
C509   C     0.42887   0.78805   0.11756   0.00000  Uiso   1.00
H510   H     0.39884   0.80070   0.10385   0.00000  Uiso   1.00
H511   H     0.43058   0.75072   0.11366   0.00000  Uiso   1.00
H512   H     0.42801   0.79571   0.15374   0.00000  Uiso   1.00
O513   O     0.77226   0.87154   0.25000   0.00000  Uiso   1.00
O514   O     0.89441   0.79513   0.25001   0.00000  Uiso   1.00
O515   O     0.89441   0.87154   0.25001   0.00000  Uiso   1.00
O516   O     0.77226   0.79513   0.25000   0.00000  Uiso   1.00
C517   C     0.75331   0.83336   0.24997   0.00000  Uiso   1.00
C518   C     0.91336   0.83331   0.25003   0.00000  Uiso   1.00
O519   O     0.83333   0.87156   0.18393   0.00000  Uiso   1.00
O520   O     0.83334   0.79511   0.31608   0.00000  Uiso   1.00
O521   O     0.83334   0.87156   0.31608   0.00000  Uiso   1.00
O522   O     0.83333   0.79511   0.18393   0.00000  Uiso   1.00
C523   C     0.83199   0.83346   0.16355   0.00000  Uiso   1.00
C524   C     0.83467   0.83321   0.33645   0.00000  Uiso   1.00
Zn525  Zn    0.83333   0.88437   0.25000   0.00000  Uiso   1.00
Zn526  Zn    0.83333   0.78229   0.25000   0.00000  Uiso   1.00
C527   C     0.86841   0.85639   0.40719   0.00000  Uiso   1.00
C528   C     0.79824   0.81028   0.09282   0.00000  Uiso   1.00
C529   C     0.83691   0.83279   0.38413   0.00000  Uiso   1.00
C530   C     0.82975   0.83388   0.11587   0.00000  Uiso   1.00
C531   C     0.80603   0.80860   0.40634   0.00000  Uiso   1.00
C532   C     0.86062   0.85808   0.09366   0.00000  Uiso   1.00
C533   C     0.80455   0.80850   0.45238   0.00000  Uiso   1.00
C534   C     0.86209   0.85819   0.04762   0.00000  Uiso   1.00
C535   C     0.83442   0.83320   0.47662   0.00000  Uiso   1.00
C536   C     0.83222   0.83349   0.02338   0.00000  Uiso   1.00
C537   C     0.86647   0.85747   0.45419   0.00000  Uiso   1.00
C538   C     0.80017   0.80921   0.04581   0.00000  Uiso   1.00
C539   C     0.77320   0.78438   0.47432   0.00000  Uiso   1.00
C540   C     0.89343   0.88232   0.02568   0.00000  Uiso   1.00
C541   C     0.77099   0.78462   0.02057   0.00000  Uiso   1.00
C542   C     0.89565   0.88207   0.47943   0.00000  Uiso   1.00
H543   H     0.78251   0.79047   0.38741   0.00000  Uiso   1.00
H544   H     0.88414   0.87622   0.11258   0.00000  Uiso   1.00
H545   H     0.75027   0.76529   0.45563   0.00000  Uiso   1.00
H546   H     0.91636   0.90140   0.04436   0.00000  Uiso   1.00
H547   H     0.74634   0.76515   0.03606   0.00000  Uiso   1.00
H548   H     0.92029   0.90154   0.46394   0.00000  Uiso   1.00
C549   C     0.68806   0.79436   0.23663   0.00000  Uiso   1.00
C550   C     0.97860   0.87231   0.26337   0.00000  Uiso   1.00
C551   C     0.97870   0.79430   0.23677   0.00000  Uiso   1.00
C552   C     0.68796   0.87237   0.26323   0.00000  Uiso   1.00
H553   H     0.70445   0.76422   0.22585   0.00000  Uiso   1.00
H554   H     0.96222   0.90245   0.27415   0.00000  Uiso   1.00
H555   H     0.96239   0.76411   0.22609   0.00000  Uiso   1.00
H556   H     0.70427   0.90255   0.27391   0.00000  Uiso   1.00
C557   C     0.95750   0.83329   0.25010   0.00000  Uiso   1.00
C558   C     0.70916   0.83338   0.24990   0.00000  Uiso   1.00
C559   C     0.85966   0.69046   0.27732   0.00000  Uiso   1.00
C560   C     0.80701   0.97621   0.22269   0.00000  Uiso   1.00
C561   C     0.80701   0.69084   0.22268   0.00000  Uiso   1.00
C562   C     0.85966   0.97583   0.27732   0.00000  Uiso   1.00
H563   H     0.88071   0.70848   0.29915   0.00000  Uiso   1.00
H564   H     0.78596   0.95818   0.20085   0.00000  Uiso   1.00
H565   H     0.78596   0.70917   0.20084   0.00000  Uiso   1.00
H566   H     0.88071   0.95750   0.29916   0.00000  Uiso   1.00
N567   N     0.83333   0.95240   0.25000   0.00000  Uiso   1.00
N568   N     0.83333   0.71427   0.25000   0.00000  Uiso   1.00
C569   C     0.90446   0.87860   0.38245   0.00000  Uiso   1.00
H570   H     0.93448   0.86596   0.39617   0.00000  Uiso   1.00
H571   H     0.90534   0.87092   0.34627   0.00000  Uiso   1.00
H572   H     0.90276   0.91593   0.38632   0.00000  Uiso   1.00
C573   C     0.76221   0.78805   0.11756   0.00000  Uiso   1.00
H574   H     0.73218   0.80070   0.10385   0.00000  Uiso   1.00
H575   H     0.76391   0.75072   0.11366   0.00000  Uiso   1.00
H576   H     0.76134   0.79571   0.15374   0.00000  Uiso   1.00
O577   O     0.10559   0.20487   0.75000   0.00000  Uiso   1.00
O578   O     0.22774   0.12846   0.75001   0.00000  Uiso   1.00
O579   O     0.22774   0.20487   0.75001   0.00000  Uiso   1.00
O580   O     0.10559   0.12846   0.75000   0.00000  Uiso   1.00
C581   C     0.08664   0.16669   0.74997   0.00000  Uiso   1.00
C582   C     0.24669   0.16664   0.75003   0.00000  Uiso   1.00
O583   O     0.16666   0.20489   0.68393   0.00000  Uiso   1.00
O584   O     0.16667   0.12844   0.81608   0.00000  Uiso   1.00
O585   O     0.16667   0.20489   0.81608   0.00000  Uiso   1.00
O586   O     0.16666   0.12844   0.68393   0.00000  Uiso   1.00
C587   C     0.16532   0.16679   0.66355   0.00000  Uiso   1.00
C588   C     0.16801   0.16654   0.83645   0.00000  Uiso   1.00
Zn589  Zn    0.16667   0.21771   0.75000   0.00000  Uiso   1.00
Zn590  Zn    0.16667   0.11563   0.75000   0.00000  Uiso   1.00
C591   C     0.20175   0.18972   0.90719   0.00000  Uiso   1.00
C592   C     0.13157   0.14361   0.59282   0.00000  Uiso   1.00
C593   C     0.17024   0.16612   0.88413   0.00000  Uiso   1.00
C594   C     0.16308   0.16721   0.61587   0.00000  Uiso   1.00
C595   C     0.13936   0.14193   0.90634   0.00000  Uiso   1.00
C596   C     0.19395   0.19141   0.59366   0.00000  Uiso   1.00
C597   C     0.13789   0.14183   0.95238   0.00000  Uiso   1.00
C598   C     0.19542   0.19153   0.54762   0.00000  Uiso   1.00
C599   C     0.16775   0.16653   0.97662   0.00000  Uiso   1.00
C600   C     0.16556   0.16682   0.52338   0.00000  Uiso   1.00
C601   C     0.19980   0.19081   0.95419   0.00000  Uiso   1.00
C602   C     0.13351   0.14255   0.54581   0.00000  Uiso   1.00
C603   C     0.10654   0.11771   0.97432   0.00000  Uiso   1.00
C604   C     0.22676   0.21565   0.52568   0.00000  Uiso   1.00
C605   C     0.10433   0.11795   0.52057   0.00000  Uiso   1.00
C606   C     0.22898   0.21541   0.97943   0.00000  Uiso   1.00
H607   H     0.11584   0.12380   0.88741   0.00000  Uiso   1.00
H608   H     0.21747   0.20955   0.61258   0.00000  Uiso   1.00
H609   H     0.08360   0.09863   0.95563   0.00000  Uiso   1.00
H610   H     0.24970   0.23474   0.54436   0.00000  Uiso   1.00
H611   H     0.07968   0.09849   0.53606   0.00000  Uiso   1.00
H612   H     0.25363   0.23487   0.96394   0.00000  Uiso   1.00
C613   C     0.02140   0.12769   0.73663   0.00000  Uiso   1.00
C614   C     0.31194   0.20564   0.76337   0.00000  Uiso   1.00
C615   C     0.31204   0.12763   0.73677   0.00000  Uiso   1.00
C616   C     0.02130   0.20570   0.76323   0.00000  Uiso   1.00
H617   H     0.03778   0.09755   0.72585   0.00000  Uiso   1.00
H618   H     0.29555   0.23578   0.77415   0.00000  Uiso   1.00
H619   H     0.29573   0.09745   0.72609   0.00000  Uiso   1.00
H620   H     0.03760   0.23589   0.77391   0.00000  Uiso   1.00
C621   C     0.29083   0.16662   0.75010   0.00000  Uiso   1.00
C622   C     0.04250   0.16671   0.74990   0.00000  Uiso   1.00
C623   C     0.19299   0.02379   0.77732   0.00000  Uiso   1.00
C624   C     0.14034   0.30954   0.72269   0.00000  Uiso   1.00
C625   C     0.14034   0.02417   0.72268   0.00000  Uiso   1.00
C626   C     0.19299   0.30916   0.77732   0.00000  Uiso   1.00
H627   H     0.21404   0.04182   0.79915   0.00000  Uiso   1.00
H628   H     0.11929   0.29152   0.70085   0.00000  Uiso   1.00
H629   H     0.11929   0.04250   0.70084   0.00000  Uiso   1.00
H630   H     0.21404   0.29083   0.79916   0.00000  Uiso   1.00
N631   N     0.16667   0.28573   0.75000   0.00000  Uiso   1.00
N632   N     0.16667   0.04760   0.75000   0.00000  Uiso   1.00
C633   C     0.23779   0.21193   0.88245   0.00000  Uiso   1.00
H634   H     0.26781   0.19929   0.89617   0.00000  Uiso   1.00
H635   H     0.23867   0.20426   0.84627   0.00000  Uiso   1.00
H636   H     0.23609   0.24927   0.88632   0.00000  Uiso   1.00
C637   C     0.09554   0.12139   0.61756   0.00000  Uiso   1.00
H638   H     0.06551   0.13404   0.60385   0.00000  Uiso   1.00
H639   H     0.09724   0.08406   0.61366   0.00000  Uiso   1.00
H640   H     0.09467   0.12905   0.65374   0.00000  Uiso   1.00
O641   O     0.43892   0.20487   0.75000   0.00000  Uiso   1.00
O642   O     0.56108   0.12846   0.75001   0.00000  Uiso   1.00
O643   O     0.56108   0.20487   0.75001   0.00000  Uiso   1.00
O644   O     0.43892   0.12846   0.75000   0.00000  Uiso   1.00
C645   C     0.41997   0.16669   0.74997   0.00000  Uiso   1.00
C646   C     0.58003   0.16664   0.75003   0.00000  Uiso   1.00
O647   O     0.49999   0.20489   0.68393   0.00000  Uiso   1.00
O648   O     0.50001   0.12844   0.81608   0.00000  Uiso   1.00
O649   O     0.50001   0.20489   0.81608   0.00000  Uiso   1.00
O650   O     0.49999   0.12844   0.68393   0.00000  Uiso   1.00
C651   C     0.49866   0.16679   0.66355   0.00000  Uiso   1.00
C652   C     0.50134   0.16654   0.83645   0.00000  Uiso   1.00
Zn653  Zn    0.50000   0.21771   0.75000   0.00000  Uiso   1.00
Zn654  Zn    0.50000   0.11563   0.75000   0.00000  Uiso   1.00
C655   C     0.53508   0.18972   0.90719   0.00000  Uiso   1.00
C656   C     0.46491   0.14361   0.59282   0.00000  Uiso   1.00
C657   C     0.50358   0.16612   0.88413   0.00000  Uiso   1.00
C658   C     0.49641   0.16721   0.61587   0.00000  Uiso   1.00
C659   C     0.47270   0.14193   0.90634   0.00000  Uiso   1.00
C660   C     0.52728   0.19141   0.59366   0.00000  Uiso   1.00
C661   C     0.47122   0.14183   0.95238   0.00000  Uiso   1.00
C662   C     0.52875   0.19153   0.54762   0.00000  Uiso   1.00
C663   C     0.50108   0.16653   0.97662   0.00000  Uiso   1.00
C664   C     0.49889   0.16682   0.52338   0.00000  Uiso   1.00
C665   C     0.53314   0.19081   0.95419   0.00000  Uiso   1.00
C666   C     0.46684   0.14255   0.54581   0.00000  Uiso   1.00
C667   C     0.43987   0.11771   0.97432   0.00000  Uiso   1.00
C668   C     0.56010   0.21565   0.52568   0.00000  Uiso   1.00
C669   C     0.43766   0.11795   0.52057   0.00000  Uiso   1.00
C670   C     0.56231   0.21541   0.97943   0.00000  Uiso   1.00
H671   H     0.44918   0.12380   0.88741   0.00000  Uiso   1.00
H672   H     0.55080   0.20955   0.61258   0.00000  Uiso   1.00
H673   H     0.41694   0.09863   0.95563   0.00000  Uiso   1.00
H674   H     0.58303   0.23474   0.54436   0.00000  Uiso   1.00
H675   H     0.41301   0.09849   0.53606   0.00000  Uiso   1.00
H676   H     0.58696   0.23487   0.96394   0.00000  Uiso   1.00
C677   C     0.35473   0.12769   0.73663   0.00000  Uiso   1.00
C678   C     0.64527   0.20564   0.76337   0.00000  Uiso   1.00
C679   C     0.64537   0.12763   0.73677   0.00000  Uiso   1.00
C680   C     0.35463   0.20570   0.76323   0.00000  Uiso   1.00
H681   H     0.37112   0.09755   0.72585   0.00000  Uiso   1.00
H682   H     0.62888   0.23578   0.77415   0.00000  Uiso   1.00
H683   H     0.62906   0.09745   0.72609   0.00000  Uiso   1.00
H684   H     0.37094   0.23589   0.77391   0.00000  Uiso   1.00
C685   C     0.62417   0.16662   0.75010   0.00000  Uiso   1.00
C686   C     0.37583   0.16671   0.74990   0.00000  Uiso   1.00
C687   C     0.52633   0.02379   0.77732   0.00000  Uiso   1.00
C688   C     0.47367   0.30954   0.72269   0.00000  Uiso   1.00
C689   C     0.47367   0.02417   0.72268   0.00000  Uiso   1.00
C690   C     0.52633   0.30916   0.77732   0.00000  Uiso   1.00
H691   H     0.54737   0.04182   0.79915   0.00000  Uiso   1.00
H692   H     0.45263   0.29152   0.70085   0.00000  Uiso   1.00
H693   H     0.45263   0.04250   0.70084   0.00000  Uiso   1.00
H694   H     0.54737   0.29083   0.79916   0.00000  Uiso   1.00
N695   N     0.50000   0.28573   0.75000   0.00000  Uiso   1.00
N696   N     0.50000   0.04760   0.75000   0.00000  Uiso   1.00
C697   C     0.57113   0.21193   0.88245   0.00000  Uiso   1.00
H698   H     0.60115   0.19929   0.89617   0.00000  Uiso   1.00
H699   H     0.57200   0.20426   0.84627   0.00000  Uiso   1.00
H700   H     0.56942   0.24927   0.88632   0.00000  Uiso   1.00
C701   C     0.42887   0.12139   0.61756   0.00000  Uiso   1.00
H702   H     0.39884   0.13404   0.60385   0.00000  Uiso   1.00
H703   H     0.43058   0.08406   0.61366   0.00000  Uiso   1.00
H704   H     0.42801   0.12905   0.65374   0.00000  Uiso   1.00
O705   O     0.77226   0.20487   0.75000   0.00000  Uiso   1.00
O706   O     0.89441   0.12846   0.75001   0.00000  Uiso   1.00
O707   O     0.89441   0.20487   0.75001   0.00000  Uiso   1.00
O708   O     0.77226   0.12846   0.75000   0.00000  Uiso   1.00
C709   C     0.75331   0.16669   0.74997   0.00000  Uiso   1.00
C710   C     0.91336   0.16664   0.75003   0.00000  Uiso   1.00
O711   O     0.83333   0.20489   0.68393   0.00000  Uiso   1.00
O712   O     0.83334   0.12844   0.81608   0.00000  Uiso   1.00
O713   O     0.83334   0.20489   0.81608   0.00000  Uiso   1.00
O714   O     0.83333   0.12844   0.68393   0.00000  Uiso   1.00
C715   C     0.83199   0.16679   0.66355   0.00000  Uiso   1.00
C716   C     0.83467   0.16654   0.83645   0.00000  Uiso   1.00
Zn717  Zn    0.83333   0.21771   0.75000   0.00000  Uiso   1.00
Zn718  Zn    0.83333   0.11563   0.75000   0.00000  Uiso   1.00
C719   C     0.86841   0.18972   0.90719   0.00000  Uiso   1.00
C720   C     0.79824   0.14361   0.59282   0.00000  Uiso   1.00
C721   C     0.83691   0.16612   0.88413   0.00000  Uiso   1.00
C722   C     0.82975   0.16721   0.61587   0.00000  Uiso   1.00
C723   C     0.80603   0.14193   0.90634   0.00000  Uiso   1.00
C724   C     0.86062   0.19141   0.59366   0.00000  Uiso   1.00
C725   C     0.80455   0.14183   0.95238   0.00000  Uiso   1.00
C726   C     0.86209   0.19153   0.54762   0.00000  Uiso   1.00
C727   C     0.83442   0.16653   0.97662   0.00000  Uiso   1.00
C728   C     0.83222   0.16682   0.52338   0.00000  Uiso   1.00
C729   C     0.86647   0.19081   0.95419   0.00000  Uiso   1.00
C730   C     0.80017   0.14255   0.54581   0.00000  Uiso   1.00
C731   C     0.77320   0.11771   0.97432   0.00000  Uiso   1.00
C732   C     0.89343   0.21565   0.52568   0.00000  Uiso   1.00
C733   C     0.77099   0.11795   0.52057   0.00000  Uiso   1.00
C734   C     0.89565   0.21541   0.97943   0.00000  Uiso   1.00
H735   H     0.78251   0.12380   0.88741   0.00000  Uiso   1.00
H736   H     0.88414   0.20955   0.61258   0.00000  Uiso   1.00
H737   H     0.75027   0.09863   0.95563   0.00000  Uiso   1.00
H738   H     0.91636   0.23474   0.54436   0.00000  Uiso   1.00
H739   H     0.74634   0.09849   0.53606   0.00000  Uiso   1.00
H740   H     0.92029   0.23487   0.96394   0.00000  Uiso   1.00
C741   C     0.68806   0.12769   0.73663   0.00000  Uiso   1.00
C742   C     0.97860   0.20564   0.76337   0.00000  Uiso   1.00
C743   C     0.97870   0.12763   0.73677   0.00000  Uiso   1.00
C744   C     0.68796   0.20570   0.76323   0.00000  Uiso   1.00
H745   H     0.70445   0.09755   0.72585   0.00000  Uiso   1.00
H746   H     0.96222   0.23578   0.77415   0.00000  Uiso   1.00
H747   H     0.96239   0.09745   0.72609   0.00000  Uiso   1.00
H748   H     0.70427   0.23589   0.77391   0.00000  Uiso   1.00
C749   C     0.95750   0.16662   0.75010   0.00000  Uiso   1.00
C750   C     0.70916   0.16671   0.74990   0.00000  Uiso   1.00
C751   C     0.85966   0.02379   0.77732   0.00000  Uiso   1.00
C752   C     0.80701   0.30954   0.72269   0.00000  Uiso   1.00
C753   C     0.80701   0.02417   0.72268   0.00000  Uiso   1.00
C754   C     0.85966   0.30916   0.77732   0.00000  Uiso   1.00
H755   H     0.88071   0.04182   0.79915   0.00000  Uiso   1.00
H756   H     0.78596   0.29152   0.70085   0.00000  Uiso   1.00
H757   H     0.78596   0.04250   0.70084   0.00000  Uiso   1.00
H758   H     0.88071   0.29083   0.79916   0.00000  Uiso   1.00
N759   N     0.83333   0.28573   0.75000   0.00000  Uiso   1.00
N760   N     0.83333   0.04760   0.75000   0.00000  Uiso   1.00
C761   C     0.90446   0.21193   0.88245   0.00000  Uiso   1.00
H762   H     0.93448   0.19929   0.89617   0.00000  Uiso   1.00
H763   H     0.90534   0.20426   0.84627   0.00000  Uiso   1.00
H764   H     0.90276   0.24927   0.88632   0.00000  Uiso   1.00
C765   C     0.76221   0.12139   0.61756   0.00000  Uiso   1.00
H766   H     0.73218   0.13404   0.60385   0.00000  Uiso   1.00
H767   H     0.76391   0.08406   0.61366   0.00000  Uiso   1.00
H768   H     0.76134   0.12905   0.65374   0.00000  Uiso   1.00
O769   O     0.10559   0.53821   0.75000   0.00000  Uiso   1.00
O770   O     0.22774   0.46179   0.75001   0.00000  Uiso   1.00
O771   O     0.22774   0.53821   0.75001   0.00000  Uiso   1.00
O772   O     0.10559   0.46179   0.75000   0.00000  Uiso   1.00
C773   C     0.08664   0.50002   0.74997   0.00000  Uiso   1.00
C774   C     0.24669   0.49998   0.75003   0.00000  Uiso   1.00
O775   O     0.16666   0.53823   0.68393   0.00000  Uiso   1.00
O776   O     0.16667   0.46177   0.81608   0.00000  Uiso   1.00
O777   O     0.16667   0.53823   0.81608   0.00000  Uiso   1.00
O778   O     0.16666   0.46177   0.68393   0.00000  Uiso   1.00
C779   C     0.16532   0.50013   0.66355   0.00000  Uiso   1.00
C780   C     0.16801   0.49987   0.83645   0.00000  Uiso   1.00
Zn781  Zn    0.16667   0.55104   0.75000   0.00000  Uiso   1.00
Zn782  Zn    0.16667   0.44896   0.75000   0.00000  Uiso   1.00
C783   C     0.20175   0.52306   0.90719   0.00000  Uiso   1.00
C784   C     0.13157   0.47695   0.59282   0.00000  Uiso   1.00
C785   C     0.17024   0.49946   0.88413   0.00000  Uiso   1.00
C786   C     0.16308   0.50055   0.61587   0.00000  Uiso   1.00
C787   C     0.13936   0.47527   0.90634   0.00000  Uiso   1.00
C788   C     0.19395   0.52475   0.59366   0.00000  Uiso   1.00
C789   C     0.13789   0.47516   0.95238   0.00000  Uiso   1.00
C790   C     0.19542   0.52486   0.54762   0.00000  Uiso   1.00
C791   C     0.16775   0.49987   0.97662   0.00000  Uiso   1.00
C792   C     0.16556   0.50015   0.52338   0.00000  Uiso   1.00
C793   C     0.19980   0.52414   0.95419   0.00000  Uiso   1.00
C794   C     0.13351   0.47588   0.54581   0.00000  Uiso   1.00
C795   C     0.10654   0.45105   0.97432   0.00000  Uiso   1.00
C796   C     0.22676   0.54898   0.52568   0.00000  Uiso   1.00
C797   C     0.10433   0.45129   0.52057   0.00000  Uiso   1.00
C798   C     0.22898   0.54874   0.97943   0.00000  Uiso   1.00
H799   H     0.11584   0.45713   0.88741   0.00000  Uiso   1.00
H800   H     0.21747   0.54288   0.61258   0.00000  Uiso   1.00
H801   H     0.08360   0.43196   0.95563   0.00000  Uiso   1.00
H802   H     0.24970   0.56807   0.54436   0.00000  Uiso   1.00
H803   H     0.07968   0.43182   0.53606   0.00000  Uiso   1.00
H804   H     0.25363   0.56821   0.96394   0.00000  Uiso   1.00
C805   C     0.02140   0.46103   0.73663   0.00000  Uiso   1.00
C806   C     0.31194   0.53897   0.76337   0.00000  Uiso   1.00
C807   C     0.31204   0.46097   0.73677   0.00000  Uiso   1.00
C808   C     0.02130   0.53903   0.76323   0.00000  Uiso   1.00
H809   H     0.03778   0.43088   0.72585   0.00000  Uiso   1.00
H810   H     0.29555   0.56912   0.77415   0.00000  Uiso   1.00
H811   H     0.29573   0.43078   0.72609   0.00000  Uiso   1.00
H812   H     0.03760   0.56922   0.77391   0.00000  Uiso   1.00
C813   C     0.29083   0.49995   0.75010   0.00000  Uiso   1.00
C814   C     0.04250   0.50005   0.74990   0.00000  Uiso   1.00
C815   C     0.19299   0.35712   0.77732   0.00000  Uiso   1.00
C816   C     0.14034   0.64288   0.72269   0.00000  Uiso   1.00
C817   C     0.14034   0.35751   0.72268   0.00000  Uiso   1.00
C818   C     0.19299   0.64249   0.77732   0.00000  Uiso   1.00
H819   H     0.21404   0.37515   0.79915   0.00000  Uiso   1.00
H820   H     0.11929   0.62485   0.70085   0.00000  Uiso   1.00
H821   H     0.11929   0.37584   0.70084   0.00000  Uiso   1.00
H822   H     0.21404   0.62416   0.79916   0.00000  Uiso   1.00
N823   N     0.16667   0.61907   0.75000   0.00000  Uiso   1.00
N824   N     0.16667   0.38093   0.75000   0.00000  Uiso   1.00
C825   C     0.23779   0.54527   0.88245   0.00000  Uiso   1.00
H826   H     0.26781   0.53262   0.89617   0.00000  Uiso   1.00
H827   H     0.23867   0.53759   0.84627   0.00000  Uiso   1.00
H828   H     0.23609   0.58260   0.88632   0.00000  Uiso   1.00
C829   C     0.09554   0.45472   0.61756   0.00000  Uiso   1.00
H830   H     0.06551   0.46737   0.60385   0.00000  Uiso   1.00
H831   H     0.09724   0.41739   0.61366   0.00000  Uiso   1.00
H832   H     0.09467   0.46238   0.65374   0.00000  Uiso   1.00
O833   O     0.43892   0.53821   0.75000   0.00000  Uiso   1.00
O834   O     0.56108   0.46179   0.75001   0.00000  Uiso   1.00
O835   O     0.56108   0.53821   0.75001   0.00000  Uiso   1.00
O836   O     0.43892   0.46179   0.75000   0.00000  Uiso   1.00
C837   C     0.41997   0.50002   0.74997   0.00000  Uiso   1.00
C838   C     0.58003   0.49998   0.75003   0.00000  Uiso   1.00
O839   O     0.49999   0.53823   0.68393   0.00000  Uiso   1.00
O840   O     0.50001   0.46177   0.81608   0.00000  Uiso   1.00
O841   O     0.50001   0.53823   0.81608   0.00000  Uiso   1.00
O842   O     0.49999   0.46177   0.68393   0.00000  Uiso   1.00
C843   C     0.49866   0.50013   0.66355   0.00000  Uiso   1.00
C844   C     0.50134   0.49987   0.83645   0.00000  Uiso   1.00
Zn845  Zn    0.50000   0.55104   0.75000   0.00000  Uiso   1.00
Zn846  Zn    0.50000   0.44896   0.75000   0.00000  Uiso   1.00
C847   C     0.53508   0.52306   0.90719   0.00000  Uiso   1.00
C848   C     0.46491   0.47695   0.59282   0.00000  Uiso   1.00
C849   C     0.50358   0.49946   0.88413   0.00000  Uiso   1.00
C850   C     0.49641   0.50055   0.61587   0.00000  Uiso   1.00
C851   C     0.47270   0.47527   0.90634   0.00000  Uiso   1.00
C852   C     0.52728   0.52475   0.59366   0.00000  Uiso   1.00
C853   C     0.47122   0.47516   0.95238   0.00000  Uiso   1.00
C854   C     0.52875   0.52486   0.54762   0.00000  Uiso   1.00
C855   C     0.50108   0.49987   0.97662   0.00000  Uiso   1.00
C856   C     0.49889   0.50015   0.52338   0.00000  Uiso   1.00
C857   C     0.53314   0.52414   0.95419   0.00000  Uiso   1.00
C858   C     0.46684   0.47588   0.54581   0.00000  Uiso   1.00
C859   C     0.43987   0.45105   0.97432   0.00000  Uiso   1.00
C860   C     0.56010   0.54898   0.52568   0.00000  Uiso   1.00
C861   C     0.43766   0.45129   0.52057   0.00000  Uiso   1.00
C862   C     0.56231   0.54874   0.97943   0.00000  Uiso   1.00
H863   H     0.44918   0.45713   0.88741   0.00000  Uiso   1.00
H864   H     0.55080   0.54288   0.61258   0.00000  Uiso   1.00
H865   H     0.41694   0.43196   0.95563   0.00000  Uiso   1.00
H866   H     0.58303   0.56807   0.54436   0.00000  Uiso   1.00
H867   H     0.41301   0.43182   0.53606   0.00000  Uiso   1.00
H868   H     0.58696   0.56821   0.96394   0.00000  Uiso   1.00
C869   C     0.35473   0.46103   0.73663   0.00000  Uiso   1.00
C870   C     0.64527   0.53897   0.76337   0.00000  Uiso   1.00
C871   C     0.64537   0.46097   0.73677   0.00000  Uiso   1.00
C872   C     0.35463   0.53903   0.76323   0.00000  Uiso   1.00
H873   H     0.37112   0.43088   0.72585   0.00000  Uiso   1.00
H874   H     0.62888   0.56912   0.77415   0.00000  Uiso   1.00
H875   H     0.62906   0.43078   0.72609   0.00000  Uiso   1.00
H876   H     0.37094   0.56922   0.77391   0.00000  Uiso   1.00
C877   C     0.62417   0.49995   0.75010   0.00000  Uiso   1.00
C878   C     0.37583   0.50005   0.74990   0.00000  Uiso   1.00
C879   C     0.52633   0.35712   0.77732   0.00000  Uiso   1.00
C880   C     0.47367   0.64288   0.72269   0.00000  Uiso   1.00
C881   C     0.47367   0.35751   0.72268   0.00000  Uiso   1.00
C882   C     0.52633   0.64249   0.77732   0.00000  Uiso   1.00
H883   H     0.54737   0.37515   0.79915   0.00000  Uiso   1.00
H884   H     0.45263   0.62485   0.70085   0.00000  Uiso   1.00
H885   H     0.45263   0.37584   0.70084   0.00000  Uiso   1.00
H886   H     0.54737   0.62416   0.79916   0.00000  Uiso   1.00
N887   N     0.50000   0.61907   0.75000   0.00000  Uiso   1.00
N888   N     0.50000   0.38093   0.75000   0.00000  Uiso   1.00
C889   C     0.57113   0.54527   0.88245   0.00000  Uiso   1.00
H890   H     0.60115   0.53262   0.89617   0.00000  Uiso   1.00
H891   H     0.57200   0.53759   0.84627   0.00000  Uiso   1.00
H892   H     0.56942   0.58260   0.88632   0.00000  Uiso   1.00
C893   C     0.42887   0.45472   0.61756   0.00000  Uiso   1.00
H894   H     0.39884   0.46737   0.60385   0.00000  Uiso   1.00
H895   H     0.43058   0.41739   0.61366   0.00000  Uiso   1.00
H896   H     0.42801   0.46238   0.65374   0.00000  Uiso   1.00
O897   O     0.77226   0.53821   0.75000   0.00000  Uiso   1.00
O898   O     0.89441   0.46179   0.75001   0.00000  Uiso   1.00
O899   O     0.89441   0.53821   0.75001   0.00000  Uiso   1.00
O900   O     0.77226   0.46179   0.75000   0.00000  Uiso   1.00
C901   C     0.75331   0.50002   0.74997   0.00000  Uiso   1.00
C902   C     0.91336   0.49998   0.75003   0.00000  Uiso   1.00
O903   O     0.83333   0.53823   0.68393   0.00000  Uiso   1.00
O904   O     0.83334   0.46177   0.81608   0.00000  Uiso   1.00
O905   O     0.83334   0.53823   0.81608   0.00000  Uiso   1.00
O906   O     0.83333   0.46177   0.68393   0.00000  Uiso   1.00
C907   C     0.83199   0.50013   0.66355   0.00000  Uiso   1.00
C908   C     0.83467   0.49987   0.83645   0.00000  Uiso   1.00
Zn909  Zn    0.83333   0.55104   0.75000   0.00000  Uiso   1.00
Zn910  Zn    0.83333   0.44896   0.75000   0.00000  Uiso   1.00
C911   C     0.86841   0.52306   0.90719   0.00000  Uiso   1.00
C912   C     0.79824   0.47695   0.59282   0.00000  Uiso   1.00
C913   C     0.83691   0.49946   0.88413   0.00000  Uiso   1.00
C914   C     0.82975   0.50055   0.61587   0.00000  Uiso   1.00
C915   C     0.80603   0.47527   0.90634   0.00000  Uiso   1.00
C916   C     0.86062   0.52475   0.59366   0.00000  Uiso   1.00
C917   C     0.80455   0.47516   0.95238   0.00000  Uiso   1.00
C918   C     0.86209   0.52486   0.54762   0.00000  Uiso   1.00
C919   C     0.83442   0.49987   0.97662   0.00000  Uiso   1.00
C920   C     0.83222   0.50015   0.52338   0.00000  Uiso   1.00
C921   C     0.86647   0.52414   0.95419   0.00000  Uiso   1.00
C922   C     0.80017   0.47588   0.54581   0.00000  Uiso   1.00
C923   C     0.77320   0.45105   0.97432   0.00000  Uiso   1.00
C924   C     0.89343   0.54898   0.52568   0.00000  Uiso   1.00
C925   C     0.77099   0.45129   0.52057   0.00000  Uiso   1.00
C926   C     0.89565   0.54874   0.97943   0.00000  Uiso   1.00
H927   H     0.78251   0.45713   0.88741   0.00000  Uiso   1.00
H928   H     0.88414   0.54288   0.61258   0.00000  Uiso   1.00
H929   H     0.75027   0.43196   0.95563   0.00000  Uiso   1.00
H930   H     0.91636   0.56807   0.54436   0.00000  Uiso   1.00
H931   H     0.74634   0.43182   0.53606   0.00000  Uiso   1.00
H932   H     0.92029   0.56821   0.96394   0.00000  Uiso   1.00
C933   C     0.68806   0.46103   0.73663   0.00000  Uiso   1.00
C934   C     0.97860   0.53897   0.76337   0.00000  Uiso   1.00
C935   C     0.97870   0.46097   0.73677   0.00000  Uiso   1.00
C936   C     0.68796   0.53903   0.76323   0.00000  Uiso   1.00
H937   H     0.70445   0.43088   0.72585   0.00000  Uiso   1.00
H938   H     0.96222   0.56912   0.77415   0.00000  Uiso   1.00
H939   H     0.96239   0.43078   0.72609   0.00000  Uiso   1.00
H940   H     0.70427   0.56922   0.77391   0.00000  Uiso   1.00
C941   C     0.95750   0.49995   0.75010   0.00000  Uiso   1.00
C942   C     0.70916   0.50005   0.74990   0.00000  Uiso   1.00
C943   C     0.85966   0.35712   0.77732   0.00000  Uiso   1.00
C944   C     0.80701   0.64288   0.72269   0.00000  Uiso   1.00
C945   C     0.80701   0.35751   0.72268   0.00000  Uiso   1.00
C946   C     0.85966   0.64249   0.77732   0.00000  Uiso   1.00
H947   H     0.88071   0.37515   0.79915   0.00000  Uiso   1.00
H948   H     0.78596   0.62485   0.70085   0.00000  Uiso   1.00
H949   H     0.78596   0.37584   0.70084   0.00000  Uiso   1.00
H950   H     0.88071   0.62416   0.79916   0.00000  Uiso   1.00
N951   N     0.83333   0.61907   0.75000   0.00000  Uiso   1.00
N952   N     0.83333   0.38093   0.75000   0.00000  Uiso   1.00
C953   C     0.90446   0.54527   0.88245   0.00000  Uiso   1.00
H954   H     0.93448   0.53262   0.89617   0.00000  Uiso   1.00
H955   H     0.90534   0.53759   0.84627   0.00000  Uiso   1.00
H956   H     0.90276   0.58260   0.88632   0.00000  Uiso   1.00
C957   C     0.76221   0.45472   0.61756   0.00000  Uiso   1.00
H958   H     0.73218   0.46737   0.60385   0.00000  Uiso   1.00
H959   H     0.76391   0.41739   0.61366   0.00000  Uiso   1.00
H960   H     0.76134   0.46238   0.65374   0.00000  Uiso   1.00
O961   O     0.10559   0.87154   0.75000   0.00000  Uiso   1.00
O962   O     0.22774   0.79513   0.75001   0.00000  Uiso   1.00
O963   O     0.22774   0.87154   0.75001   0.00000  Uiso   1.00
O964   O     0.10559   0.79513   0.75000   0.00000  Uiso   1.00
C965   C     0.08664   0.83336   0.74997   0.00000  Uiso   1.00
C966   C     0.24669   0.83331   0.75003   0.00000  Uiso   1.00
O967   O     0.16666   0.87156   0.68393   0.00000  Uiso   1.00
O968   O     0.16667   0.79511   0.81608   0.00000  Uiso   1.00
O969   O     0.16667   0.87156   0.81608   0.00000  Uiso   1.00
O970   O     0.16666   0.79511   0.68393   0.00000  Uiso   1.00
C971   C     0.16532   0.83346   0.66355   0.00000  Uiso   1.00
C972   C     0.16801   0.83321   0.83645   0.00000  Uiso   1.00
Zn973  Zn    0.16667   0.88437   0.75000   0.00000  Uiso   1.00
Zn974  Zn    0.16667   0.78229   0.75000   0.00000  Uiso   1.00
C975   C     0.20175   0.85639   0.90719   0.00000  Uiso   1.00
C976   C     0.13157   0.81028   0.59282   0.00000  Uiso   1.00
C977   C     0.17024   0.83279   0.88413   0.00000  Uiso   1.00
C978   C     0.16308   0.83388   0.61587   0.00000  Uiso   1.00
C979   C     0.13936   0.80860   0.90634   0.00000  Uiso   1.00
C980   C     0.19395   0.85808   0.59366   0.00000  Uiso   1.00
C981   C     0.13789   0.80850   0.95238   0.00000  Uiso   1.00
C982   C     0.19542   0.85819   0.54762   0.00000  Uiso   1.00
C983   C     0.16775   0.83320   0.97662   0.00000  Uiso   1.00
C984   C     0.16556   0.83349   0.52338   0.00000  Uiso   1.00
C985   C     0.19980   0.85747   0.95419   0.00000  Uiso   1.00
C986   C     0.13351   0.80921   0.54581   0.00000  Uiso   1.00
C987   C     0.10654   0.78438   0.97432   0.00000  Uiso   1.00
C988   C     0.22676   0.88232   0.52568   0.00000  Uiso   1.00
C989   C     0.10433   0.78462   0.52057   0.00000  Uiso   1.00
C990   C     0.22898   0.88207   0.97943   0.00000  Uiso   1.00
H991   H     0.11584   0.79047   0.88741   0.00000  Uiso   1.00
H992   H     0.21747   0.87622   0.61258   0.00000  Uiso   1.00
H993   H     0.08360   0.76529   0.95563   0.00000  Uiso   1.00
H994   H     0.24970   0.90140   0.54436   0.00000  Uiso   1.00
H995   H     0.07968   0.76515   0.53606   0.00000  Uiso   1.00
H996   H     0.25363   0.90154   0.96394   0.00000  Uiso   1.00
C997   C     0.02140   0.79436   0.73663   0.00000  Uiso   1.00
C998   C     0.31194   0.87231   0.76337   0.00000  Uiso   1.00
C999   C     0.31204   0.79430   0.73677   0.00000  Uiso   1.00
C1000  C     0.02130   0.87237   0.76323   0.00000  Uiso   1.00
H1001  H     0.03778   0.76422   0.72585   0.00000  Uiso   1.00
H1002  H     0.29555   0.90245   0.77415   0.00000  Uiso   1.00
H1003  H     0.29573   0.76411   0.72609   0.00000  Uiso   1.00
H1004  H     0.03760   0.90255   0.77391   0.00000  Uiso   1.00
C1005  C     0.29083   0.83329   0.75010   0.00000  Uiso   1.00
C1006  C     0.04250   0.83338   0.74990   0.00000  Uiso   1.00
C1007  C     0.19299   0.69046   0.77732   0.00000  Uiso   1.00
C1008  C     0.14034   0.97621   0.72269   0.00000  Uiso   1.00
C1009  C     0.14034   0.69084   0.72268   0.00000  Uiso   1.00
C1010  C     0.19299   0.97583   0.77732   0.00000  Uiso   1.00
H1011  H     0.21404   0.70848   0.79915   0.00000  Uiso   1.00
H1012  H     0.11929   0.95818   0.70085   0.00000  Uiso   1.00
H1013  H     0.11929   0.70917   0.70084   0.00000  Uiso   1.00
H1014  H     0.21404   0.95750   0.79916   0.00000  Uiso   1.00
N1015  N     0.16667   0.95240   0.75000   0.00000  Uiso   1.00
N1016  N     0.16667   0.71427   0.75000   0.00000  Uiso   1.00
C1017  C     0.23779   0.87860   0.88245   0.00000  Uiso   1.00
H1018  H     0.26781   0.86596   0.89617   0.00000  Uiso   1.00
H1019  H     0.23867   0.87092   0.84627   0.00000  Uiso   1.00
H1020  H     0.23609   0.91593   0.88632   0.00000  Uiso   1.00
C1021  C     0.09554   0.78805   0.61756   0.00000  Uiso   1.00
H1022  H     0.06551   0.80070   0.60385   0.00000  Uiso   1.00
H1023  H     0.09724   0.75072   0.61366   0.00000  Uiso   1.00
H1024  H     0.09467   0.79571   0.65374   0.00000  Uiso   1.00
O1025  O     0.43892   0.87154   0.75000   0.00000  Uiso   1.00
O1026  O     0.56108   0.79513   0.75001   0.00000  Uiso   1.00
O1027  O     0.56108   0.87154   0.75001   0.00000  Uiso   1.00
O1028  O     0.43892   0.79513   0.75000   0.00000  Uiso   1.00
C1029  C     0.41997   0.83336   0.74997   0.00000  Uiso   1.00
C1030  C     0.58003   0.83331   0.75003   0.00000  Uiso   1.00
O1031  O     0.49999   0.87156   0.68393   0.00000  Uiso   1.00
O1032  O     0.50001   0.79511   0.81608   0.00000  Uiso   1.00
O1033  O     0.50001   0.87156   0.81608   0.00000  Uiso   1.00
O1034  O     0.49999   0.79511   0.68393   0.00000  Uiso   1.00
C1035  C     0.49866   0.83346   0.66355   0.00000  Uiso   1.00
C1036  C     0.50134   0.83321   0.83645   0.00000  Uiso   1.00
Zn1037 Zn    0.50000   0.88437   0.75000   0.00000  Uiso   1.00
Zn1038 Zn    0.50000   0.78229   0.75000   0.00000  Uiso   1.00
C1039  C     0.53508   0.85639   0.90719   0.00000  Uiso   1.00
C1040  C     0.46491   0.81028   0.59282   0.00000  Uiso   1.00
C1041  C     0.50358   0.83279   0.88413   0.00000  Uiso   1.00
C1042  C     0.49641   0.83388   0.61587   0.00000  Uiso   1.00
C1043  C     0.47270   0.80860   0.90634   0.00000  Uiso   1.00
C1044  C     0.52728   0.85808   0.59366   0.00000  Uiso   1.00
C1045  C     0.47122   0.80850   0.95238   0.00000  Uiso   1.00
C1046  C     0.52875   0.85819   0.54762   0.00000  Uiso   1.00
C1047  C     0.50108   0.83320   0.97662   0.00000  Uiso   1.00
C1048  C     0.49889   0.83349   0.52338   0.00000  Uiso   1.00
C1049  C     0.53314   0.85747   0.95419   0.00000  Uiso   1.00
C1050  C     0.46684   0.80921   0.54581   0.00000  Uiso   1.00
C1051  C     0.43987   0.78438   0.97432   0.00000  Uiso   1.00
C1052  C     0.56010   0.88232   0.52568   0.00000  Uiso   1.00
C1053  C     0.43766   0.78462   0.52057   0.00000  Uiso   1.00
C1054  C     0.56231   0.88207   0.97943   0.00000  Uiso   1.00
H1055  H     0.44918   0.79047   0.88741   0.00000  Uiso   1.00
H1056  H     0.55080   0.87622   0.61258   0.00000  Uiso   1.00
H1057  H     0.41694   0.76529   0.95563   0.00000  Uiso   1.00
H1058  H     0.58303   0.90140   0.54436   0.00000  Uiso   1.00
H1059  H     0.41301   0.76515   0.53606   0.00000  Uiso   1.00
H1060  H     0.58696   0.90154   0.96394   0.00000  Uiso   1.00
C1061  C     0.35473   0.79436   0.73663   0.00000  Uiso   1.00
C1062  C     0.64527   0.87231   0.76337   0.00000  Uiso   1.00
C1063  C     0.64537   0.79430   0.73677   0.00000  Uiso   1.00
C1064  C     0.35463   0.87237   0.76323   0.00000  Uiso   1.00
H1065  H     0.37112   0.76422   0.72585   0.00000  Uiso   1.00
H1066  H     0.62888   0.90245   0.77415   0.00000  Uiso   1.00
H1067  H     0.62906   0.76411   0.72609   0.00000  Uiso   1.00
H1068  H     0.37094   0.90255   0.77391   0.00000  Uiso   1.00
C1069  C     0.62417   0.83329   0.75010   0.00000  Uiso   1.00
C1070  C     0.37583   0.83338   0.74990   0.00000  Uiso   1.00
C1071  C     0.52633   0.69046   0.77732   0.00000  Uiso   1.00
C1072  C     0.47367   0.97621   0.72269   0.00000  Uiso   1.00
C1073  C     0.47367   0.69084   0.72268   0.00000  Uiso   1.00
C1074  C     0.52633   0.97583   0.77732   0.00000  Uiso   1.00
H1075  H     0.54737   0.70848   0.79915   0.00000  Uiso   1.00
H1076  H     0.45263   0.95818   0.70085   0.00000  Uiso   1.00
H1077  H     0.45263   0.70917   0.70084   0.00000  Uiso   1.00
H1078  H     0.54737   0.95750   0.79916   0.00000  Uiso   1.00
N1079  N     0.50000   0.95240   0.75000   0.00000  Uiso   1.00
N1080  N     0.50000   0.71427   0.75000   0.00000  Uiso   1.00
C1081  C     0.57113   0.87860   0.88245   0.00000  Uiso   1.00
H1082  H     0.60115   0.86596   0.89617   0.00000  Uiso   1.00
H1083  H     0.57200   0.87092   0.84627   0.00000  Uiso   1.00
H1084  H     0.56942   0.91593   0.88632   0.00000  Uiso   1.00
C1085  C     0.42887   0.78805   0.61756   0.00000  Uiso   1.00
H1086  H     0.39884   0.80070   0.60385   0.00000  Uiso   1.00
H1087  H     0.43058   0.75072   0.61366   0.00000  Uiso   1.00
H1088  H     0.42801   0.79571   0.65374   0.00000  Uiso   1.00
O1089  O     0.77226   0.87154   0.75000   0.00000  Uiso   1.00
O1090  O     0.89441   0.79513   0.75001   0.00000  Uiso   1.00
O1091  O     0.89441   0.87154   0.75001   0.00000  Uiso   1.00
O1092  O     0.77226   0.79513   0.75000   0.00000  Uiso   1.00
C1093  C     0.75331   0.83336   0.74997   0.00000  Uiso   1.00
C1094  C     0.91336   0.83331   0.75003   0.00000  Uiso   1.00
O1095  O     0.83333   0.87156   0.68393   0.00000  Uiso   1.00
O1096  O     0.83334   0.79511   0.81608   0.00000  Uiso   1.00
O1097  O     0.83334   0.87156   0.81608   0.00000  Uiso   1.00
O1098  O     0.83333   0.79511   0.68393   0.00000  Uiso   1.00
C1099  C     0.83199   0.83346   0.66355   0.00000  Uiso   1.00
C1100  C     0.83467   0.83321   0.83645   0.00000  Uiso   1.00
Zn1101 Zn    0.83333   0.88437   0.75000   0.00000  Uiso   1.00
Zn1102 Zn    0.83333   0.78229   0.75000   0.00000  Uiso   1.00
C1103  C     0.86841   0.85639   0.90719   0.00000  Uiso   1.00
C1104  C     0.79824   0.81028   0.59282   0.00000  Uiso   1.00
C1105  C     0.83691   0.83279   0.88413   0.00000  Uiso   1.00
C1106  C     0.82975   0.83388   0.61587   0.00000  Uiso   1.00
C1107  C     0.80603   0.80860   0.90634   0.00000  Uiso   1.00
C1108  C     0.86062   0.85808   0.59366   0.00000  Uiso   1.00
C1109  C     0.80455   0.80850   0.95238   0.00000  Uiso   1.00
C1110  C     0.86209   0.85819   0.54762   0.00000  Uiso   1.00
C1111  C     0.83442   0.83320   0.97662   0.00000  Uiso   1.00
C1112  C     0.83222   0.83349   0.52338   0.00000  Uiso   1.00
C1113  C     0.86647   0.85747   0.95419   0.00000  Uiso   1.00
C1114  C     0.80017   0.80921   0.54581   0.00000  Uiso   1.00
C1115  C     0.77320   0.78438   0.97432   0.00000  Uiso   1.00
C1116  C     0.89343   0.88232   0.52568   0.00000  Uiso   1.00
C1117  C     0.77099   0.78462   0.52057   0.00000  Uiso   1.00
C1118  C     0.89565   0.88207   0.97943   0.00000  Uiso   1.00
H1119  H     0.78251   0.79047   0.88741   0.00000  Uiso   1.00
H1120  H     0.88414   0.87622   0.61258   0.00000  Uiso   1.00
H1121  H     0.75027   0.76529   0.95563   0.00000  Uiso   1.00
H1122  H     0.91636   0.90140   0.54436   0.00000  Uiso   1.00
H1123  H     0.74634   0.76515   0.53606   0.00000  Uiso   1.00
H1124  H     0.92029   0.90154   0.96394   0.00000  Uiso   1.00
C1125  C     0.68806   0.79436   0.73663   0.00000  Uiso   1.00
C1126  C     0.97860   0.87231   0.76337   0.00000  Uiso   1.00
C1127  C     0.97870   0.79430   0.73677   0.00000  Uiso   1.00
C1128  C     0.68796   0.87237   0.76323   0.00000  Uiso   1.00
H1129  H     0.70445   0.76422   0.72585   0.00000  Uiso   1.00
H1130  H     0.96222   0.90245   0.77415   0.00000  Uiso   1.00
H1131  H     0.96239   0.76411   0.72609   0.00000  Uiso   1.00
H1132  H     0.70427   0.90255   0.77391   0.00000  Uiso   1.00
C1133  C     0.95750   0.83329   0.75010   0.00000  Uiso   1.00
C1134  C     0.70916   0.83338   0.74990   0.00000  Uiso   1.00
C1135  C     0.85966   0.69046   0.77732   0.00000  Uiso   1.00
C1136  C     0.80701   0.97621   0.72269   0.00000  Uiso   1.00
C1137  C     0.80701   0.69084   0.72268   0.00000  Uiso   1.00
C1138  C     0.85966   0.97583   0.77732   0.00000  Uiso   1.00
H1139  H     0.88071   0.70848   0.79915   0.00000  Uiso   1.00
H1140  H     0.78596   0.95818   0.70085   0.00000  Uiso   1.00
H1141  H     0.78596   0.70917   0.70084   0.00000  Uiso   1.00
H1142  H     0.88071   0.95750   0.79916   0.00000  Uiso   1.00
N1143  N     0.83333   0.95240   0.75000   0.00000  Uiso   1.00
N1144  N     0.83333   0.71427   0.75000   0.00000  Uiso   1.00
C1145  C     0.90446   0.87860   0.88245   0.00000  Uiso   1.00
H1146  H     0.93448   0.86596   0.89617   0.00000  Uiso   1.00
H1147  H     0.90534   0.87092   0.84627   0.00000  Uiso   1.00
H1148  H     0.90276   0.91593   0.88632   0.00000  Uiso   1.00
C1149  C     0.76221   0.78805   0.61756   0.00000  Uiso   1.00
H1150  H     0.73218   0.80070   0.60385   0.00000  Uiso   1.00
H1151  H     0.76391   0.75072   0.61366   0.00000  Uiso   1.00
H1152  H     0.76134   0.79571   0.65374   0.00000  Uiso   1.00
loop_
_geom_bond_atom_site_label_1
_geom_bond_atom_site_label_2
_geom_bond_distance
_geom_bond_site_symmetry_2
_ccdc_geom_bond_type
O1     C5      1.282   .     A
O1     Zn13    1.997   .     S
O2     Zn14    1.997   .     S
O2     C6      1.282   .     A
O3     Zn13    1.996   .     S
O3     C6      1.282   .     A
O4     Zn14    1.996   .     S
O4     C5      1.282   .     A
C5     C46     1.417   .     S
C6     C45     1.417   .     S
O7     C11     1.283   .     A
O7     Zn13    2.013   .     S
O8     C12     1.283   .     A
O8     Zn14    2.013   .     S
O9     C12     1.284   .     A
O9     Zn13    2.009   .     S
O10    C11     1.284   .     A
O10    Zn14    2.009   .     S
C11    C18     1.427   .     S
C12    C17     1.427   .     S
Zn13   N55     2.009   .     S
Zn14   N56     2.009   .     S
C15    C17     1.411   .     A
C15    C57     1.521   .     S
C15    C25     1.407   .     A
C16    C61     1.521   .     S
C16    C18     1.411   .     A
C16    C26     1.407   .     A
C17    C19     1.389   .     A
C18    C20     1.389   .     A
C19    H31     1.087   .     S
C19    C21     1.377   .     A
C20    H32     1.087   .     S
C20    C22     1.377   .     A
C21    C27     1.395   .     A
C21    C23     1.408   .     A
C22    C28     1.395   .     A
C22    C24     1.408   .     A
C23    C25     1.421   .     A
C23    C600    1.400   .     S
C24    C26     1.421   .     A
C24    C599    1.400   1_554 S
C25    C30     1.408   .     A
C26    C29     1.408   .     A
C27    H33     1.084   .     S
C27    C605    1.385   .     S
C28    H34     1.084   .     S
C28    C606    1.385   1_554 S
C29    H35     1.081   .     S
C29    C603    1.385   1_554 S
C30    H36     1.081   .     S
C30    C604    1.385   .     S
C37    H41     1.084   .     S
C37    C46     1.397   .     A
C37    C167    1.370   1_455 S
C38    H42     1.084   .     S
C38    C45     1.397   .     A
C38    C104    1.370   .     S
C39    C45     1.397   .     A
C39    H43     1.084   .     S
C39    C101    1.370   .     S
C40    C46     1.397   .     A
C40    H44     1.084   .     S
C40    C166    1.370   1_455 S
C47    N56     1.366   .     A
C47    H51     1.082   .     S
C47    C434    1.416   1_545 S
C48    N55     1.366   .     A
C48    H52     1.082   .     S
C48    C241    1.416   .     S
C49    N56     1.366   .     A
C49    H53     1.082   .     S
C49    C432    1.416   1_545 S
C50    N55     1.366   .     A
C50    H54     1.082   .     S
C50    C239    1.416   .     S
C57    H58     1.111   .     S
C57    H59     1.107   .     S
C57    H60     1.110   .     S
C61    H64     1.107   .     S
C61    H62     1.111   .     S
C61    H63     1.110   .     S
O65    C69     1.282   .     A
O65    Zn77    1.997   .     S
O66    Zn78    1.997   .     S
O66    C70     1.282   .     A
O67    Zn77    1.996   .     S
O67    C70     1.282   .     A
O68    Zn78    1.996   .     S
O68    C69     1.282   .     A
C69    C110    1.417   .     S
C70    C109    1.417   .     S
O71    C75     1.283   .     A
O71    Zn77    2.013   .     S
O72    C76     1.283   .     A
O72    Zn78    2.013   .     S
O73    C76     1.284   .     A
O73    Zn77    2.009   .     S
O74    C75     1.284   .     A
O74    Zn78    2.009   .     S
C75    C82     1.427   .     S
C76    C81     1.427   .     S
Zn77   N119    2.009   .     S
Zn78   N120    2.009   .     S
C79    C81     1.411   .     A
C79    C121    1.521   .     S
C79    C89     1.407   .     A
C80    C125    1.521   .     S
C80    C82     1.411   .     A
C80    C90     1.407   .     A
C81    C83     1.389   .     A
C82    C84     1.389   .     A
C83    H95     1.087   .     S
C83    C85     1.377   .     A
C84    H96     1.087   .     S
C84    C86     1.377   .     A
C85    C91     1.395   .     A
C85    C87     1.408   .     A
C86    C92     1.395   .     A
C86    C88     1.408   .     A
C87    C89     1.421   .     A
C87    C664    1.400   .     S
C88    C90     1.421   .     A
C88    C663    1.400   1_554 S
C89    C94     1.408   .     A
C90    C93     1.408   .     A
C91    H97     1.084   .     S
C91    C669    1.385   .     S
C92    H98     1.084   .     S
C92    C670    1.385   1_554 S
C93    H99     1.081   .     S
C93    C667    1.385   1_554 S
C94    H100    1.081   .     S
C94    C668    1.385   .     S
C101   H105    1.084   .     S
C101   C110    1.397   .     A
C102   H106    1.084   .     S
C102   C109    1.397   .     A
C102   C168    1.370   .     S
C103   C109    1.397   .     A
C103   H107    1.084   .     S
C103   C165    1.370   .     S
C104   C110    1.397   .     A
C104   H108    1.084   .     S
C111   N120    1.366   .     A
C111   H115    1.082   .     S
C111   C498    1.416   1_545 S
C112   N119    1.366   .     A
C112   H116    1.082   .     S
C112   C305    1.416   .     S
C113   N120    1.366   .     A
C113   H117    1.082   .     S
C113   C496    1.416   1_545 S
C114   N119    1.366   .     A
C114   H118    1.082   .     S
C114   C303    1.416   .     S
C121   H122    1.111   .     S
C121   H123    1.107   .     S
C121   H124    1.110   .     S
C125   H128    1.107   .     S
C125   H126    1.111   .     S
C125   H127    1.110   .     S
O129   C133    1.282   .     A
O129   Zn141   1.997   .     S
O130   Zn142   1.997   .     S
O130   C134    1.282   .     A
O131   Zn141   1.996   .     S
O131   C134    1.282   .     A
O132   Zn142   1.996   .     S
O132   C133    1.282   .     A
C133   C174    1.417   .     S
C134   C173    1.417   .     S
O135   C139    1.283   .     A
O135   Zn141   2.013   .     S
O136   C140    1.283   .     A
O136   Zn142   2.013   .     S
O137   C140    1.284   .     A
O137   Zn141   2.009   .     S
O138   C139    1.284   .     A
O138   Zn142   2.009   .     S
C139   C146    1.427   .     S
C140   C145    1.427   .     S
Zn141  N183    2.009   .     S
Zn142  N184    2.009   .     S
C143   C145    1.411   .     A
C143   C185    1.521   .     S
C143   C153    1.407   .     A
C144   C189    1.521   .     S
C144   C146    1.411   .     A
C144   C154    1.407   .     A
C145   C147    1.389   .     A
C146   C148    1.389   .     A
C147   H159    1.087   .     S
C147   C149    1.377   .     A
C148   H160    1.087   .     S
C148   C150    1.377   .     A
C149   C155    1.395   .     A
C149   C151    1.408   .     A
C150   C156    1.395   .     A
C150   C152    1.408   .     A
C151   C153    1.421   .     A
C151   C728    1.400   .     S
C152   C154    1.421   .     A
C152   C727    1.400   1_554 S
C153   C158    1.408   .     A
C154   C157    1.408   .     A
C155   H161    1.084   .     S
C155   C733    1.385   .     S
C156   H162    1.084   .     S
C156   C734    1.385   1_554 S
C157   H163    1.081   .     S
C157   C731    1.385   1_554 S
C158   H164    1.081   .     S
C158   C732    1.385   .     S
C165   H169    1.084   .     S
C165   C174    1.397   .     A
C166   H170    1.084   .     S
C166   C173    1.397   .     A
C166   C40     1.370   1_655 S
C167   C173    1.397   .     A
C167   H171    1.084   .     S
C167   C37     1.370   1_655 S
C168   C174    1.397   .     A
C168   H172    1.084   .     S
C175   N184    1.366   .     A
C175   H179    1.082   .     S
C175   C562    1.416   1_545 S
C176   N183    1.366   .     A
C176   H180    1.082   .     S
C176   C369    1.416   .     S
C177   N184    1.366   .     A
C177   H181    1.082   .     S
C177   C560    1.416   1_545 S
C178   N183    1.366   .     A
C178   H182    1.082   .     S
C178   C367    1.416   .     S
C185   H186    1.111   .     S
C185   H187    1.107   .     S
C185   H188    1.110   .     S
C189   H192    1.107   .     S
C189   H190    1.111   .     S
C189   H191    1.110   .     S
O193   C197    1.282   .     A
O193   Zn205   1.997   .     S
O194   Zn206   1.997   .     S
O194   C198    1.282   .     A
O195   Zn205   1.996   .     S
O195   C198    1.282   .     A
O196   Zn206   1.996   .     S
O196   C197    1.282   .     A
C197   C238    1.417   .     S
C198   C237    1.417   .     S
O199   C203    1.283   .     A
O199   Zn205   2.013   .     S
O200   C204    1.283   .     A
O200   Zn206   2.013   .     S
O201   C204    1.284   .     A
O201   Zn205   2.009   .     S
O202   C203    1.284   .     A
O202   Zn206   2.009   .     S
C203   C210    1.427   .     S
C204   C209    1.427   .     S
Zn205  N247    2.009   .     S
Zn206  N248    2.009   .     S
C207   C209    1.411   .     A
C207   C249    1.521   .     S
C207   C217    1.407   .     A
C208   C253    1.521   .     S
C208   C210    1.411   .     A
C208   C218    1.407   .     A
C209   C211    1.389   .     A
C210   C212    1.389   .     A
C211   H223    1.087   .     S
C211   C213    1.377   .     A
C212   H224    1.087   .     S
C212   C214    1.377   .     A
C213   C219    1.395   .     A
C213   C215    1.408   .     A
C214   C220    1.395   .     A
C214   C216    1.408   .     A
C215   C217    1.421   .     A
C215   C792    1.400   .     S
C216   C218    1.421   .     A
C216   C791    1.400   1_554 S
C217   C222    1.408   .     A
C218   C221    1.408   .     A
C219   H225    1.084   .     S
C219   C797    1.385   .     S
C220   H226    1.084   .     S
C220   C798    1.385   1_554 S
C221   H227    1.081   .     S
C221   C795    1.385   1_554 S
C222   H228    1.081   .     S
C222   C796    1.385   .     S
C229   H233    1.084   .     S
C229   C238    1.397   .     A
C229   C359    1.370   1_455 S
C230   H234    1.084   .     S
C230   C237    1.397   .     A
C230   C296    1.370   .     S
C231   C237    1.397   .     A
C231   H235    1.084   .     S
C231   C293    1.370   .     S
C232   C238    1.397   .     A
C232   H236    1.084   .     S
C232   C358    1.370   1_455 S
C239   N248    1.366   .     A
C239   H243    1.082   .     S
C240   N247    1.366   .     A
C240   H244    1.082   .     S
C240   C433    1.416   .     S
C241   N248    1.366   .     A
C241   H245    1.082   .     S
C242   N247    1.366   .     A
C242   H246    1.082   .     S
C242   C431    1.416   .     S
C249   H250    1.111   .     S
C249   H251    1.107   .     S
C249   H252    1.110   .     S
C253   H256    1.107   .     S
C253   H254    1.111   .     S
C253   H255    1.110   .     S
O257   C261    1.282   .     A
O257   Zn269   1.997   .     S
O258   Zn270   1.997   .     S
O258   C262    1.282   .     A
O259   Zn269   1.996   .     S
O259   C262    1.282   .     A
O260   Zn270   1.996   .     S
O260   C261    1.282   .     A
C261   C302    1.417   .     S
C262   C301    1.417   .     S
O263   C267    1.283   .     A
O263   Zn269   2.013   .     S
O264   C268    1.283   .     A
O264   Zn270   2.013   .     S
O265   C268    1.284   .     A
O265   Zn269   2.009   .     S
O266   C267    1.284   .     A
O266   Zn270   2.009   .     S
C267   C274    1.427   .     S
C268   C273    1.427   .     S
Zn269  N311    2.009   .     S
Zn270  N312    2.009   .     S
C271   C273    1.411   .     A
C271   C313    1.521   .     S
C271   C281    1.407   .     A
C272   C317    1.521   .     S
C272   C274    1.411   .     A
C272   C282    1.407   .     A
C273   C275    1.389   .     A
C274   C276    1.389   .     A
C275   H287    1.087   .     S
C275   C277    1.377   .     A
C276   H288    1.087   .     S
C276   C278    1.377   .     A
C277   C283    1.395   .     A
C277   C279    1.408   .     A
C278   C284    1.395   .     A
C278   C280    1.408   .     A
C279   C281    1.421   .     A
C279   C856    1.400   .     S
C280   C282    1.421   .     A
C280   C855    1.400   1_554 S
C281   C286    1.408   .     A
C282   C285    1.408   .     A
C283   H289    1.084   .     S
C283   C861    1.385   .     S
C284   H290    1.084   .     S
C284   C862    1.385   1_554 S
C285   H291    1.081   .     S
C285   C859    1.385   1_554 S
C286   H292    1.081   .     S
C286   C860    1.385   .     S
C293   H297    1.084   .     S
C293   C302    1.397   .     A
C294   H298    1.084   .     S
C294   C301    1.397   .     A
C294   C360    1.370   .     S
C295   C301    1.397   .     A
C295   H299    1.084   .     S
C295   C357    1.370   .     S
C296   C302    1.397   .     A
C296   H300    1.084   .     S
C303   N312    1.366   .     A
C303   H307    1.082   .     S
C304   N311    1.366   .     A
C304   H308    1.082   .     S
C304   C497    1.416   .     S
C305   N312    1.366   .     A
C305   H309    1.082   .     S
C306   N311    1.366   .     A
C306   H310    1.082   .     S
C306   C495    1.416   .     S
C313   H314    1.111   .     S
C313   H315    1.107   .     S
C313   H316    1.110   .     S
C317   H320    1.107   .     S
C317   H318    1.111   .     S
C317   H319    1.110   .     S
O321   C325    1.282   .     A
O321   Zn333   1.997   .     S
O322   Zn334   1.997   .     S
O322   C326    1.282   .     A
O323   Zn333   1.996   .     S
O323   C326    1.282   .     A
O324   Zn334   1.996   .     S
O324   C325    1.282   .     A
C325   C366    1.417   .     S
C326   C365    1.417   .     S
O327   C331    1.283   .     A
O327   Zn333   2.013   .     S
O328   C332    1.283   .     A
O328   Zn334   2.013   .     S
O329   C332    1.284   .     A
O329   Zn333   2.009   .     S
O330   C331    1.284   .     A
O330   Zn334   2.009   .     S
C331   C338    1.427   .     S
C332   C337    1.427   .     S
Zn333  N375    2.009   .     S
Zn334  N376    2.009   .     S
C335   C337    1.411   .     A
C335   C377    1.521   .     S
C335   C345    1.407   .     A
C336   C381    1.521   .     S
C336   C338    1.411   .     A
C336   C346    1.407   .     A
C337   C339    1.389   .     A
C338   C340    1.389   .     A
C339   H351    1.087   .     S
C339   C341    1.377   .     A
C340   H352    1.087   .     S
C340   C342    1.377   .     A
C341   C347    1.395   .     A
C341   C343    1.408   .     A
C342   C348    1.395   .     A
C342   C344    1.408   .     A
C343   C345    1.421   .     A
C343   C920    1.400   .     S
C344   C346    1.421   .     A
C344   C919    1.400   1_554 S
C345   C350    1.408   .     A
C346   C349    1.408   .     A
C347   H353    1.084   .     S
C347   C925    1.385   .     S
C348   H354    1.084   .     S
C348   C926    1.385   1_554 S
C349   H355    1.081   .     S
C349   C923    1.385   1_554 S
C350   H356    1.081   .     S
C350   C924    1.385   .     S
C357   H361    1.084   .     S
C357   C366    1.397   .     A
C358   H362    1.084   .     S
C358   C365    1.397   .     A
C358   C232    1.370   1_655 S
C359   C365    1.397   .     A
C359   H363    1.084   .     S
C359   C229    1.370   1_655 S
C360   C366    1.397   .     A
C360   H364    1.084   .     S
C367   N376    1.366   .     A
C367   H371    1.082   .     S
C368   N375    1.366   .     A
C368   H372    1.082   .     S
C368   C561    1.416   .     S
C369   N376    1.366   .     A
C369   H373    1.082   .     S
C370   N375    1.366   .     A
C370   H374    1.082   .     S
C370   C559    1.416   .     S
C377   H378    1.111   .     S
C377   H379    1.107   .     S
C377   H380    1.110   .     S
C381   H384    1.107   .     S
C381   H382    1.111   .     S
C381   H383    1.110   .     S
O385   C389    1.282   .     A
O385   Zn397   1.997   .     S
O386   Zn398   1.997   .     S
O386   C390    1.282   .     A
O387   Zn397   1.996   .     S
O387   C390    1.282   .     A
O388   Zn398   1.996   .     S
O388   C389    1.282   .     A
C389   C430    1.417   .     S
C390   C429    1.417   .     S
O391   C395    1.283   .     A
O391   Zn397   2.013   .     S
O392   C396    1.283   .     A
O392   Zn398   2.013   .     S
O393   C396    1.284   .     A
O393   Zn397   2.009   .     S
O394   C395    1.284   .     A
O394   Zn398   2.009   .     S
C395   C402    1.427   .     S
C396   C401    1.427   .     S
Zn397  N439    2.009   .     S
Zn398  N440    2.009   .     S
C399   C401    1.411   .     A
C399   C441    1.521   .     S
C399   C409    1.407   .     A
C400   C445    1.521   .     S
C400   C402    1.411   .     A
C400   C410    1.407   .     A
C401   C403    1.389   .     A
C402   C404    1.389   .     A
C403   H415    1.087   .     S
C403   C405    1.377   .     A
C404   H416    1.087   .     S
C404   C406    1.377   .     A
C405   C411    1.395   .     A
C405   C407    1.408   .     A
C406   C412    1.395   .     A
C406   C408    1.408   .     A
C407   C409    1.421   .     A
C407   C984    1.400   .     S
C408   C410    1.421   .     A
C408   C983    1.400   1_554 S
C409   C414    1.408   .     A
C410   C413    1.408   .     A
C411   H417    1.084   .     S
C411   C989    1.385   .     S
C412   H418    1.084   .     S
C412   C990    1.385   1_554 S
C413   H419    1.081   .     S
C413   C987    1.385   1_554 S
C414   H420    1.081   .     S
C414   C988    1.385   .     S
C421   H425    1.084   .     S
C421   C430    1.397   .     A
C421   C551    1.370   1_455 S
C422   H426    1.084   .     S
C422   C429    1.397   .     A
C422   C488    1.370   .     S
C423   C429    1.397   .     A
C423   H427    1.084   .     S
C423   C485    1.370   .     S
C424   C430    1.397   .     A
C424   H428    1.084   .     S
C424   C550    1.370   1_455 S
C431   N440    1.366   .     A
C431   H435    1.082   .     S
C432   N439    1.366   .     A
C432   H436    1.082   .     S
C432   C49     1.416   1_565 S
C433   N440    1.366   .     A
C433   H437    1.082   .     S
C434   N439    1.366   .     A
C434   H438    1.082   .     S
C434   C47     1.416   1_565 S
C441   H442    1.111   .     S
C441   H443    1.107   .     S
C441   H444    1.110   .     S
C445   H448    1.107   .     S
C445   H446    1.111   .     S
C445   H447    1.110   .     S
O449   C453    1.282   .     A
O449   Zn461   1.997   .     S
O450   Zn462   1.997   .     S
O450   C454    1.282   .     A
O451   Zn461   1.996   .     S
O451   C454    1.282   .     A
O452   Zn462   1.996   .     S
O452   C453    1.282   .     A
C453   C494    1.417   .     S
C454   C493    1.417   .     S
O455   C459    1.283   .     A
O455   Zn461   2.013   .     S
O456   C460    1.283   .     A
O456   Zn462   2.013   .     S
O457   C460    1.284   .     A
O457   Zn461   2.009   .     S
O458   C459    1.284   .     A
O458   Zn462   2.009   .     S
C459   C466    1.427   .     S
C460   C465    1.427   .     S
Zn461  N503    2.009   .     S
Zn462  N504    2.009   .     S
C463   C465    1.411   .     A
C463   C505    1.521   .     S
C463   C473    1.407   .     A
C464   C509    1.521   .     S
C464   C466    1.411   .     A
C464   C474    1.407   .     A
C465   C467    1.389   .     A
C466   C468    1.389   .     A
C467   H479    1.087   .     S
C467   C469    1.377   .     A
C468   H480    1.087   .     S
C468   C470    1.377   .     A
C469   C475    1.395   .     A
C469   C471    1.408   .     A
C470   C476    1.395   .     A
C470   C472    1.408   .     A
C471   C473    1.421   .     A
C471   C1048   1.400   .     S
C472   C474    1.421   .     A
C472   C1047   1.400   1_554 S
C473   C478    1.408   .     A
C474   C477    1.408   .     A
C475   H481    1.084   .     S
C475   C1053   1.385   .     S
C476   H482    1.084   .     S
C476   C1054   1.385   1_554 S
C477   H483    1.081   .     S
C477   C1051   1.385   1_554 S
C478   H484    1.081   .     S
C478   C1052   1.385   .     S
C485   H489    1.084   .     S
C485   C494    1.397   .     A
C486   H490    1.084   .     S
C486   C493    1.397   .     A
C486   C552    1.370   .     S
C487   C493    1.397   .     A
C487   H491    1.084   .     S
C487   C549    1.370   .     S
C488   C494    1.397   .     A
C488   H492    1.084   .     S
C495   N504    1.366   .     A
C495   H499    1.082   .     S
C496   N503    1.366   .     A
C496   H500    1.082   .     S
C496   C113    1.416   1_565 S
C497   N504    1.366   .     A
C497   H501    1.082   .     S
C498   N503    1.366   .     A
C498   H502    1.082   .     S
C498   C111    1.416   1_565 S
C505   H506    1.111   .     S
C505   H507    1.107   .     S
C505   H508    1.110   .     S
C509   H512    1.107   .     S
C509   H510    1.111   .     S
C509   H511    1.110   .     S
O513   C517    1.282   .     A
O513   Zn525   1.997   .     S
O514   Zn526   1.997   .     S
O514   C518    1.282   .     A
O515   Zn525   1.996   .     S
O515   C518    1.282   .     A
O516   Zn526   1.996   .     S
O516   C517    1.282   .     A
C517   C558    1.417   .     S
C518   C557    1.417   .     S
O519   C523    1.283   .     A
O519   Zn525   2.013   .     S
O520   C524    1.283   .     A
O520   Zn526   2.013   .     S
O521   C524    1.284   .     A
O521   Zn525   2.009   .     S
O522   C523    1.284   .     A
O522   Zn526   2.009   .     S
C523   C530    1.427   .     S
C524   C529    1.427   .     S
Zn525  N567    2.009   .     S
Zn526  N568    2.009   .     S
C527   C529    1.411   .     A
C527   C569    1.521   .     S
C527   C537    1.407   .     A
C528   C573    1.521   .     S
C528   C530    1.411   .     A
C528   C538    1.407   .     A
C529   C531    1.389   .     A
C530   C532    1.389   .     A
C531   H543    1.087   .     S
C531   C533    1.377   .     A
C532   H544    1.087   .     S
C532   C534    1.377   .     A
C533   C539    1.395   .     A
C533   C535    1.408   .     A
C534   C540    1.395   .     A
C534   C536    1.408   .     A
C535   C537    1.421   .     A
C535   C1112   1.400   .     S
C536   C538    1.421   .     A
C536   C1111   1.400   1_554 S
C537   C542    1.408   .     A
C538   C541    1.408   .     A
C539   H545    1.084   .     S
C539   C1117   1.385   .     S
C540   H546    1.084   .     S
C540   C1118   1.385   1_554 S
C541   H547    1.081   .     S
C541   C1115   1.385   1_554 S
C542   H548    1.081   .     S
C542   C1116   1.385   .     S
C549   H553    1.084   .     S
C549   C558    1.397   .     A
C550   H554    1.084   .     S
C550   C557    1.397   .     A
C550   C424    1.370   1_655 S
C551   C557    1.397   .     A
C551   H555    1.084   .     S
C551   C421    1.370   1_655 S
C552   C558    1.397   .     A
C552   H556    1.084   .     S
C559   N568    1.366   .     A
C559   H563    1.082   .     S
C560   N567    1.366   .     A
C560   H564    1.082   .     S
C560   C177    1.416   1_565 S
C561   N568    1.366   .     A
C561   H565    1.082   .     S
C562   N567    1.366   .     A
C562   H566    1.082   .     S
C562   C175    1.416   1_565 S
C569   H570    1.111   .     S
C569   H571    1.107   .     S
C569   H572    1.110   .     S
C573   H576    1.107   .     S
C573   H574    1.111   .     S
C573   H575    1.110   .     S
O577   C581    1.282   .     A
O577   Zn589   1.997   .     S
O578   Zn590   1.997   .     S
O578   C582    1.282   .     A
O579   Zn589   1.996   .     S
O579   C582    1.282   .     A
O580   Zn590   1.996   .     S
O580   C581    1.282   .     A
C581   C622    1.417   .     S
C582   C621    1.417   .     S
O583   C587    1.283   .     A
O583   Zn589   2.013   .     S
O584   C588    1.283   .     A
O584   Zn590   2.013   .     S
O585   C588    1.284   .     A
O585   Zn589   2.009   .     S
O586   C587    1.284   .     A
O586   Zn590   2.009   .     S
C587   C594    1.427   .     S
C588   C593    1.427   .     S
Zn589  N631    2.009   .     S
Zn590  N632    2.009   .     S
C591   C593    1.411   .     A
C591   C633    1.521   .     S
C591   C601    1.407   .     A
C592   C637    1.521   .     S
C592   C594    1.411   .     A
C592   C602    1.407   .     A
C593   C595    1.389   .     A
C594   C596    1.389   .     A
C595   H607    1.087   .     S
C595   C597    1.377   .     A
C596   H608    1.087   .     S
C596   C598    1.377   .     A
C597   C603    1.395   .     A
C597   C599    1.408   .     A
C598   C604    1.395   .     A
C598   C600    1.408   .     A
C599   C601    1.421   .     A
C599   C24     1.400   1_556 S
C600   C602    1.421   .     A
C601   C606    1.408   .     A
C602   C605    1.408   .     A
C603   H609    1.084   .     S
C603   C29     1.385   1_556 S
C604   H610    1.084   .     S
C605   H611    1.081   .     S
C606   H612    1.081   .     S
C606   C28     1.385   1_556 S
C613   H617    1.084   .     S
C613   C622    1.397   .     A
C613   C743    1.370   1_455 S
C614   H618    1.084   .     S
C614   C621    1.397   .     A
C614   C680    1.370   .     S
C615   C621    1.397   .     A
C615   H619    1.084   .     S
C615   C677    1.370   .     S
C616   C622    1.397   .     A
C616   H620    1.084   .     S
C616   C742    1.370   1_455 S
C623   N632    1.366   .     A
C623   H627    1.082   .     S
C623   C1010   1.416   1_545 S
C624   N631    1.366   .     A
C624   H628    1.082   .     S
C624   C817    1.416   .     S
C625   N632    1.366   .     A
C625   H629    1.082   .     S
C625   C1008   1.416   1_545 S
C626   N631    1.366   .     A
C626   H630    1.082   .     S
C626   C815    1.416   .     S
C633   H634    1.111   .     S
C633   H635    1.107   .     S
C633   H636    1.110   .     S
C637   H640    1.107   .     S
C637   H638    1.111   .     S
C637   H639    1.110   .     S
O641   C645    1.282   .     A
O641   Zn653   1.997   .     S
O642   Zn654   1.997   .     S
O642   C646    1.282   .     A
O643   Zn653   1.996   .     S
O643   C646    1.282   .     A
O644   Zn654   1.996   .     S
O644   C645    1.282   .     A
C645   C686    1.417   .     S
C646   C685    1.417   .     S
O647   C651    1.283   .     A
O647   Zn653   2.013   .     S
O648   C652    1.283   .     A
O648   Zn654   2.013   .     S
O649   C652    1.284   .     A
O649   Zn653   2.009   .     S
O650   C651    1.284   .     A
O650   Zn654   2.009   .     S
C651   C658    1.427   .     S
C652   C657    1.427   .     S
Zn653  N695    2.009   .     S
Zn654  N696    2.009   .     S
C655   C657    1.411   .     A
C655   C697    1.521   .     S
C655   C665    1.407   .     A
C656   C701    1.521   .     S
C656   C658    1.411   .     A
C656   C666    1.407   .     A
C657   C659    1.389   .     A
C658   C660    1.389   .     A
C659   H671    1.087   .     S
C659   C661    1.377   .     A
C660   H672    1.087   .     S
C660   C662    1.377   .     A
C661   C667    1.395   .     A
C661   C663    1.408   .     A
C662   C668    1.395   .     A
C662   C664    1.408   .     A
C663   C665    1.421   .     A
C663   C88     1.400   1_556 S
C664   C666    1.421   .     A
C665   C670    1.408   .     A
C666   C669    1.408   .     A
C667   H673    1.084   .     S
C667   C93     1.385   1_556 S
C668   H674    1.084   .     S
C669   H675    1.081   .     S
C670   H676    1.081   .     S
C670   C92     1.385   1_556 S
C677   H681    1.084   .     S
C677   C686    1.397   .     A
C678   H682    1.084   .     S
C678   C685    1.397   .     A
C678   C744    1.370   .     S
C679   C685    1.397   .     A
C679   H683    1.084   .     S
C679   C741    1.370   .     S
C680   C686    1.397   .     A
C680   H684    1.084   .     S
C687   N696    1.366   .     A
C687   H691    1.082   .     S
C687   C1074   1.416   1_545 S
C688   N695    1.366   .     A
C688   H692    1.082   .     S
C688   C881    1.416   .     S
C689   N696    1.366   .     A
C689   H693    1.082   .     S
C689   C1072   1.416   1_545 S
C690   N695    1.366   .     A
C690   H694    1.082   .     S
C690   C879    1.416   .     S
C697   H698    1.111   .     S
C697   H699    1.107   .     S
C697   H700    1.110   .     S
C701   H704    1.107   .     S
C701   H702    1.111   .     S
C701   H703    1.110   .     S
O705   C709    1.282   .     A
O705   Zn717   1.997   .     S
O706   Zn718   1.997   .     S
O706   C710    1.282   .     A
O707   Zn717   1.996   .     S
O707   C710    1.282   .     A
O708   Zn718   1.996   .     S
O708   C709    1.282   .     A
C709   C750    1.417   .     S
C710   C749    1.417   .     S
O711   C715    1.283   .     A
O711   Zn717   2.013   .     S
O712   C716    1.283   .     A
O712   Zn718   2.013   .     S
O713   C716    1.284   .     A
O713   Zn717   2.009   .     S
O714   C715    1.284   .     A
O714   Zn718   2.009   .     S
C715   C722    1.427   .     S
C716   C721    1.427   .     S
Zn717  N759    2.009   .     S
Zn718  N760    2.009   .     S
C719   C721    1.411   .     A
C719   C761    1.521   .     S
C719   C729    1.407   .     A
C720   C765    1.521   .     S
C720   C722    1.411   .     A
C720   C730    1.407   .     A
C721   C723    1.389   .     A
C722   C724    1.389   .     A
C723   H735    1.087   .     S
C723   C725    1.377   .     A
C724   H736    1.087   .     S
C724   C726    1.377   .     A
C725   C731    1.395   .     A
C725   C727    1.408   .     A
C726   C732    1.395   .     A
C726   C728    1.408   .     A
C727   C729    1.421   .     A
C727   C152    1.400   1_556 S
C728   C730    1.421   .     A
C729   C734    1.408   .     A
C730   C733    1.408   .     A
C731   H737    1.084   .     S
C731   C157    1.385   1_556 S
C732   H738    1.084   .     S
C733   H739    1.081   .     S
C734   H740    1.081   .     S
C734   C156    1.385   1_556 S
C741   H745    1.084   .     S
C741   C750    1.397   .     A
C742   H746    1.084   .     S
C742   C749    1.397   .     A
C742   C616    1.370   1_655 S
C743   C749    1.397   .     A
C743   H747    1.084   .     S
C743   C613    1.370   1_655 S
C744   C750    1.397   .     A
C744   H748    1.084   .     S
C751   N760    1.366   .     A
C751   H755    1.082   .     S
C751   C1138   1.416   1_545 S
C752   N759    1.366   .     A
C752   H756    1.082   .     S
C752   C945    1.416   .     S
C753   N760    1.366   .     A
C753   H757    1.082   .     S
C753   C1136   1.416   1_545 S
C754   N759    1.366   .     A
C754   H758    1.082   .     S
C754   C943    1.416   .     S
C761   H762    1.111   .     S
C761   H763    1.107   .     S
C761   H764    1.110   .     S
C765   H768    1.107   .     S
C765   H766    1.111   .     S
C765   H767    1.110   .     S
O769   C773    1.282   .     A
O769   Zn781   1.997   .     S
O770   Zn782   1.997   .     S
O770   C774    1.282   .     A
O771   Zn781   1.996   .     S
O771   C774    1.282   .     A
O772   Zn782   1.996   .     S
O772   C773    1.282   .     A
C773   C814    1.417   .     S
C774   C813    1.417   .     S
O775   C779    1.283   .     A
O775   Zn781   2.013   .     S
O776   C780    1.283   .     A
O776   Zn782   2.013   .     S
O777   C780    1.284   .     A
O777   Zn781   2.009   .     S
O778   C779    1.284   .     A
O778   Zn782   2.009   .     S
C779   C786    1.427   .     S
C780   C785    1.427   .     S
Zn781  N823    2.009   .     S
Zn782  N824    2.009   .     S
C783   C785    1.411   .     A
C783   C825    1.521   .     S
C783   C793    1.407   .     A
C784   C829    1.521   .     S
C784   C786    1.411   .     A
C784   C794    1.407   .     A
C785   C787    1.389   .     A
C786   C788    1.389   .     A
C787   H799    1.087   .     S
C787   C789    1.377   .     A
C788   H800    1.087   .     S
C788   C790    1.377   .     A
C789   C795    1.395   .     A
C789   C791    1.408   .     A
C790   C796    1.395   .     A
C790   C792    1.408   .     A
C791   C793    1.421   .     A
C791   C216    1.400   1_556 S
C792   C794    1.421   .     A
C793   C798    1.408   .     A
C794   C797    1.408   .     A
C795   H801    1.084   .     S
C795   C221    1.385   1_556 S
C796   H802    1.084   .     S
C797   H803    1.081   .     S
C798   H804    1.081   .     S
C798   C220    1.385   1_556 S
C805   H809    1.084   .     S
C805   C814    1.397   .     A
C805   C935    1.370   1_455 S
C806   H810    1.084   .     S
C806   C813    1.397   .     A
C806   C872    1.370   .     S
C807   C813    1.397   .     A
C807   H811    1.084   .     S
C807   C869    1.370   .     S
C808   C814    1.397   .     A
C808   H812    1.084   .     S
C808   C934    1.370   1_455 S
C815   N824    1.366   .     A
C815   H819    1.082   .     S
C816   N823    1.366   .     A
C816   H820    1.082   .     S
C816   C1009   1.416   .     S
C817   N824    1.366   .     A
C817   H821    1.082   .     S
C818   N823    1.366   .     A
C818   H822    1.082   .     S
C818   C1007   1.416   .     S
C825   H826    1.111   .     S
C825   H827    1.107   .     S
C825   H828    1.110   .     S
C829   H832    1.107   .     S
C829   H830    1.111   .     S
C829   H831    1.110   .     S
O833   C837    1.282   .     A
O833   Zn845   1.997   .     S
O834   Zn846   1.997   .     S
O834   C838    1.282   .     A
O835   Zn845   1.996   .     S
O835   C838    1.282   .     A
O836   Zn846   1.996   .     S
O836   C837    1.282   .     A
C837   C878    1.417   .     S
C838   C877    1.417   .     S
O839   C843    1.283   .     A
O839   Zn845   2.013   .     S
O840   C844    1.283   .     A
O840   Zn846   2.013   .     S
O841   C844    1.284   .     A
O841   Zn845   2.009   .     S
O842   C843    1.284   .     A
O842   Zn846   2.009   .     S
C843   C850    1.427   .     S
C844   C849    1.427   .     S
Zn845  N887    2.009   .     S
Zn846  N888    2.009   .     S
C847   C849    1.411   .     A
C847   C889    1.521   .     S
C847   C857    1.407   .     A
C848   C893    1.521   .     S
C848   C850    1.411   .     A
C848   C858    1.407   .     A
C849   C851    1.389   .     A
C850   C852    1.389   .     A
C851   H863    1.087   .     S
C851   C853    1.377   .     A
C852   H864    1.087   .     S
C852   C854    1.377   .     A
C853   C859    1.395   .     A
C853   C855    1.408   .     A
C854   C860    1.395   .     A
C854   C856    1.408   .     A
C855   C857    1.421   .     A
C855   C280    1.400   1_556 S
C856   C858    1.421   .     A
C857   C862    1.408   .     A
C858   C861    1.408   .     A
C859   H865    1.084   .     S
C859   C285    1.385   1_556 S
C860   H866    1.084   .     S
C861   H867    1.081   .     S
C862   H868    1.081   .     S
C862   C284    1.385   1_556 S
C869   H873    1.084   .     S
C869   C878    1.397   .     A
C870   H874    1.084   .     S
C870   C877    1.397   .     A
C870   C936    1.370   .     S
C871   C877    1.397   .     A
C871   H875    1.084   .     S
C871   C933    1.370   .     S
C872   C878    1.397   .     A
C872   H876    1.084   .     S
C879   N888    1.366   .     A
C879   H883    1.082   .     S
C880   N887    1.366   .     A
C880   H884    1.082   .     S
C880   C1073   1.416   .     S
C881   N888    1.366   .     A
C881   H885    1.082   .     S
C882   N887    1.366   .     A
C882   H886    1.082   .     S
C882   C1071   1.416   .     S
C889   H890    1.111   .     S
C889   H891    1.107   .     S
C889   H892    1.110   .     S
C893   H896    1.107   .     S
C893   H894    1.111   .     S
C893   H895    1.110   .     S
O897   C901    1.282   .     A
O897   Zn909   1.997   .     S
O898   Zn910   1.997   .     S
O898   C902    1.282   .     A
O899   Zn909   1.996   .     S
O899   C902    1.282   .     A
O900   Zn910   1.996   .     S
O900   C901    1.282   .     A
C901   C942    1.417   .     S
C902   C941    1.417   .     S
O903   C907    1.283   .     A
O903   Zn909   2.013   .     S
O904   C908    1.283   .     A
O904   Zn910   2.013   .     S
O905   C908    1.284   .     A
O905   Zn909   2.009   .     S
O906   C907    1.284   .     A
O906   Zn910   2.009   .     S
C907   C914    1.427   .     S
C908   C913    1.427   .     S
Zn909  N951    2.009   .     S
Zn910  N952    2.009   .     S
C911   C913    1.411   .     A
C911   C953    1.521   .     S
C911   C921    1.407   .     A
C912   C957    1.521   .     S
C912   C914    1.411   .     A
C912   C922    1.407   .     A
C913   C915    1.389   .     A
C914   C916    1.389   .     A
C915   H927    1.087   .     S
C915   C917    1.377   .     A
C916   H928    1.087   .     S
C916   C918    1.377   .     A
C917   C923    1.395   .     A
C917   C919    1.408   .     A
C918   C924    1.395   .     A
C918   C920    1.408   .     A
C919   C921    1.421   .     A
C919   C344    1.400   1_556 S
C920   C922    1.421   .     A
C921   C926    1.408   .     A
C922   C925    1.408   .     A
C923   H929    1.084   .     S
C923   C349    1.385   1_556 S
C924   H930    1.084   .     S
C925   H931    1.081   .     S
C926   H932    1.081   .     S
C926   C348    1.385   1_556 S
C933   H937    1.084   .     S
C933   C942    1.397   .     A
C934   H938    1.084   .     S
C934   C941    1.397   .     A
C934   C808    1.370   1_655 S
C935   C941    1.397   .     A
C935   H939    1.084   .     S
C935   C805    1.370   1_655 S
C936   C942    1.397   .     A
C936   H940    1.084   .     S
C943   N952    1.366   .     A
C943   H947    1.082   .     S
C944   N951    1.366   .     A
C944   H948    1.082   .     S
C944   C1137   1.416   .     S
C945   N952    1.366   .     A
C945   H949    1.082   .     S
C946   N951    1.366   .     A
C946   H950    1.082   .     S
C946   C1135   1.416   .     S
C953   H954    1.111   .     S
C953   H955    1.107   .     S
C953   H956    1.110   .     S
C957   H960    1.107   .     S
C957   H958    1.111   .     S
C957   H959    1.110   .     S
O961   C965    1.282   .     A
O961   Zn973   1.997   .     S
O962   Zn974   1.997   .     S
O962   C966    1.282   .     A
O963   Zn973   1.996   .     S
O963   C966    1.282   .     A
O964   Zn974   1.996   .     S
O964   C965    1.282   .     A
C965   C1006   1.417   .     S
C966   C1005   1.417   .     S
O967   C971    1.283   .     A
O967   Zn973   2.013   .     S
O968   C972    1.283   .     A
O968   Zn974   2.013   .     S
O969   C972    1.284   .     A
O969   Zn973   2.009   .     S
O970   C971    1.284   .     A
O970   Zn974   2.009   .     S
C971   C978    1.427   .     S
C972   C977    1.427   .     S
Zn973  N1015   2.009   .     S
Zn974  N1016   2.009   .     S
C975   C977    1.411   .     A
C975   C1017   1.521   .     S
C975   C985    1.407   .     A
C976   C1021   1.521   .     S
C976   C978    1.411   .     A
C976   C986    1.407   .     A
C977   C979    1.389   .     A
C978   C980    1.389   .     A
C979   H991    1.087   .     S
C979   C981    1.377   .     A
C980   H992    1.087   .     S
C980   C982    1.377   .     A
C981   C987    1.395   .     A
C981   C983    1.408   .     A
C982   C988    1.395   .     A
C982   C984    1.408   .     A
C983   C985    1.421   .     A
C983   C408    1.400   1_556 S
C984   C986    1.421   .     A
C985   C990    1.408   .     A
C986   C989    1.408   .     A
C987   H993    1.084   .     S
C987   C413    1.385   1_556 S
C988   H994    1.084   .     S
C989   H995    1.081   .     S
C990   H996    1.081   .     S
C990   C412    1.385   1_556 S
C997   H1001   1.084   .     S
C997   C1006   1.397   .     A
C997   C1127   1.370   1_455 S
C998   H1002   1.084   .     S
C998   C1005   1.397   .     A
C998   C1064   1.370   .     S
C999   C1005   1.397   .     A
C999   H1003   1.084   .     S
C999   C1061   1.370   .     S
C1000  C1006   1.397   .     A
C1000  H1004   1.084   .     S
C1000  C1126   1.370   1_455 S
C1007  N1016   1.366   .     A
C1007  H1011   1.082   .     S
C1008  N1015   1.366   .     A
C1008  H1012   1.082   .     S
C1008  C625    1.416   1_565 S
C1009  N1016   1.366   .     A
C1009  H1013   1.082   .     S
C1010  N1015   1.366   .     A
C1010  H1014   1.082   .     S
C1010  C623    1.416   1_565 S
C1017  H1018   1.111   .     S
C1017  H1019   1.107   .     S
C1017  H1020   1.110   .     S
C1021  H1024   1.107   .     S
C1021  H1022   1.111   .     S
C1021  H1023   1.110   .     S
O1025  C1029   1.282   .     A
O1025  Zn1037  1.997   .     S
O1026  Zn1038  1.997   .     S
O1026  C1030   1.282   .     A
O1027  Zn1037  1.996   .     S
O1027  C1030   1.282   .     A
O1028  Zn1038  1.996   .     S
O1028  C1029   1.282   .     A
C1029  C1070   1.417   .     S
C1030  C1069   1.417   .     S
O1031  C1035   1.283   .     A
O1031  Zn1037  2.013   .     S
O1032  C1036   1.283   .     A
O1032  Zn1038  2.013   .     S
O1033  C1036   1.284   .     A
O1033  Zn1037  2.009   .     S
O1034  C1035   1.284   .     A
O1034  Zn1038  2.009   .     S
C1035  C1042   1.427   .     S
C1036  C1041   1.427   .     S
Zn1037 N1079   2.009   .     S
Zn1038 N1080   2.009   .     S
C1039  C1041   1.411   .     A
C1039  C1081   1.521   .     S
C1039  C1049   1.407   .     A
C1040  C1085   1.521   .     S
C1040  C1042   1.411   .     A
C1040  C1050   1.407   .     A
C1041  C1043   1.389   .     A
C1042  C1044   1.389   .     A
C1043  H1055   1.087   .     S
C1043  C1045   1.377   .     A
C1044  H1056   1.087   .     S
C1044  C1046   1.377   .     A
C1045  C1051   1.395   .     A
C1045  C1047   1.408   .     A
C1046  C1052   1.395   .     A
C1046  C1048   1.408   .     A
C1047  C1049   1.421   .     A
C1047  C472    1.400   1_556 S
C1048  C1050   1.421   .     A
C1049  C1054   1.408   .     A
C1050  C1053   1.408   .     A
C1051  H1057   1.084   .     S
C1051  C477    1.385   1_556 S
C1052  H1058   1.084   .     S
C1053  H1059   1.081   .     S
C1054  H1060   1.081   .     S
C1054  C476    1.385   1_556 S
C1061  H1065   1.084   .     S
C1061  C1070   1.397   .     A
C1062  H1066   1.084   .     S
C1062  C1069   1.397   .     A
C1062  C1128   1.370   .     S
C1063  C1069   1.397   .     A
C1063  H1067   1.084   .     S
C1063  C1125   1.370   .     S
C1064  C1070   1.397   .     A
C1064  H1068   1.084   .     S
C1071  N1080   1.366   .     A
C1071  H1075   1.082   .     S
C1072  N1079   1.366   .     A
C1072  H1076   1.082   .     S
C1072  C689    1.416   1_565 S
C1073  N1080   1.366   .     A
C1073  H1077   1.082   .     S
C1074  N1079   1.366   .     A
C1074  H1078   1.082   .     S
C1074  C687    1.416   1_565 S
C1081  H1082   1.111   .     S
C1081  H1083   1.107   .     S
C1081  H1084   1.110   .     S
C1085  H1088   1.107   .     S
C1085  H1086   1.111   .     S
C1085  H1087   1.110   .     S
O1089  C1093   1.282   .     A
O1089  Zn1101  1.997   .     S
O1090  Zn1102  1.997   .     S
O1090  C1094   1.282   .     A
O1091  Zn1101  1.996   .     S
O1091  C1094   1.282   .     A
O1092  Zn1102  1.996   .     S
O1092  C1093   1.282   .     A
C1093  C1134   1.417   .     S
C1094  C1133   1.417   .     S
O1095  C1099   1.283   .     A
O1095  Zn1101  2.013   .     S
O1096  C1100   1.283   .     A
O1096  Zn1102  2.013   .     S
O1097  C1100   1.284   .     A
O1097  Zn1101  2.009   .     S
O1098  C1099   1.284   .     A
O1098  Zn1102  2.009   .     S
C1099  C1106   1.427   .     S
C1100  C1105   1.427   .     S
Zn1101 N1143   2.009   .     S
Zn1102 N1144   2.009   .     S
C1103  C1105   1.411   .     A
C1103  C1145   1.521   .     S
C1103  C1113   1.407   .     A
C1104  C1149   1.521   .     S
C1104  C1106   1.411   .     A
C1104  C1114   1.407   .     A
C1105  C1107   1.389   .     A
C1106  C1108   1.389   .     A
C1107  H1119   1.087   .     S
C1107  C1109   1.377   .     A
C1108  H1120   1.087   .     S
C1108  C1110   1.377   .     A
C1109  C1115   1.395   .     A
C1109  C1111   1.408   .     A
C1110  C1116   1.395   .     A
C1110  C1112   1.408   .     A
C1111  C1113   1.421   .     A
C1111  C536    1.400   1_556 S
C1112  C1114   1.421   .     A
C1113  C1118   1.408   .     A
C1114  C1117   1.408   .     A
C1115  H1121   1.084   .     S
C1115  C541    1.385   1_556 S
C1116  H1122   1.084   .     S
C1117  H1123   1.081   .     S
C1118  H1124   1.081   .     S
C1118  C540    1.385   1_556 S
C1125  H1129   1.084   .     S
C1125  C1134   1.397   .     A
C1126  H1130   1.084   .     S
C1126  C1133   1.397   .     A
C1126  C1000   1.370   1_655 S
C1127  C1133   1.397   .     A
C1127  H1131   1.084   .     S
C1127  C997    1.370   1_655 S
C1128  C1134   1.397   .     A
C1128  H1132   1.084   .     S
C1135  N1144   1.366   .     A
C1135  H1139   1.082   .     S
C1136  N1143   1.366   .     A
C1136  H1140   1.082   .     S
C1136  C753    1.416   1_565 S
C1137  N1144   1.366   .     A
C1137  H1141   1.082   .     S
C1138  N1143   1.366   .     A
C1138  H1142   1.082   .     S
C1138  C751    1.416   1_565 S
C1145  H1146   1.111   .     S
C1145  H1147   1.107   .     S
C1145  H1148   1.110   .     S
C1149  H1152   1.107   .     S
C1149  H1150   1.111   .     S
C1149  H1151   1.110   .     S
