data_str_m3_o1_o5_pcu_sym.84
_audit_creation_date              2020-01-03
_audit_creation_method            'Materials Studio'
_symmetry_space_group_name_H-M    'P1'
_symmetry_Int_Tables_number       1
_symmetry_cell_setting            triclinic
loop_
_symmetry_equiv_pos_as_xyz
  x,y,z
_cell_length_a                    32.0826
_cell_length_b                    29.8511
_cell_length_c                    26.7899
_cell_angle_alpha                 89.3879
_cell_angle_beta                  91.6372
_cell_angle_gamma                 90.5976
loop_
_atom_site_label
_atom_site_type_symbol
_atom_site_fract_x
_atom_site_fract_y
_atom_site_fract_z
_atom_site_U_iso_or_equiv
_atom_site_adp_type
_atom_site_occupancy
C1     C     0.08693   0.16648   0.16750   0.00000  Uiso   1.00
C2     C     0.02073   0.17980   0.12346   0.00000  Uiso   1.00
C3     C     0.29056   0.16759   0.16734   0.00000  Uiso   1.00
C4     C     0.04262   0.16601   0.16706   0.00000  Uiso   1.00
C5     C     0.19134   0.02357   0.19992   0.00000  Uiso   1.00
C6     C     0.14195   0.30922   0.13334   0.00000  Uiso   1.00
C7     C     0.13932   0.02423   0.13603   0.00000  Uiso   1.00
C8     C     0.19441   0.30917   0.19647   0.00000  Uiso   1.00
C9     C     0.04630   0.14262   0.25743   0.00000  Uiso   1.00
C10    C     0.28622   0.19167   0.07708   0.00000  Uiso   1.00
C11    C     0.29051   0.13385   0.25453   0.00000  Uiso   1.00
C12    C     0.24638   0.16690   0.16677   0.00000  Uiso   1.00
C13    C     0.04340   0.19066   0.07739   0.00000  Uiso   1.00
C14    C     0.18551   0.04104   0.28141   0.00000  Uiso   1.00
C15    C     0.20723   0.06054   0.32761   0.00000  Uiso   1.00
C16    C     0.13993   0.29618   0.04957   0.00000  Uiso   1.00
C17    C     0.11420   0.27573   0.00688   0.00000  Uiso   1.00
C18    C     0.06991   0.02791   0.10843   0.00000  Uiso   1.00
C19    C     0.03612   0.06244   0.09913   0.00000  Uiso   1.00
C20    C     0.23433   0.27315   0.25865   0.00000  Uiso   1.00
C21    C     0.27125   0.29508   0.28627   0.00000  Uiso   1.00
C22    C     0.16807   0.16684   0.07306   0.00000  Uiso   1.00
C23    C     0.16663   0.16657   0.26036   0.00000  Uiso   1.00
C24    C     0.16852   0.16700   0.02186   0.00000  Uiso   1.00
C25    C     0.16774   0.16668   0.31156   0.00000  Uiso   1.00
C26    C     0.02243   0.15235   0.21042   0.00000  Uiso   1.00
C27    C     0.31068   0.18107   0.12368   0.00000  Uiso   1.00
C28    C     0.31240   0.15192   0.21024   0.00000  Uiso   1.00
H29    H     0.08912   0.10488   0.29423   0.00000  Uiso   1.00
H30    H     0.17215   0.28274   0.04897   0.00000  Uiso   1.00
H31    H     0.14131   0.33282   0.04217   0.00000  Uiso   1.00
H32    H     0.12867   0.28327   0.30398   0.00000  Uiso   1.00
H33    H     0.11258   0.23905   0.01156   0.00000  Uiso   1.00
H34    H     0.08218   0.28944   0.00593   0.00000  Uiso   1.00
H35    H     0.06366   0.01079   0.14475   0.00000  Uiso   1.00
H36    H     0.06640   0.00364   0.07757   0.00000  Uiso   1.00
H37    H     0.04217   0.08196   0.06456   0.00000  Uiso   1.00
H38    H     0.00534   0.04536   0.09469   0.00000  Uiso   1.00
H39    H     0.03488   0.08484   0.13155   0.00000  Uiso   1.00
H40    H     0.24231   0.22973   0.04282   0.00000  Uiso   1.00
H41    H     0.24060   0.23679   0.25771   0.00000  Uiso   1.00
H42    H     0.20527   0.27643   0.27964   0.00000  Uiso   1.00
H43    H     0.27027   0.28738   0.32677   0.00000  Uiso   1.00
H44    H     0.30088   0.28233   0.27167   0.00000  Uiso   1.00
H45    H     0.27088   0.33190   0.28084   0.00000  Uiso   1.00
H46    H     0.29071   0.08788   0.31050   0.00000  Uiso   1.00
H47    H     0.08717   0.17154   0.03004   0.00000  Uiso   1.00
H48    H     0.17782   0.00589   0.29028   0.00000  Uiso   1.00
H49    H     0.15510   0.05782   0.27497   0.00000  Uiso   1.00
H50    H     0.21893   0.09470   0.31964   0.00000  Uiso   1.00
H51    H     0.18496   0.06236   0.02509   0.00000  Uiso   1.00
H52    H     0.23365   0.03915   0.00680   0.00000  Uiso   1.00
N53    N     0.16667   0.28573   0.16667   0.00000  Uiso   1.00
N54    N     0.16667   0.04760   0.16667   0.00000  Uiso   1.00
O55    O     0.10559   0.20487   0.16666   0.00000  Uiso   1.00
O56    O     0.07597   0.10870   0.25960   0.00000  Uiso   1.00
O57    O     0.29053   0.16895   0.03993   0.00000  Uiso   1.00
O58    O     0.25838   0.22735   0.07583   0.00000  Uiso   1.00
O59    O     0.26096   0.15371   0.27112   0.00000  Uiso   1.00
O60    O     0.30492   0.09466   0.27801   0.00000  Uiso   1.00
O61    O     0.03484   0.22421   0.05276   0.00000  Uiso   1.00
O62    O     0.07429   0.16169   0.06223   0.00000  Uiso   1.00
O63    O     0.21125   0.04540   0.23923   0.00000  Uiso   1.00
O64    O     0.12128   0.28572   0.09570   0.00000  Uiso   1.00
O65    O     0.11001   0.04858   0.10780   0.00000  Uiso   1.00
O66    O     0.22774   0.12846   0.16667   0.00000  Uiso   1.00
O67    O     0.23228   0.28947   0.20902   0.00000  Uiso   1.00
O68    O     0.22774   0.20487   0.16667   0.00000  Uiso   1.00
O69    O     0.10559   0.12846   0.16666   0.00000  Uiso   1.00
O70    O     0.16667   0.20488   0.09511   0.00000  Uiso   1.00
O71    O     0.16666   0.12845   0.23822   0.00000  Uiso   1.00
O72    O     0.16666   0.20488   0.23822   0.00000  Uiso   1.00
O73    O     0.16667   0.12845   0.09511   0.00000  Uiso   1.00
O74    O     0.03857   0.16368   0.29477   0.00000  Uiso   1.00
Zn75   Zn    0.16667   0.21771   0.16667   0.00000  Uiso   1.00
Zn76   Zn    0.16667   0.11563   0.16667   0.00000  Uiso   1.00
C77    C     0.42027   0.16648   0.16750   0.00000  Uiso   1.00
C78    C     0.35407   0.17980   0.12346   0.00000  Uiso   1.00
C79    C     0.62389   0.16759   0.16734   0.00000  Uiso   1.00
C80    C     0.37595   0.16601   0.16706   0.00000  Uiso   1.00
C81    C     0.52467   0.02357   0.19992   0.00000  Uiso   1.00
C82    C     0.47528   0.30922   0.13334   0.00000  Uiso   1.00
C83    C     0.47266   0.02423   0.13603   0.00000  Uiso   1.00
C84    C     0.52775   0.30917   0.19647   0.00000  Uiso   1.00
C85    C     0.37963   0.14262   0.25743   0.00000  Uiso   1.00
C86    C     0.61955   0.19167   0.07708   0.00000  Uiso   1.00
C87    C     0.62384   0.13385   0.25453   0.00000  Uiso   1.00
C88    C     0.57971   0.16690   0.16677   0.00000  Uiso   1.00
C89    C     0.37673   0.19066   0.07739   0.00000  Uiso   1.00
C90    C     0.51884   0.04104   0.28141   0.00000  Uiso   1.00
C91    C     0.54056   0.06054   0.32761   0.00000  Uiso   1.00
C92    C     0.47327   0.29618   0.04957   0.00000  Uiso   1.00
C93    C     0.44753   0.27573   0.00688   0.00000  Uiso   1.00
C94    C     0.40325   0.02791   0.10843   0.00000  Uiso   1.00
C95    C     0.36946   0.06244   0.09913   0.00000  Uiso   1.00
C96    C     0.56766   0.27315   0.25865   0.00000  Uiso   1.00
C97    C     0.60458   0.29508   0.28627   0.00000  Uiso   1.00
C98    C     0.50141   0.16684   0.07306   0.00000  Uiso   1.00
C99    C     0.49997   0.16657   0.26036   0.00000  Uiso   1.00
C100   C     0.50185   0.16700   0.02186   0.00000  Uiso   1.00
C101   C     0.50108   0.16668   0.31156   0.00000  Uiso   1.00
C102   C     0.35576   0.15235   0.21042   0.00000  Uiso   1.00
C103   C     0.64401   0.18107   0.12368   0.00000  Uiso   1.00
C104   C     0.64573   0.15192   0.21024   0.00000  Uiso   1.00
H105   H     0.42246   0.10488   0.29423   0.00000  Uiso   1.00
H106   H     0.50548   0.28274   0.04897   0.00000  Uiso   1.00
H107   H     0.47465   0.33282   0.04217   0.00000  Uiso   1.00
H108   H     0.46201   0.28327   0.30398   0.00000  Uiso   1.00
H109   H     0.44592   0.23905   0.01156   0.00000  Uiso   1.00
H110   H     0.41551   0.28944   0.00593   0.00000  Uiso   1.00
H111   H     0.39700   0.01079   0.14475   0.00000  Uiso   1.00
H112   H     0.39974   0.00364   0.07757   0.00000  Uiso   1.00
H113   H     0.37551   0.08196   0.06456   0.00000  Uiso   1.00
H114   H     0.33867   0.04536   0.09469   0.00000  Uiso   1.00
H115   H     0.36822   0.08484   0.13155   0.00000  Uiso   1.00
H116   H     0.57564   0.22973   0.04282   0.00000  Uiso   1.00
H117   H     0.57393   0.23679   0.25771   0.00000  Uiso   1.00
H118   H     0.53861   0.27643   0.27964   0.00000  Uiso   1.00
H119   H     0.60360   0.28738   0.32677   0.00000  Uiso   1.00
H120   H     0.63422   0.28233   0.27167   0.00000  Uiso   1.00
H121   H     0.60421   0.33190   0.28084   0.00000  Uiso   1.00
H122   H     0.62405   0.08788   0.31050   0.00000  Uiso   1.00
H123   H     0.42050   0.17154   0.03004   0.00000  Uiso   1.00
H124   H     0.51116   0.00589   0.29028   0.00000  Uiso   1.00
H125   H     0.48843   0.05782   0.27497   0.00000  Uiso   1.00
H126   H     0.55226   0.09470   0.31964   0.00000  Uiso   1.00
H127   H     0.51830   0.06236   0.02509   0.00000  Uiso   1.00
H128   H     0.56698   0.03915   0.00680   0.00000  Uiso   1.00
N129   N     0.50000   0.28573   0.16667   0.00000  Uiso   1.00
N130   N     0.50000   0.04760   0.16667   0.00000  Uiso   1.00
O131   O     0.43892   0.20487   0.16666   0.00000  Uiso   1.00
O132   O     0.40930   0.10870   0.25960   0.00000  Uiso   1.00
O133   O     0.62386   0.16895   0.03993   0.00000  Uiso   1.00
O134   O     0.59171   0.22735   0.07583   0.00000  Uiso   1.00
O135   O     0.59429   0.15371   0.27112   0.00000  Uiso   1.00
O136   O     0.63825   0.09466   0.27801   0.00000  Uiso   1.00
O137   O     0.36818   0.22421   0.05276   0.00000  Uiso   1.00
O138   O     0.40762   0.16169   0.06223   0.00000  Uiso   1.00
O139   O     0.54459   0.04540   0.23923   0.00000  Uiso   1.00
O140   O     0.45462   0.28572   0.09570   0.00000  Uiso   1.00
O141   O     0.44335   0.04858   0.10780   0.00000  Uiso   1.00
O142   O     0.56108   0.12846   0.16667   0.00000  Uiso   1.00
O143   O     0.56562   0.28947   0.20902   0.00000  Uiso   1.00
O144   O     0.56108   0.20487   0.16667   0.00000  Uiso   1.00
O145   O     0.43892   0.12846   0.16666   0.00000  Uiso   1.00
O146   O     0.50000   0.20488   0.09511   0.00000  Uiso   1.00
O147   O     0.50000   0.12845   0.23822   0.00000  Uiso   1.00
O148   O     0.50000   0.20488   0.23822   0.00000  Uiso   1.00
O149   O     0.50000   0.12845   0.09511   0.00000  Uiso   1.00
O150   O     0.37191   0.16368   0.29477   0.00000  Uiso   1.00
Zn151  Zn    0.50000   0.21771   0.16667   0.00000  Uiso   1.00
Zn152  Zn    0.50000   0.11563   0.16667   0.00000  Uiso   1.00
C153   C     0.75360   0.16648   0.16750   0.00000  Uiso   1.00
C154   C     0.68740   0.17980   0.12346   0.00000  Uiso   1.00
C155   C     0.95722   0.16759   0.16734   0.00000  Uiso   1.00
C156   C     0.70929   0.16601   0.16706   0.00000  Uiso   1.00
C157   C     0.85800   0.02357   0.19992   0.00000  Uiso   1.00
C158   C     0.80861   0.30922   0.13334   0.00000  Uiso   1.00
C159   C     0.80599   0.02423   0.13603   0.00000  Uiso   1.00
C160   C     0.86108   0.30917   0.19647   0.00000  Uiso   1.00
C161   C     0.71296   0.14262   0.25743   0.00000  Uiso   1.00
C162   C     0.95289   0.19167   0.07708   0.00000  Uiso   1.00
C163   C     0.95718   0.13385   0.25453   0.00000  Uiso   1.00
C164   C     0.91304   0.16690   0.16677   0.00000  Uiso   1.00
C165   C     0.71007   0.19066   0.07739   0.00000  Uiso   1.00
C166   C     0.85218   0.04104   0.28141   0.00000  Uiso   1.00
C167   C     0.87390   0.06054   0.32761   0.00000  Uiso   1.00
C168   C     0.80660   0.29618   0.04957   0.00000  Uiso   1.00
C169   C     0.78086   0.27573   0.00688   0.00000  Uiso   1.00
C170   C     0.73658   0.02791   0.10843   0.00000  Uiso   1.00
C171   C     0.70279   0.06244   0.09913   0.00000  Uiso   1.00
C172   C     0.90099   0.27315   0.25865   0.00000  Uiso   1.00
C173   C     0.93791   0.29508   0.28627   0.00000  Uiso   1.00
C174   C     0.83474   0.16684   0.07306   0.00000  Uiso   1.00
C175   C     0.83330   0.16657   0.26036   0.00000  Uiso   1.00
C176   C     0.83519   0.16700   0.02186   0.00000  Uiso   1.00
C177   C     0.83441   0.16668   0.31156   0.00000  Uiso   1.00
C178   C     0.68909   0.15235   0.21042   0.00000  Uiso   1.00
C179   C     0.97735   0.18107   0.12368   0.00000  Uiso   1.00
C180   C     0.97906   0.15192   0.21024   0.00000  Uiso   1.00
H181   H     0.75579   0.10488   0.29423   0.00000  Uiso   1.00
H182   H     0.83881   0.28274   0.04897   0.00000  Uiso   1.00
H183   H     0.80798   0.33282   0.04217   0.00000  Uiso   1.00
H184   H     0.79534   0.28327   0.30398   0.00000  Uiso   1.00
H185   H     0.77925   0.23905   0.01156   0.00000  Uiso   1.00
H186   H     0.74884   0.28944   0.00593   0.00000  Uiso   1.00
H187   H     0.73033   0.01079   0.14475   0.00000  Uiso   1.00
H188   H     0.73307   0.00364   0.07757   0.00000  Uiso   1.00
H189   H     0.70884   0.08196   0.06456   0.00000  Uiso   1.00
H190   H     0.67200   0.04536   0.09469   0.00000  Uiso   1.00
H191   H     0.70155   0.08484   0.13155   0.00000  Uiso   1.00
H192   H     0.90897   0.22973   0.04282   0.00000  Uiso   1.00
H193   H     0.90726   0.23679   0.25771   0.00000  Uiso   1.00
H194   H     0.87194   0.27643   0.27964   0.00000  Uiso   1.00
H195   H     0.93694   0.28738   0.32677   0.00000  Uiso   1.00
H196   H     0.96755   0.28233   0.27167   0.00000  Uiso   1.00
H197   H     0.93755   0.33190   0.28084   0.00000  Uiso   1.00
H198   H     0.95738   0.08788   0.31050   0.00000  Uiso   1.00
H199   H     0.75384   0.17154   0.03004   0.00000  Uiso   1.00
H200   H     0.84449   0.00589   0.29028   0.00000  Uiso   1.00
H201   H     0.82177   0.05782   0.27497   0.00000  Uiso   1.00
H202   H     0.88559   0.09470   0.31964   0.00000  Uiso   1.00
H203   H     0.85163   0.06236   0.02509   0.00000  Uiso   1.00
H204   H     0.90031   0.03915   0.00680   0.00000  Uiso   1.00
N205   N     0.83333   0.28573   0.16667   0.00000  Uiso   1.00
N206   N     0.83333   0.04760   0.16667   0.00000  Uiso   1.00
O207   O     0.77226   0.20487   0.16666   0.00000  Uiso   1.00
O208   O     0.74264   0.10870   0.25960   0.00000  Uiso   1.00
O209   O     0.95719   0.16895   0.03993   0.00000  Uiso   1.00
O210   O     0.92505   0.22735   0.07583   0.00000  Uiso   1.00
O211   O     0.92762   0.15371   0.27112   0.00000  Uiso   1.00
O212   O     0.97159   0.09466   0.27801   0.00000  Uiso   1.00
O213   O     0.70151   0.22421   0.05276   0.00000  Uiso   1.00
O214   O     0.74095   0.16169   0.06223   0.00000  Uiso   1.00
O215   O     0.87792   0.04540   0.23923   0.00000  Uiso   1.00
O216   O     0.78795   0.28572   0.09570   0.00000  Uiso   1.00
O217   O     0.77668   0.04858   0.10780   0.00000  Uiso   1.00
O218   O     0.89441   0.12846   0.16667   0.00000  Uiso   1.00
O219   O     0.89895   0.28947   0.20902   0.00000  Uiso   1.00
O220   O     0.89441   0.20487   0.16667   0.00000  Uiso   1.00
O221   O     0.77226   0.12846   0.16666   0.00000  Uiso   1.00
O222   O     0.83334   0.20488   0.09511   0.00000  Uiso   1.00
O223   O     0.83333   0.12845   0.23822   0.00000  Uiso   1.00
O224   O     0.83333   0.20488   0.23822   0.00000  Uiso   1.00
O225   O     0.83334   0.12845   0.09511   0.00000  Uiso   1.00
O226   O     0.70524   0.16368   0.29477   0.00000  Uiso   1.00
Zn227  Zn    0.83333   0.21771   0.16667   0.00000  Uiso   1.00
Zn228  Zn    0.83333   0.11563   0.16667   0.00000  Uiso   1.00
C229   C     0.08693   0.49981   0.16750   0.00000  Uiso   1.00
C230   C     0.02073   0.51314   0.12346   0.00000  Uiso   1.00
C231   C     0.29056   0.50092   0.16734   0.00000  Uiso   1.00
C232   C     0.04262   0.49934   0.16706   0.00000  Uiso   1.00
C233   C     0.19134   0.35690   0.19992   0.00000  Uiso   1.00
C234   C     0.14195   0.64256   0.13334   0.00000  Uiso   1.00
C235   C     0.13932   0.35757   0.13603   0.00000  Uiso   1.00
C236   C     0.19441   0.64250   0.19647   0.00000  Uiso   1.00
C237   C     0.04630   0.47596   0.25743   0.00000  Uiso   1.00
C238   C     0.28622   0.52501   0.07708   0.00000  Uiso   1.00
C239   C     0.29051   0.46719   0.25453   0.00000  Uiso   1.00
C240   C     0.24638   0.50023   0.16677   0.00000  Uiso   1.00
C241   C     0.04340   0.52400   0.07739   0.00000  Uiso   1.00
C242   C     0.18551   0.37437   0.28141   0.00000  Uiso   1.00
C243   C     0.20723   0.39388   0.32761   0.00000  Uiso   1.00
C244   C     0.13993   0.62951   0.04957   0.00000  Uiso   1.00
C245   C     0.11420   0.60906   0.00688   0.00000  Uiso   1.00
C246   C     0.06991   0.36124   0.10843   0.00000  Uiso   1.00
C247   C     0.03612   0.39578   0.09913   0.00000  Uiso   1.00
C248   C     0.23433   0.60649   0.25865   0.00000  Uiso   1.00
C249   C     0.27125   0.62842   0.28627   0.00000  Uiso   1.00
C250   C     0.16807   0.50017   0.07306   0.00000  Uiso   1.00
C251   C     0.16663   0.49990   0.26036   0.00000  Uiso   1.00
C252   C     0.16852   0.50033   0.02186   0.00000  Uiso   1.00
C253   C     0.16774   0.50002   0.31156   0.00000  Uiso   1.00
C254   C     0.02243   0.48568   0.21042   0.00000  Uiso   1.00
C255   C     0.31068   0.51441   0.12368   0.00000  Uiso   1.00
C256   C     0.31240   0.48526   0.21024   0.00000  Uiso   1.00
H257   H     0.08912   0.43821   0.29423   0.00000  Uiso   1.00
H258   H     0.17215   0.61607   0.04897   0.00000  Uiso   1.00
H259   H     0.14131   0.66616   0.04217   0.00000  Uiso   1.00
H260   H     0.12867   0.61661   0.30398   0.00000  Uiso   1.00
H261   H     0.11258   0.57239   0.01156   0.00000  Uiso   1.00
H262   H     0.08218   0.62277   0.00593   0.00000  Uiso   1.00
H263   H     0.06366   0.34413   0.14475   0.00000  Uiso   1.00
H264   H     0.06640   0.33697   0.07757   0.00000  Uiso   1.00
H265   H     0.04217   0.41530   0.06456   0.00000  Uiso   1.00
H266   H     0.00534   0.37869   0.09469   0.00000  Uiso   1.00
H267   H     0.03488   0.41817   0.13155   0.00000  Uiso   1.00
H268   H     0.24231   0.56307   0.04282   0.00000  Uiso   1.00
H269   H     0.24060   0.57012   0.25771   0.00000  Uiso   1.00
H270   H     0.20527   0.60976   0.27964   0.00000  Uiso   1.00
H271   H     0.27027   0.62071   0.32677   0.00000  Uiso   1.00
H272   H     0.30088   0.61566   0.27167   0.00000  Uiso   1.00
H273   H     0.27088   0.66524   0.28084   0.00000  Uiso   1.00
H274   H     0.29071   0.42121   0.31050   0.00000  Uiso   1.00
H275   H     0.08717   0.50488   0.03004   0.00000  Uiso   1.00
H276   H     0.17782   0.33922   0.29028   0.00000  Uiso   1.00
H277   H     0.15510   0.39116   0.27497   0.00000  Uiso   1.00
H278   H     0.21893   0.42804   0.31964   0.00000  Uiso   1.00
H279   H     0.18496   0.39570   0.02509   0.00000  Uiso   1.00
H280   H     0.23365   0.37249   0.00680   0.00000  Uiso   1.00
N281   N     0.16667   0.61907   0.16667   0.00000  Uiso   1.00
N282   N     0.16667   0.38093   0.16667   0.00000  Uiso   1.00
O283   O     0.10559   0.53821   0.16666   0.00000  Uiso   1.00
O284   O     0.07597   0.44203   0.25960   0.00000  Uiso   1.00
O285   O     0.29053   0.50229   0.03993   0.00000  Uiso   1.00
O286   O     0.25838   0.56069   0.07583   0.00000  Uiso   1.00
O287   O     0.26096   0.48705   0.27112   0.00000  Uiso   1.00
O288   O     0.30492   0.42799   0.27801   0.00000  Uiso   1.00
O289   O     0.03484   0.55754   0.05276   0.00000  Uiso   1.00
O290   O     0.07429   0.49502   0.06223   0.00000  Uiso   1.00
O291   O     0.21125   0.37873   0.23923   0.00000  Uiso   1.00
O292   O     0.12128   0.61905   0.09570   0.00000  Uiso   1.00
O293   O     0.11001   0.38191   0.10780   0.00000  Uiso   1.00
O294   O     0.22774   0.46179   0.16667   0.00000  Uiso   1.00
O295   O     0.23228   0.62281   0.20902   0.00000  Uiso   1.00
O296   O     0.22774   0.53821   0.16667   0.00000  Uiso   1.00
O297   O     0.10559   0.46179   0.16666   0.00000  Uiso   1.00
O298   O     0.16667   0.53821   0.09511   0.00000  Uiso   1.00
O299   O     0.16666   0.46179   0.23822   0.00000  Uiso   1.00
O300   O     0.16666   0.53821   0.23822   0.00000  Uiso   1.00
O301   O     0.16667   0.46179   0.09511   0.00000  Uiso   1.00
O302   O     0.03857   0.49701   0.29477   0.00000  Uiso   1.00
Zn303  Zn    0.16667   0.55104   0.16667   0.00000  Uiso   1.00
Zn304  Zn    0.16667   0.44896   0.16667   0.00000  Uiso   1.00
C305   C     0.42027   0.49981   0.16750   0.00000  Uiso   1.00
C306   C     0.35407   0.51314   0.12346   0.00000  Uiso   1.00
C307   C     0.62389   0.50092   0.16734   0.00000  Uiso   1.00
C308   C     0.37595   0.49934   0.16706   0.00000  Uiso   1.00
C309   C     0.52467   0.35690   0.19992   0.00000  Uiso   1.00
C310   C     0.47528   0.64256   0.13334   0.00000  Uiso   1.00
C311   C     0.47266   0.35757   0.13603   0.00000  Uiso   1.00
C312   C     0.52775   0.64250   0.19647   0.00000  Uiso   1.00
C313   C     0.37963   0.47596   0.25743   0.00000  Uiso   1.00
C314   C     0.61955   0.52501   0.07708   0.00000  Uiso   1.00
C315   C     0.62384   0.46719   0.25453   0.00000  Uiso   1.00
C316   C     0.57971   0.50023   0.16677   0.00000  Uiso   1.00
C317   C     0.37673   0.52400   0.07739   0.00000  Uiso   1.00
C318   C     0.51884   0.37437   0.28141   0.00000  Uiso   1.00
C319   C     0.54056   0.39388   0.32761   0.00000  Uiso   1.00
C320   C     0.47327   0.62951   0.04957   0.00000  Uiso   1.00
C321   C     0.44753   0.60906   0.00688   0.00000  Uiso   1.00
C322   C     0.40325   0.36124   0.10843   0.00000  Uiso   1.00
C323   C     0.36946   0.39578   0.09913   0.00000  Uiso   1.00
C324   C     0.56766   0.60649   0.25865   0.00000  Uiso   1.00
C325   C     0.60458   0.62842   0.28627   0.00000  Uiso   1.00
C326   C     0.50141   0.50017   0.07306   0.00000  Uiso   1.00
C327   C     0.49997   0.49990   0.26036   0.00000  Uiso   1.00
C328   C     0.50185   0.50033   0.02186   0.00000  Uiso   1.00
C329   C     0.50108   0.50002   0.31156   0.00000  Uiso   1.00
C330   C     0.35576   0.48568   0.21042   0.00000  Uiso   1.00
C331   C     0.64401   0.51441   0.12368   0.00000  Uiso   1.00
C332   C     0.64573   0.48526   0.21024   0.00000  Uiso   1.00
H333   H     0.42246   0.43821   0.29423   0.00000  Uiso   1.00
H334   H     0.50548   0.61607   0.04897   0.00000  Uiso   1.00
H335   H     0.47465   0.66616   0.04217   0.00000  Uiso   1.00
H336   H     0.46201   0.61661   0.30398   0.00000  Uiso   1.00
H337   H     0.44592   0.57239   0.01156   0.00000  Uiso   1.00
H338   H     0.41551   0.62277   0.00593   0.00000  Uiso   1.00
H339   H     0.39700   0.34413   0.14475   0.00000  Uiso   1.00
H340   H     0.39974   0.33697   0.07757   0.00000  Uiso   1.00
H341   H     0.37551   0.41530   0.06456   0.00000  Uiso   1.00
H342   H     0.33867   0.37869   0.09469   0.00000  Uiso   1.00
H343   H     0.36822   0.41817   0.13155   0.00000  Uiso   1.00
H344   H     0.57564   0.56307   0.04282   0.00000  Uiso   1.00
H345   H     0.57393   0.57012   0.25771   0.00000  Uiso   1.00
H346   H     0.53861   0.60976   0.27964   0.00000  Uiso   1.00
H347   H     0.60360   0.62071   0.32677   0.00000  Uiso   1.00
H348   H     0.63422   0.61566   0.27167   0.00000  Uiso   1.00
H349   H     0.60421   0.66524   0.28084   0.00000  Uiso   1.00
H350   H     0.62405   0.42121   0.31050   0.00000  Uiso   1.00
H351   H     0.42050   0.50488   0.03004   0.00000  Uiso   1.00
H352   H     0.51116   0.33922   0.29028   0.00000  Uiso   1.00
H353   H     0.48843   0.39116   0.27497   0.00000  Uiso   1.00
H354   H     0.55226   0.42804   0.31964   0.00000  Uiso   1.00
H355   H     0.51830   0.39570   0.02509   0.00000  Uiso   1.00
H356   H     0.56698   0.37249   0.00680   0.00000  Uiso   1.00
N357   N     0.50000   0.61907   0.16667   0.00000  Uiso   1.00
N358   N     0.50000   0.38093   0.16667   0.00000  Uiso   1.00
O359   O     0.43892   0.53821   0.16666   0.00000  Uiso   1.00
O360   O     0.40930   0.44203   0.25960   0.00000  Uiso   1.00
O361   O     0.62386   0.50229   0.03993   0.00000  Uiso   1.00
O362   O     0.59171   0.56069   0.07583   0.00000  Uiso   1.00
O363   O     0.59429   0.48705   0.27112   0.00000  Uiso   1.00
O364   O     0.63825   0.42799   0.27801   0.00000  Uiso   1.00
O365   O     0.36818   0.55754   0.05276   0.00000  Uiso   1.00
O366   O     0.40762   0.49502   0.06223   0.00000  Uiso   1.00
O367   O     0.54459   0.37873   0.23923   0.00000  Uiso   1.00
O368   O     0.45462   0.61905   0.09570   0.00000  Uiso   1.00
O369   O     0.44335   0.38191   0.10780   0.00000  Uiso   1.00
O370   O     0.56108   0.46179   0.16667   0.00000  Uiso   1.00
O371   O     0.56562   0.62281   0.20902   0.00000  Uiso   1.00
O372   O     0.56108   0.53821   0.16667   0.00000  Uiso   1.00
O373   O     0.43892   0.46179   0.16666   0.00000  Uiso   1.00
O374   O     0.50000   0.53821   0.09511   0.00000  Uiso   1.00
O375   O     0.50000   0.46179   0.23822   0.00000  Uiso   1.00
O376   O     0.50000   0.53821   0.23822   0.00000  Uiso   1.00
O377   O     0.50000   0.46179   0.09511   0.00000  Uiso   1.00
O378   O     0.37191   0.49701   0.29477   0.00000  Uiso   1.00
Zn379  Zn    0.50000   0.55104   0.16667   0.00000  Uiso   1.00
Zn380  Zn    0.50000   0.44896   0.16667   0.00000  Uiso   1.00
C381   C     0.75360   0.49981   0.16750   0.00000  Uiso   1.00
C382   C     0.68740   0.51314   0.12346   0.00000  Uiso   1.00
C383   C     0.95722   0.50092   0.16734   0.00000  Uiso   1.00
C384   C     0.70929   0.49934   0.16706   0.00000  Uiso   1.00
C385   C     0.85800   0.35690   0.19992   0.00000  Uiso   1.00
C386   C     0.80861   0.64256   0.13334   0.00000  Uiso   1.00
C387   C     0.80599   0.35757   0.13603   0.00000  Uiso   1.00
C388   C     0.86108   0.64250   0.19647   0.00000  Uiso   1.00
C389   C     0.71296   0.47596   0.25743   0.00000  Uiso   1.00
C390   C     0.95289   0.52501   0.07708   0.00000  Uiso   1.00
C391   C     0.95718   0.46719   0.25453   0.00000  Uiso   1.00
C392   C     0.91304   0.50023   0.16677   0.00000  Uiso   1.00
C393   C     0.71007   0.52400   0.07739   0.00000  Uiso   1.00
C394   C     0.85218   0.37437   0.28141   0.00000  Uiso   1.00
C395   C     0.87390   0.39388   0.32761   0.00000  Uiso   1.00
C396   C     0.80660   0.62951   0.04957   0.00000  Uiso   1.00
C397   C     0.78086   0.60906   0.00688   0.00000  Uiso   1.00
C398   C     0.73658   0.36124   0.10843   0.00000  Uiso   1.00
C399   C     0.70279   0.39578   0.09913   0.00000  Uiso   1.00
C400   C     0.90099   0.60649   0.25865   0.00000  Uiso   1.00
C401   C     0.93791   0.62842   0.28627   0.00000  Uiso   1.00
C402   C     0.83474   0.50017   0.07306   0.00000  Uiso   1.00
C403   C     0.83330   0.49990   0.26036   0.00000  Uiso   1.00
C404   C     0.83519   0.50033   0.02186   0.00000  Uiso   1.00
C405   C     0.83441   0.50002   0.31156   0.00000  Uiso   1.00
C406   C     0.68909   0.48568   0.21042   0.00000  Uiso   1.00
C407   C     0.97735   0.51441   0.12368   0.00000  Uiso   1.00
C408   C     0.97906   0.48526   0.21024   0.00000  Uiso   1.00
H409   H     0.75579   0.43821   0.29423   0.00000  Uiso   1.00
H410   H     0.83881   0.61607   0.04897   0.00000  Uiso   1.00
H411   H     0.80798   0.66616   0.04217   0.00000  Uiso   1.00
H412   H     0.79534   0.61661   0.30398   0.00000  Uiso   1.00
H413   H     0.77925   0.57239   0.01156   0.00000  Uiso   1.00
H414   H     0.74884   0.62277   0.00593   0.00000  Uiso   1.00
H415   H     0.73033   0.34413   0.14475   0.00000  Uiso   1.00
H416   H     0.73307   0.33697   0.07757   0.00000  Uiso   1.00
H417   H     0.70884   0.41530   0.06456   0.00000  Uiso   1.00
H418   H     0.67200   0.37869   0.09469   0.00000  Uiso   1.00
H419   H     0.70155   0.41817   0.13155   0.00000  Uiso   1.00
H420   H     0.90897   0.56307   0.04282   0.00000  Uiso   1.00
H421   H     0.90726   0.57012   0.25771   0.00000  Uiso   1.00
H422   H     0.87194   0.60976   0.27964   0.00000  Uiso   1.00
H423   H     0.93694   0.62071   0.32677   0.00000  Uiso   1.00
H424   H     0.96755   0.61566   0.27167   0.00000  Uiso   1.00
H425   H     0.93755   0.66524   0.28084   0.00000  Uiso   1.00
H426   H     0.95738   0.42121   0.31050   0.00000  Uiso   1.00
H427   H     0.75384   0.50488   0.03004   0.00000  Uiso   1.00
H428   H     0.84449   0.33922   0.29028   0.00000  Uiso   1.00
H429   H     0.82177   0.39116   0.27497   0.00000  Uiso   1.00
H430   H     0.88559   0.42804   0.31964   0.00000  Uiso   1.00
H431   H     0.85163   0.39570   0.02509   0.00000  Uiso   1.00
H432   H     0.90031   0.37249   0.00680   0.00000  Uiso   1.00
N433   N     0.83333   0.61907   0.16667   0.00000  Uiso   1.00
N434   N     0.83333   0.38093   0.16667   0.00000  Uiso   1.00
O435   O     0.77226   0.53821   0.16666   0.00000  Uiso   1.00
O436   O     0.74264   0.44203   0.25960   0.00000  Uiso   1.00
O437   O     0.95719   0.50229   0.03993   0.00000  Uiso   1.00
O438   O     0.92505   0.56069   0.07583   0.00000  Uiso   1.00
O439   O     0.92762   0.48705   0.27112   0.00000  Uiso   1.00
O440   O     0.97159   0.42799   0.27801   0.00000  Uiso   1.00
O441   O     0.70151   0.55754   0.05276   0.00000  Uiso   1.00
O442   O     0.74095   0.49502   0.06223   0.00000  Uiso   1.00
O443   O     0.87792   0.37873   0.23923   0.00000  Uiso   1.00
O444   O     0.78795   0.61905   0.09570   0.00000  Uiso   1.00
O445   O     0.77668   0.38191   0.10780   0.00000  Uiso   1.00
O446   O     0.89441   0.46179   0.16667   0.00000  Uiso   1.00
O447   O     0.89895   0.62281   0.20902   0.00000  Uiso   1.00
O448   O     0.89441   0.53821   0.16667   0.00000  Uiso   1.00
O449   O     0.77226   0.46179   0.16666   0.00000  Uiso   1.00
O450   O     0.83334   0.53821   0.09511   0.00000  Uiso   1.00
O451   O     0.83333   0.46179   0.23822   0.00000  Uiso   1.00
O452   O     0.83333   0.53821   0.23822   0.00000  Uiso   1.00
O453   O     0.83334   0.46179   0.09511   0.00000  Uiso   1.00
O454   O     0.70524   0.49701   0.29477   0.00000  Uiso   1.00
Zn455  Zn    0.83333   0.55104   0.16667   0.00000  Uiso   1.00
Zn456  Zn    0.83333   0.44896   0.16667   0.00000  Uiso   1.00
C457   C     0.08693   0.83315   0.16750   0.00000  Uiso   1.00
C458   C     0.02073   0.84647   0.12346   0.00000  Uiso   1.00
C459   C     0.29056   0.83425   0.16734   0.00000  Uiso   1.00
C460   C     0.04262   0.83267   0.16706   0.00000  Uiso   1.00
C461   C     0.19134   0.69024   0.19992   0.00000  Uiso   1.00
C462   C     0.14195   0.97589   0.13334   0.00000  Uiso   1.00
C463   C     0.13932   0.69090   0.13603   0.00000  Uiso   1.00
C464   C     0.19441   0.97584   0.19647   0.00000  Uiso   1.00
C465   C     0.04630   0.80929   0.25743   0.00000  Uiso   1.00
C466   C     0.28622   0.85834   0.07708   0.00000  Uiso   1.00
C467   C     0.29051   0.80052   0.25453   0.00000  Uiso   1.00
C468   C     0.24638   0.83356   0.16677   0.00000  Uiso   1.00
C469   C     0.04340   0.85733   0.07739   0.00000  Uiso   1.00
C470   C     0.18551   0.70771   0.28141   0.00000  Uiso   1.00
C471   C     0.20723   0.72721   0.32761   0.00000  Uiso   1.00
C472   C     0.13993   0.96285   0.04957   0.00000  Uiso   1.00
C473   C     0.11420   0.94239   0.00688   0.00000  Uiso   1.00
C474   C     0.06991   0.69458   0.10843   0.00000  Uiso   1.00
C475   C     0.03612   0.72911   0.09913   0.00000  Uiso   1.00
C476   C     0.23433   0.93982   0.25865   0.00000  Uiso   1.00
C477   C     0.27125   0.96175   0.28627   0.00000  Uiso   1.00
C478   C     0.16807   0.83351   0.07306   0.00000  Uiso   1.00
C479   C     0.16663   0.83323   0.26036   0.00000  Uiso   1.00
C480   C     0.16852   0.83366   0.02186   0.00000  Uiso   1.00
C481   C     0.16774   0.83335   0.31156   0.00000  Uiso   1.00
C482   C     0.02243   0.81901   0.21042   0.00000  Uiso   1.00
C483   C     0.31068   0.84774   0.12368   0.00000  Uiso   1.00
C484   C     0.31240   0.81859   0.21024   0.00000  Uiso   1.00
H485   H     0.08912   0.77155   0.29423   0.00000  Uiso   1.00
H486   H     0.17215   0.94940   0.04897   0.00000  Uiso   1.00
H487   H     0.14131   0.99949   0.04217   0.00000  Uiso   1.00
H488   H     0.12867   0.94994   0.30398   0.00000  Uiso   1.00
H489   H     0.11258   0.90572   0.01156   0.00000  Uiso   1.00
H490   H     0.08218   0.95611   0.00593   0.00000  Uiso   1.00
H491   H     0.06366   0.67746   0.14475   0.00000  Uiso   1.00
H492   H     0.06640   0.67031   0.07757   0.00000  Uiso   1.00
H493   H     0.04217   0.74863   0.06456   0.00000  Uiso   1.00
H494   H     0.00534   0.71203   0.09469   0.00000  Uiso   1.00
H495   H     0.03488   0.75151   0.13155   0.00000  Uiso   1.00
H496   H     0.24231   0.89640   0.04282   0.00000  Uiso   1.00
H497   H     0.24060   0.90345   0.25771   0.00000  Uiso   1.00
H498   H     0.20527   0.94309   0.27964   0.00000  Uiso   1.00
H499   H     0.27027   0.95404   0.32677   0.00000  Uiso   1.00
H500   H     0.30088   0.94900   0.27167   0.00000  Uiso   1.00
H501   H     0.27088   0.99857   0.28084   0.00000  Uiso   1.00
H502   H     0.29071   0.75455   0.31050   0.00000  Uiso   1.00
H503   H     0.08717   0.83821   0.03004   0.00000  Uiso   1.00
H504   H     0.17782   0.67255   0.29028   0.00000  Uiso   1.00
H505   H     0.15510   0.72449   0.27497   0.00000  Uiso   1.00
H506   H     0.21893   0.76137   0.31964   0.00000  Uiso   1.00
H507   H     0.18496   0.72903   0.02509   0.00000  Uiso   1.00
H508   H     0.23365   0.70582   0.00680   0.00000  Uiso   1.00
N509   N     0.16667   0.95240   0.16667   0.00000  Uiso   1.00
N510   N     0.16667   0.71427   0.16667   0.00000  Uiso   1.00
O511   O     0.10559   0.87154   0.16666   0.00000  Uiso   1.00
O512   O     0.07597   0.77537   0.25960   0.00000  Uiso   1.00
O513   O     0.29053   0.83562   0.03993   0.00000  Uiso   1.00
O514   O     0.25838   0.89402   0.07583   0.00000  Uiso   1.00
O515   O     0.26096   0.82038   0.27112   0.00000  Uiso   1.00
O516   O     0.30492   0.76132   0.27801   0.00000  Uiso   1.00
O517   O     0.03484   0.89087   0.05276   0.00000  Uiso   1.00
O518   O     0.07429   0.82835   0.06223   0.00000  Uiso   1.00
O519   O     0.21125   0.71207   0.23923   0.00000  Uiso   1.00
O520   O     0.12128   0.95239   0.09570   0.00000  Uiso   1.00
O521   O     0.11001   0.71525   0.10780   0.00000  Uiso   1.00
O522   O     0.22774   0.79513   0.16667   0.00000  Uiso   1.00
O523   O     0.23228   0.95614   0.20902   0.00000  Uiso   1.00
O524   O     0.22774   0.87154   0.16667   0.00000  Uiso   1.00
O525   O     0.10559   0.79513   0.16666   0.00000  Uiso   1.00
O526   O     0.16667   0.87155   0.09511   0.00000  Uiso   1.00
O527   O     0.16666   0.79512   0.23822   0.00000  Uiso   1.00
O528   O     0.16666   0.87155   0.23822   0.00000  Uiso   1.00
O529   O     0.16667   0.79512   0.09511   0.00000  Uiso   1.00
O530   O     0.03857   0.83034   0.29477   0.00000  Uiso   1.00
Zn531  Zn    0.16667   0.88437   0.16667   0.00000  Uiso   1.00
Zn532  Zn    0.16667   0.78229   0.16667   0.00000  Uiso   1.00
C533   C     0.42027   0.83315   0.16750   0.00000  Uiso   1.00
C534   C     0.35407   0.84647   0.12346   0.00000  Uiso   1.00
C535   C     0.62389   0.83425   0.16734   0.00000  Uiso   1.00
C536   C     0.37595   0.83267   0.16706   0.00000  Uiso   1.00
C537   C     0.52467   0.69024   0.19992   0.00000  Uiso   1.00
C538   C     0.47528   0.97589   0.13334   0.00000  Uiso   1.00
C539   C     0.47266   0.69090   0.13603   0.00000  Uiso   1.00
C540   C     0.52775   0.97584   0.19647   0.00000  Uiso   1.00
C541   C     0.37963   0.80929   0.25743   0.00000  Uiso   1.00
C542   C     0.61955   0.85834   0.07708   0.00000  Uiso   1.00
C543   C     0.62384   0.80052   0.25453   0.00000  Uiso   1.00
C544   C     0.57971   0.83356   0.16677   0.00000  Uiso   1.00
C545   C     0.37673   0.85733   0.07739   0.00000  Uiso   1.00
C546   C     0.51884   0.70771   0.28141   0.00000  Uiso   1.00
C547   C     0.54056   0.72721   0.32761   0.00000  Uiso   1.00
C548   C     0.47327   0.96285   0.04957   0.00000  Uiso   1.00
C549   C     0.44753   0.94239   0.00688   0.00000  Uiso   1.00
C550   C     0.40325   0.69458   0.10843   0.00000  Uiso   1.00
C551   C     0.36946   0.72911   0.09913   0.00000  Uiso   1.00
C552   C     0.56766   0.93982   0.25865   0.00000  Uiso   1.00
C553   C     0.60458   0.96175   0.28627   0.00000  Uiso   1.00
C554   C     0.50141   0.83351   0.07306   0.00000  Uiso   1.00
C555   C     0.49997   0.83323   0.26036   0.00000  Uiso   1.00
C556   C     0.50185   0.83366   0.02186   0.00000  Uiso   1.00
C557   C     0.50108   0.83335   0.31156   0.00000  Uiso   1.00
C558   C     0.35576   0.81901   0.21042   0.00000  Uiso   1.00
C559   C     0.64401   0.84774   0.12368   0.00000  Uiso   1.00
C560   C     0.64573   0.81859   0.21024   0.00000  Uiso   1.00
H561   H     0.42246   0.77155   0.29423   0.00000  Uiso   1.00
H562   H     0.50548   0.94940   0.04897   0.00000  Uiso   1.00
H563   H     0.47465   0.99949   0.04217   0.00000  Uiso   1.00
H564   H     0.46201   0.94994   0.30398   0.00000  Uiso   1.00
H565   H     0.44592   0.90572   0.01156   0.00000  Uiso   1.00
H566   H     0.41551   0.95611   0.00593   0.00000  Uiso   1.00
H567   H     0.39700   0.67746   0.14475   0.00000  Uiso   1.00
H568   H     0.39974   0.67031   0.07757   0.00000  Uiso   1.00
H569   H     0.37551   0.74863   0.06456   0.00000  Uiso   1.00
H570   H     0.33867   0.71203   0.09469   0.00000  Uiso   1.00
H571   H     0.36822   0.75151   0.13155   0.00000  Uiso   1.00
H572   H     0.57564   0.89640   0.04282   0.00000  Uiso   1.00
H573   H     0.57393   0.90345   0.25771   0.00000  Uiso   1.00
H574   H     0.53861   0.94309   0.27964   0.00000  Uiso   1.00
H575   H     0.60360   0.95404   0.32677   0.00000  Uiso   1.00
H576   H     0.63422   0.94900   0.27167   0.00000  Uiso   1.00
H577   H     0.60421   0.99857   0.28084   0.00000  Uiso   1.00
H578   H     0.62405   0.75455   0.31050   0.00000  Uiso   1.00
H579   H     0.42050   0.83821   0.03004   0.00000  Uiso   1.00
H580   H     0.51116   0.67255   0.29028   0.00000  Uiso   1.00
H581   H     0.48843   0.72449   0.27497   0.00000  Uiso   1.00
H582   H     0.55226   0.76137   0.31964   0.00000  Uiso   1.00
H583   H     0.51830   0.72903   0.02509   0.00000  Uiso   1.00
H584   H     0.56698   0.70582   0.00680   0.00000  Uiso   1.00
N585   N     0.50000   0.95240   0.16667   0.00000  Uiso   1.00
N586   N     0.50000   0.71427   0.16667   0.00000  Uiso   1.00
O587   O     0.43892   0.87154   0.16666   0.00000  Uiso   1.00
O588   O     0.40930   0.77537   0.25960   0.00000  Uiso   1.00
O589   O     0.62386   0.83562   0.03993   0.00000  Uiso   1.00
O590   O     0.59171   0.89402   0.07583   0.00000  Uiso   1.00
O591   O     0.59429   0.82038   0.27112   0.00000  Uiso   1.00
O592   O     0.63825   0.76132   0.27801   0.00000  Uiso   1.00
O593   O     0.36818   0.89087   0.05276   0.00000  Uiso   1.00
O594   O     0.40762   0.82835   0.06223   0.00000  Uiso   1.00
O595   O     0.54459   0.71207   0.23923   0.00000  Uiso   1.00
O596   O     0.45462   0.95239   0.09570   0.00000  Uiso   1.00
O597   O     0.44335   0.71525   0.10780   0.00000  Uiso   1.00
O598   O     0.56108   0.79513   0.16667   0.00000  Uiso   1.00
O599   O     0.56562   0.95614   0.20902   0.00000  Uiso   1.00
O600   O     0.56108   0.87154   0.16667   0.00000  Uiso   1.00
O601   O     0.43892   0.79513   0.16666   0.00000  Uiso   1.00
O602   O     0.50000   0.87155   0.09511   0.00000  Uiso   1.00
O603   O     0.50000   0.79512   0.23822   0.00000  Uiso   1.00
O604   O     0.50000   0.87155   0.23822   0.00000  Uiso   1.00
O605   O     0.50000   0.79512   0.09511   0.00000  Uiso   1.00
O606   O     0.37191   0.83034   0.29477   0.00000  Uiso   1.00
Zn607  Zn    0.50000   0.88437   0.16667   0.00000  Uiso   1.00
Zn608  Zn    0.50000   0.78229   0.16667   0.00000  Uiso   1.00
C609   C     0.75360   0.83315   0.16750   0.00000  Uiso   1.00
C610   C     0.68740   0.84647   0.12346   0.00000  Uiso   1.00
C611   C     0.95722   0.83425   0.16734   0.00000  Uiso   1.00
C612   C     0.70929   0.83267   0.16706   0.00000  Uiso   1.00
C613   C     0.85800   0.69024   0.19992   0.00000  Uiso   1.00
C614   C     0.80861   0.97589   0.13334   0.00000  Uiso   1.00
C615   C     0.80599   0.69090   0.13603   0.00000  Uiso   1.00
C616   C     0.86108   0.97584   0.19647   0.00000  Uiso   1.00
C617   C     0.71296   0.80929   0.25743   0.00000  Uiso   1.00
C618   C     0.95289   0.85834   0.07708   0.00000  Uiso   1.00
C619   C     0.95718   0.80052   0.25453   0.00000  Uiso   1.00
C620   C     0.91304   0.83356   0.16677   0.00000  Uiso   1.00
C621   C     0.71007   0.85733   0.07739   0.00000  Uiso   1.00
C622   C     0.85218   0.70771   0.28141   0.00000  Uiso   1.00
C623   C     0.87390   0.72721   0.32761   0.00000  Uiso   1.00
C624   C     0.80660   0.96285   0.04957   0.00000  Uiso   1.00
C625   C     0.78086   0.94239   0.00688   0.00000  Uiso   1.00
C626   C     0.73658   0.69458   0.10843   0.00000  Uiso   1.00
C627   C     0.70279   0.72911   0.09913   0.00000  Uiso   1.00
C628   C     0.90099   0.93982   0.25865   0.00000  Uiso   1.00
C629   C     0.93791   0.96175   0.28627   0.00000  Uiso   1.00
C630   C     0.83474   0.83351   0.07306   0.00000  Uiso   1.00
C631   C     0.83330   0.83323   0.26036   0.00000  Uiso   1.00
C632   C     0.83519   0.83366   0.02186   0.00000  Uiso   1.00
C633   C     0.83441   0.83335   0.31156   0.00000  Uiso   1.00
C634   C     0.68909   0.81901   0.21042   0.00000  Uiso   1.00
C635   C     0.97735   0.84774   0.12368   0.00000  Uiso   1.00
C636   C     0.97906   0.81859   0.21024   0.00000  Uiso   1.00
H637   H     0.75579   0.77155   0.29423   0.00000  Uiso   1.00
H638   H     0.83881   0.94940   0.04897   0.00000  Uiso   1.00
H639   H     0.80798   0.99949   0.04217   0.00000  Uiso   1.00
H640   H     0.79534   0.94994   0.30398   0.00000  Uiso   1.00
H641   H     0.77925   0.90572   0.01156   0.00000  Uiso   1.00
H642   H     0.74884   0.95611   0.00593   0.00000  Uiso   1.00
H643   H     0.73033   0.67746   0.14475   0.00000  Uiso   1.00
H644   H     0.73307   0.67031   0.07757   0.00000  Uiso   1.00
H645   H     0.70884   0.74863   0.06456   0.00000  Uiso   1.00
H646   H     0.67200   0.71203   0.09469   0.00000  Uiso   1.00
H647   H     0.70155   0.75151   0.13155   0.00000  Uiso   1.00
H648   H     0.90897   0.89640   0.04282   0.00000  Uiso   1.00
H649   H     0.90726   0.90345   0.25771   0.00000  Uiso   1.00
H650   H     0.87194   0.94309   0.27964   0.00000  Uiso   1.00
H651   H     0.93694   0.95404   0.32677   0.00000  Uiso   1.00
H652   H     0.96755   0.94900   0.27167   0.00000  Uiso   1.00
H653   H     0.93755   0.99857   0.28084   0.00000  Uiso   1.00
H654   H     0.95738   0.75455   0.31050   0.00000  Uiso   1.00
H655   H     0.75384   0.83821   0.03004   0.00000  Uiso   1.00
H656   H     0.84449   0.67255   0.29028   0.00000  Uiso   1.00
H657   H     0.82177   0.72449   0.27497   0.00000  Uiso   1.00
H658   H     0.88559   0.76137   0.31964   0.00000  Uiso   1.00
H659   H     0.85163   0.72903   0.02509   0.00000  Uiso   1.00
H660   H     0.90031   0.70582   0.00680   0.00000  Uiso   1.00
N661   N     0.83333   0.95240   0.16667   0.00000  Uiso   1.00
N662   N     0.83333   0.71427   0.16667   0.00000  Uiso   1.00
O663   O     0.77226   0.87154   0.16666   0.00000  Uiso   1.00
O664   O     0.74264   0.77537   0.25960   0.00000  Uiso   1.00
O665   O     0.95719   0.83562   0.03993   0.00000  Uiso   1.00
O666   O     0.92505   0.89402   0.07583   0.00000  Uiso   1.00
O667   O     0.92762   0.82038   0.27112   0.00000  Uiso   1.00
O668   O     0.97159   0.76132   0.27801   0.00000  Uiso   1.00
O669   O     0.70151   0.89087   0.05276   0.00000  Uiso   1.00
O670   O     0.74095   0.82835   0.06223   0.00000  Uiso   1.00
O671   O     0.87792   0.71207   0.23923   0.00000  Uiso   1.00
O672   O     0.78795   0.95239   0.09570   0.00000  Uiso   1.00
O673   O     0.77668   0.71525   0.10780   0.00000  Uiso   1.00
O674   O     0.89441   0.79513   0.16667   0.00000  Uiso   1.00
O675   O     0.89895   0.95614   0.20902   0.00000  Uiso   1.00
O676   O     0.89441   0.87154   0.16667   0.00000  Uiso   1.00
O677   O     0.77226   0.79513   0.16666   0.00000  Uiso   1.00
O678   O     0.83334   0.87155   0.09511   0.00000  Uiso   1.00
O679   O     0.83333   0.79512   0.23822   0.00000  Uiso   1.00
O680   O     0.83333   0.87155   0.23822   0.00000  Uiso   1.00
O681   O     0.83334   0.79512   0.09511   0.00000  Uiso   1.00
O682   O     0.70524   0.83034   0.29477   0.00000  Uiso   1.00
Zn683  Zn    0.83333   0.88437   0.16667   0.00000  Uiso   1.00
Zn684  Zn    0.83333   0.78229   0.16667   0.00000  Uiso   1.00
C685   C     0.08693   0.16648   0.50083   0.00000  Uiso   1.00
C686   C     0.02073   0.17980   0.45679   0.00000  Uiso   1.00
C687   C     0.29056   0.16759   0.50067   0.00000  Uiso   1.00
C688   C     0.04262   0.16601   0.50039   0.00000  Uiso   1.00
C689   C     0.19134   0.02357   0.53325   0.00000  Uiso   1.00
C690   C     0.14195   0.30922   0.46667   0.00000  Uiso   1.00
C691   C     0.13932   0.02423   0.46936   0.00000  Uiso   1.00
C692   C     0.19441   0.30917   0.52981   0.00000  Uiso   1.00
C693   C     0.04630   0.14262   0.59076   0.00000  Uiso   1.00
C694   C     0.28622   0.19167   0.41041   0.00000  Uiso   1.00
C695   C     0.29051   0.13385   0.58786   0.00000  Uiso   1.00
C696   C     0.24638   0.16690   0.50010   0.00000  Uiso   1.00
C697   C     0.04340   0.19066   0.41073   0.00000  Uiso   1.00
C698   C     0.18551   0.04104   0.61474   0.00000  Uiso   1.00
C699   C     0.20723   0.06054   0.66094   0.00000  Uiso   1.00
C700   C     0.13993   0.29618   0.38291   0.00000  Uiso   1.00
C701   C     0.11420   0.27573   0.34021   0.00000  Uiso   1.00
C702   C     0.06991   0.02791   0.44176   0.00000  Uiso   1.00
C703   C     0.03612   0.06244   0.43247   0.00000  Uiso   1.00
C704   C     0.23433   0.27315   0.59198   0.00000  Uiso   1.00
C705   C     0.27125   0.29508   0.61961   0.00000  Uiso   1.00
C706   C     0.16807   0.16684   0.40639   0.00000  Uiso   1.00
C707   C     0.16663   0.16657   0.59370   0.00000  Uiso   1.00
C708   C     0.16852   0.16700   0.35519   0.00000  Uiso   1.00
C709   C     0.16774   0.16668   0.64490   0.00000  Uiso   1.00
C710   C     0.02243   0.15235   0.54375   0.00000  Uiso   1.00
C711   C     0.31068   0.18107   0.45701   0.00000  Uiso   1.00
C712   C     0.31240   0.15192   0.54357   0.00000  Uiso   1.00
H713   H     0.08912   0.10488   0.62757   0.00000  Uiso   1.00
H714   H     0.17215   0.28274   0.38231   0.00000  Uiso   1.00
H715   H     0.14131   0.33282   0.37550   0.00000  Uiso   1.00
H716   H     0.12867   0.28327   0.63731   0.00000  Uiso   1.00
H717   H     0.11258   0.23905   0.34489   0.00000  Uiso   1.00
H718   H     0.08218   0.28944   0.33926   0.00000  Uiso   1.00
H719   H     0.06366   0.01079   0.47808   0.00000  Uiso   1.00
H720   H     0.06640   0.00364   0.41090   0.00000  Uiso   1.00
H721   H     0.04217   0.08196   0.39789   0.00000  Uiso   1.00
H722   H     0.00534   0.04536   0.42803   0.00000  Uiso   1.00
H723   H     0.03488   0.08484   0.46488   0.00000  Uiso   1.00
H724   H     0.24231   0.22973   0.37615   0.00000  Uiso   1.00
H725   H     0.24060   0.23679   0.59105   0.00000  Uiso   1.00
H726   H     0.20527   0.27643   0.61298   0.00000  Uiso   1.00
H727   H     0.27027   0.28738   0.66010   0.00000  Uiso   1.00
H728   H     0.30088   0.28233   0.60501   0.00000  Uiso   1.00
H729   H     0.27088   0.33190   0.61417   0.00000  Uiso   1.00
H730   H     0.29071   0.08788   0.64383   0.00000  Uiso   1.00
H731   H     0.08717   0.17154   0.36338   0.00000  Uiso   1.00
H732   H     0.17782   0.00589   0.62362   0.00000  Uiso   1.00
H733   H     0.15510   0.05782   0.60830   0.00000  Uiso   1.00
H734   H     0.21893   0.09470   0.65297   0.00000  Uiso   1.00
H735   H     0.18496   0.06236   0.35842   0.00000  Uiso   1.00
H736   H     0.23365   0.03915   0.34013   0.00000  Uiso   1.00
N737   N     0.16667   0.28573   0.50000   0.00000  Uiso   1.00
N738   N     0.16667   0.04760   0.50000   0.00000  Uiso   1.00
O739   O     0.10559   0.20487   0.50000   0.00000  Uiso   1.00
O740   O     0.07597   0.10870   0.59294   0.00000  Uiso   1.00
O741   O     0.29053   0.16895   0.37327   0.00000  Uiso   1.00
O742   O     0.25838   0.22735   0.40917   0.00000  Uiso   1.00
O743   O     0.26096   0.15371   0.60446   0.00000  Uiso   1.00
O744   O     0.30492   0.09466   0.61135   0.00000  Uiso   1.00
O745   O     0.03484   0.22421   0.38609   0.00000  Uiso   1.00
O746   O     0.07429   0.16169   0.39556   0.00000  Uiso   1.00
O747   O     0.21125   0.04540   0.57256   0.00000  Uiso   1.00
O748   O     0.12128   0.28572   0.42903   0.00000  Uiso   1.00
O749   O     0.11001   0.04858   0.44114   0.00000  Uiso   1.00
O750   O     0.22774   0.12846   0.50000   0.00000  Uiso   1.00
O751   O     0.23228   0.28947   0.54236   0.00000  Uiso   1.00
O752   O     0.22774   0.20487   0.50000   0.00000  Uiso   1.00
O753   O     0.10559   0.12846   0.50000   0.00000  Uiso   1.00
O754   O     0.16667   0.20488   0.42845   0.00000  Uiso   1.00
O755   O     0.16666   0.12845   0.57155   0.00000  Uiso   1.00
O756   O     0.16666   0.20488   0.57155   0.00000  Uiso   1.00
O757   O     0.16667   0.12845   0.42845   0.00000  Uiso   1.00
O758   O     0.03857   0.16368   0.62810   0.00000  Uiso   1.00
Zn759  Zn    0.16667   0.21771   0.50000   0.00000  Uiso   1.00
Zn760  Zn    0.16667   0.11563   0.50000   0.00000  Uiso   1.00
C761   C     0.42027   0.16648   0.50083   0.00000  Uiso   1.00
C762   C     0.35407   0.17980   0.45679   0.00000  Uiso   1.00
C763   C     0.62389   0.16759   0.50067   0.00000  Uiso   1.00
C764   C     0.37595   0.16601   0.50039   0.00000  Uiso   1.00
C765   C     0.52467   0.02357   0.53325   0.00000  Uiso   1.00
C766   C     0.47528   0.30922   0.46667   0.00000  Uiso   1.00
C767   C     0.47266   0.02423   0.46936   0.00000  Uiso   1.00
C768   C     0.52775   0.30917   0.52981   0.00000  Uiso   1.00
C769   C     0.37963   0.14262   0.59076   0.00000  Uiso   1.00
C770   C     0.61955   0.19167   0.41041   0.00000  Uiso   1.00
C771   C     0.62384   0.13385   0.58786   0.00000  Uiso   1.00
C772   C     0.57971   0.16690   0.50010   0.00000  Uiso   1.00
C773   C     0.37673   0.19066   0.41073   0.00000  Uiso   1.00
C774   C     0.51884   0.04104   0.61474   0.00000  Uiso   1.00
C775   C     0.54056   0.06054   0.66094   0.00000  Uiso   1.00
C776   C     0.47327   0.29618   0.38291   0.00000  Uiso   1.00
C777   C     0.44753   0.27573   0.34021   0.00000  Uiso   1.00
C778   C     0.40325   0.02791   0.44176   0.00000  Uiso   1.00
C779   C     0.36946   0.06244   0.43247   0.00000  Uiso   1.00
C780   C     0.56766   0.27315   0.59198   0.00000  Uiso   1.00
C781   C     0.60458   0.29508   0.61961   0.00000  Uiso   1.00
C782   C     0.50141   0.16684   0.40639   0.00000  Uiso   1.00
C783   C     0.49997   0.16657   0.59370   0.00000  Uiso   1.00
C784   C     0.50185   0.16700   0.35519   0.00000  Uiso   1.00
C785   C     0.50108   0.16668   0.64490   0.00000  Uiso   1.00
C786   C     0.35576   0.15235   0.54375   0.00000  Uiso   1.00
C787   C     0.64401   0.18107   0.45701   0.00000  Uiso   1.00
C788   C     0.64573   0.15192   0.54357   0.00000  Uiso   1.00
H789   H     0.42246   0.10488   0.62757   0.00000  Uiso   1.00
H790   H     0.50548   0.28274   0.38231   0.00000  Uiso   1.00
H791   H     0.47465   0.33282   0.37550   0.00000  Uiso   1.00
H792   H     0.46201   0.28327   0.63731   0.00000  Uiso   1.00
H793   H     0.44592   0.23905   0.34489   0.00000  Uiso   1.00
H794   H     0.41551   0.28944   0.33926   0.00000  Uiso   1.00
H795   H     0.39700   0.01079   0.47808   0.00000  Uiso   1.00
H796   H     0.39974   0.00364   0.41090   0.00000  Uiso   1.00
H797   H     0.37551   0.08196   0.39789   0.00000  Uiso   1.00
H798   H     0.33867   0.04536   0.42803   0.00000  Uiso   1.00
H799   H     0.36822   0.08484   0.46488   0.00000  Uiso   1.00
H800   H     0.57564   0.22973   0.37615   0.00000  Uiso   1.00
H801   H     0.57393   0.23679   0.59105   0.00000  Uiso   1.00
H802   H     0.53861   0.27643   0.61298   0.00000  Uiso   1.00
H803   H     0.60360   0.28738   0.66010   0.00000  Uiso   1.00
H804   H     0.63422   0.28233   0.60501   0.00000  Uiso   1.00
H805   H     0.60421   0.33190   0.61417   0.00000  Uiso   1.00
H806   H     0.62405   0.08788   0.64383   0.00000  Uiso   1.00
H807   H     0.42050   0.17154   0.36338   0.00000  Uiso   1.00
H808   H     0.51116   0.00589   0.62362   0.00000  Uiso   1.00
H809   H     0.48843   0.05782   0.60830   0.00000  Uiso   1.00
H810   H     0.55226   0.09470   0.65297   0.00000  Uiso   1.00
H811   H     0.51830   0.06236   0.35842   0.00000  Uiso   1.00
H812   H     0.56698   0.03915   0.34013   0.00000  Uiso   1.00
N813   N     0.50000   0.28573   0.50000   0.00000  Uiso   1.00
N814   N     0.50000   0.04760   0.50000   0.00000  Uiso   1.00
O815   O     0.43892   0.20487   0.50000   0.00000  Uiso   1.00
O816   O     0.40930   0.10870   0.59294   0.00000  Uiso   1.00
O817   O     0.62386   0.16895   0.37327   0.00000  Uiso   1.00
O818   O     0.59171   0.22735   0.40917   0.00000  Uiso   1.00
O819   O     0.59429   0.15371   0.60446   0.00000  Uiso   1.00
O820   O     0.63825   0.09466   0.61135   0.00000  Uiso   1.00
O821   O     0.36818   0.22421   0.38609   0.00000  Uiso   1.00
O822   O     0.40762   0.16169   0.39556   0.00000  Uiso   1.00
O823   O     0.54459   0.04540   0.57256   0.00000  Uiso   1.00
O824   O     0.45462   0.28572   0.42903   0.00000  Uiso   1.00
O825   O     0.44335   0.04858   0.44114   0.00000  Uiso   1.00
O826   O     0.56108   0.12846   0.50000   0.00000  Uiso   1.00
O827   O     0.56562   0.28947   0.54236   0.00000  Uiso   1.00
O828   O     0.56108   0.20487   0.50000   0.00000  Uiso   1.00
O829   O     0.43892   0.12846   0.50000   0.00000  Uiso   1.00
O830   O     0.50000   0.20488   0.42845   0.00000  Uiso   1.00
O831   O     0.50000   0.12845   0.57155   0.00000  Uiso   1.00
O832   O     0.50000   0.20488   0.57155   0.00000  Uiso   1.00
O833   O     0.50000   0.12845   0.42845   0.00000  Uiso   1.00
O834   O     0.37191   0.16368   0.62810   0.00000  Uiso   1.00
Zn835  Zn    0.50000   0.21771   0.50000   0.00000  Uiso   1.00
Zn836  Zn    0.50000   0.11563   0.50000   0.00000  Uiso   1.00
C837   C     0.75360   0.16648   0.50083   0.00000  Uiso   1.00
C838   C     0.68740   0.17980   0.45679   0.00000  Uiso   1.00
C839   C     0.95722   0.16759   0.50067   0.00000  Uiso   1.00
C840   C     0.70929   0.16601   0.50039   0.00000  Uiso   1.00
C841   C     0.85800   0.02357   0.53325   0.00000  Uiso   1.00
C842   C     0.80861   0.30922   0.46667   0.00000  Uiso   1.00
C843   C     0.80599   0.02423   0.46936   0.00000  Uiso   1.00
C844   C     0.86108   0.30917   0.52981   0.00000  Uiso   1.00
C845   C     0.71296   0.14262   0.59076   0.00000  Uiso   1.00
C846   C     0.95289   0.19167   0.41041   0.00000  Uiso   1.00
C847   C     0.95718   0.13385   0.58786   0.00000  Uiso   1.00
C848   C     0.91304   0.16690   0.50010   0.00000  Uiso   1.00
C849   C     0.71007   0.19066   0.41073   0.00000  Uiso   1.00
C850   C     0.85218   0.04104   0.61474   0.00000  Uiso   1.00
C851   C     0.87390   0.06054   0.66094   0.00000  Uiso   1.00
C852   C     0.80660   0.29618   0.38291   0.00000  Uiso   1.00
C853   C     0.78086   0.27573   0.34021   0.00000  Uiso   1.00
C854   C     0.73658   0.02791   0.44176   0.00000  Uiso   1.00
C855   C     0.70279   0.06244   0.43247   0.00000  Uiso   1.00
C856   C     0.90099   0.27315   0.59198   0.00000  Uiso   1.00
C857   C     0.93791   0.29508   0.61961   0.00000  Uiso   1.00
C858   C     0.83474   0.16684   0.40639   0.00000  Uiso   1.00
C859   C     0.83330   0.16657   0.59370   0.00000  Uiso   1.00
C860   C     0.83519   0.16700   0.35519   0.00000  Uiso   1.00
C861   C     0.83441   0.16668   0.64490   0.00000  Uiso   1.00
C862   C     0.68909   0.15235   0.54375   0.00000  Uiso   1.00
C863   C     0.97735   0.18107   0.45701   0.00000  Uiso   1.00
C864   C     0.97906   0.15192   0.54357   0.00000  Uiso   1.00
H865   H     0.75579   0.10488   0.62757   0.00000  Uiso   1.00
H866   H     0.83881   0.28274   0.38231   0.00000  Uiso   1.00
H867   H     0.80798   0.33282   0.37550   0.00000  Uiso   1.00
H868   H     0.79534   0.28327   0.63731   0.00000  Uiso   1.00
H869   H     0.77925   0.23905   0.34489   0.00000  Uiso   1.00
H870   H     0.74884   0.28944   0.33926   0.00000  Uiso   1.00
H871   H     0.73033   0.01079   0.47808   0.00000  Uiso   1.00
H872   H     0.73307   0.00364   0.41090   0.00000  Uiso   1.00
H873   H     0.70884   0.08196   0.39789   0.00000  Uiso   1.00
H874   H     0.67200   0.04536   0.42803   0.00000  Uiso   1.00
H875   H     0.70155   0.08484   0.46488   0.00000  Uiso   1.00
H876   H     0.90897   0.22973   0.37615   0.00000  Uiso   1.00
H877   H     0.90726   0.23679   0.59105   0.00000  Uiso   1.00
H878   H     0.87194   0.27643   0.61298   0.00000  Uiso   1.00
H879   H     0.93694   0.28738   0.66010   0.00000  Uiso   1.00
H880   H     0.96755   0.28233   0.60501   0.00000  Uiso   1.00
H881   H     0.93755   0.33190   0.61417   0.00000  Uiso   1.00
H882   H     0.95738   0.08788   0.64383   0.00000  Uiso   1.00
H883   H     0.75384   0.17154   0.36338   0.00000  Uiso   1.00
H884   H     0.84449   0.00589   0.62362   0.00000  Uiso   1.00
H885   H     0.82177   0.05782   0.60830   0.00000  Uiso   1.00
H886   H     0.88559   0.09470   0.65297   0.00000  Uiso   1.00
H887   H     0.85163   0.06236   0.35842   0.00000  Uiso   1.00
H888   H     0.90031   0.03915   0.34013   0.00000  Uiso   1.00
N889   N     0.83333   0.28573   0.50000   0.00000  Uiso   1.00
N890   N     0.83333   0.04760   0.50000   0.00000  Uiso   1.00
O891   O     0.77226   0.20487   0.50000   0.00000  Uiso   1.00
O892   O     0.74264   0.10870   0.59294   0.00000  Uiso   1.00
O893   O     0.95719   0.16895   0.37327   0.00000  Uiso   1.00
O894   O     0.92505   0.22735   0.40917   0.00000  Uiso   1.00
O895   O     0.92762   0.15371   0.60446   0.00000  Uiso   1.00
O896   O     0.97159   0.09466   0.61135   0.00000  Uiso   1.00
O897   O     0.70151   0.22421   0.38609   0.00000  Uiso   1.00
O898   O     0.74095   0.16169   0.39556   0.00000  Uiso   1.00
O899   O     0.87792   0.04540   0.57256   0.00000  Uiso   1.00
O900   O     0.78795   0.28572   0.42903   0.00000  Uiso   1.00
O901   O     0.77668   0.04858   0.44114   0.00000  Uiso   1.00
O902   O     0.89441   0.12846   0.50000   0.00000  Uiso   1.00
O903   O     0.89895   0.28947   0.54236   0.00000  Uiso   1.00
O904   O     0.89441   0.20487   0.50000   0.00000  Uiso   1.00
O905   O     0.77226   0.12846   0.50000   0.00000  Uiso   1.00
O906   O     0.83334   0.20488   0.42845   0.00000  Uiso   1.00
O907   O     0.83333   0.12845   0.57155   0.00000  Uiso   1.00
O908   O     0.83333   0.20488   0.57155   0.00000  Uiso   1.00
O909   O     0.83334   0.12845   0.42845   0.00000  Uiso   1.00
O910   O     0.70524   0.16368   0.62810   0.00000  Uiso   1.00
Zn911  Zn    0.83333   0.21771   0.50000   0.00000  Uiso   1.00
Zn912  Zn    0.83333   0.11563   0.50000   0.00000  Uiso   1.00
C913   C     0.08693   0.49981   0.50083   0.00000  Uiso   1.00
C914   C     0.02073   0.51314   0.45679   0.00000  Uiso   1.00
C915   C     0.29056   0.50092   0.50067   0.00000  Uiso   1.00
C916   C     0.04262   0.49934   0.50039   0.00000  Uiso   1.00
C917   C     0.19134   0.35690   0.53325   0.00000  Uiso   1.00
C918   C     0.14195   0.64256   0.46667   0.00000  Uiso   1.00
C919   C     0.13932   0.35757   0.46936   0.00000  Uiso   1.00
C920   C     0.19441   0.64250   0.52981   0.00000  Uiso   1.00
C921   C     0.04630   0.47596   0.59076   0.00000  Uiso   1.00
C922   C     0.28622   0.52501   0.41041   0.00000  Uiso   1.00
C923   C     0.29051   0.46719   0.58786   0.00000  Uiso   1.00
C924   C     0.24638   0.50023   0.50010   0.00000  Uiso   1.00
C925   C     0.04340   0.52400   0.41073   0.00000  Uiso   1.00
C926   C     0.18551   0.37437   0.61474   0.00000  Uiso   1.00
C927   C     0.20723   0.39388   0.66094   0.00000  Uiso   1.00
C928   C     0.13993   0.62951   0.38291   0.00000  Uiso   1.00
C929   C     0.11420   0.60906   0.34021   0.00000  Uiso   1.00
C930   C     0.06991   0.36124   0.44176   0.00000  Uiso   1.00
C931   C     0.03612   0.39578   0.43247   0.00000  Uiso   1.00
C932   C     0.23433   0.60649   0.59198   0.00000  Uiso   1.00
C933   C     0.27125   0.62842   0.61961   0.00000  Uiso   1.00
C934   C     0.16807   0.50017   0.40639   0.00000  Uiso   1.00
C935   C     0.16663   0.49990   0.59370   0.00000  Uiso   1.00
C936   C     0.16852   0.50033   0.35519   0.00000  Uiso   1.00
C937   C     0.16774   0.50002   0.64490   0.00000  Uiso   1.00
C938   C     0.02243   0.48568   0.54375   0.00000  Uiso   1.00
C939   C     0.31068   0.51441   0.45701   0.00000  Uiso   1.00
C940   C     0.31240   0.48526   0.54357   0.00000  Uiso   1.00
H941   H     0.08912   0.43821   0.62757   0.00000  Uiso   1.00
H942   H     0.17215   0.61607   0.38231   0.00000  Uiso   1.00
H943   H     0.14131   0.66616   0.37550   0.00000  Uiso   1.00
H944   H     0.12867   0.61661   0.63731   0.00000  Uiso   1.00
H945   H     0.11258   0.57239   0.34489   0.00000  Uiso   1.00
H946   H     0.08218   0.62277   0.33926   0.00000  Uiso   1.00
H947   H     0.06366   0.34413   0.47808   0.00000  Uiso   1.00
H948   H     0.06640   0.33697   0.41090   0.00000  Uiso   1.00
H949   H     0.04217   0.41530   0.39789   0.00000  Uiso   1.00
H950   H     0.00534   0.37869   0.42803   0.00000  Uiso   1.00
H951   H     0.03488   0.41817   0.46488   0.00000  Uiso   1.00
H952   H     0.24231   0.56307   0.37615   0.00000  Uiso   1.00
H953   H     0.24060   0.57012   0.59105   0.00000  Uiso   1.00
H954   H     0.20527   0.60976   0.61298   0.00000  Uiso   1.00
H955   H     0.27027   0.62071   0.66010   0.00000  Uiso   1.00
H956   H     0.30088   0.61566   0.60501   0.00000  Uiso   1.00
H957   H     0.27088   0.66524   0.61417   0.00000  Uiso   1.00
H958   H     0.29071   0.42121   0.64383   0.00000  Uiso   1.00
H959   H     0.08717   0.50488   0.36338   0.00000  Uiso   1.00
H960   H     0.17782   0.33922   0.62362   0.00000  Uiso   1.00
H961   H     0.15510   0.39116   0.60830   0.00000  Uiso   1.00
H962   H     0.21893   0.42804   0.65297   0.00000  Uiso   1.00
H963   H     0.18496   0.39570   0.35842   0.00000  Uiso   1.00
H964   H     0.23365   0.37249   0.34013   0.00000  Uiso   1.00
N965   N     0.16667   0.61907   0.50000   0.00000  Uiso   1.00
N966   N     0.16667   0.38093   0.50000   0.00000  Uiso   1.00
O967   O     0.10559   0.53821   0.50000   0.00000  Uiso   1.00
O968   O     0.07597   0.44203   0.59294   0.00000  Uiso   1.00
O969   O     0.29053   0.50229   0.37327   0.00000  Uiso   1.00
O970   O     0.25838   0.56069   0.40917   0.00000  Uiso   1.00
O971   O     0.26096   0.48705   0.60446   0.00000  Uiso   1.00
O972   O     0.30492   0.42799   0.61135   0.00000  Uiso   1.00
O973   O     0.03484   0.55754   0.38609   0.00000  Uiso   1.00
O974   O     0.07429   0.49502   0.39556   0.00000  Uiso   1.00
O975   O     0.21125   0.37873   0.57256   0.00000  Uiso   1.00
O976   O     0.12128   0.61905   0.42903   0.00000  Uiso   1.00
O977   O     0.11001   0.38191   0.44114   0.00000  Uiso   1.00
O978   O     0.22774   0.46179   0.50000   0.00000  Uiso   1.00
O979   O     0.23228   0.62281   0.54236   0.00000  Uiso   1.00
O980   O     0.22774   0.53821   0.50000   0.00000  Uiso   1.00
O981   O     0.10559   0.46179   0.50000   0.00000  Uiso   1.00
O982   O     0.16667   0.53821   0.42845   0.00000  Uiso   1.00
O983   O     0.16666   0.46179   0.57155   0.00000  Uiso   1.00
O984   O     0.16666   0.53821   0.57155   0.00000  Uiso   1.00
O985   O     0.16667   0.46179   0.42845   0.00000  Uiso   1.00
O986   O     0.03857   0.49701   0.62810   0.00000  Uiso   1.00
Zn987  Zn    0.16667   0.55104   0.50000   0.00000  Uiso   1.00
Zn988  Zn    0.16667   0.44896   0.50000   0.00000  Uiso   1.00
C989   C     0.42027   0.49981   0.50083   0.00000  Uiso   1.00
C990   C     0.35407   0.51314   0.45679   0.00000  Uiso   1.00
C991   C     0.62389   0.50092   0.50067   0.00000  Uiso   1.00
C992   C     0.37595   0.49934   0.50039   0.00000  Uiso   1.00
C993   C     0.52467   0.35690   0.53325   0.00000  Uiso   1.00
C994   C     0.47528   0.64256   0.46667   0.00000  Uiso   1.00
C995   C     0.47266   0.35757   0.46936   0.00000  Uiso   1.00
C996   C     0.52775   0.64250   0.52981   0.00000  Uiso   1.00
C997   C     0.37963   0.47596   0.59076   0.00000  Uiso   1.00
C998   C     0.61955   0.52501   0.41041   0.00000  Uiso   1.00
C999   C     0.62384   0.46719   0.58786   0.00000  Uiso   1.00
C1000  C     0.57971   0.50023   0.50010   0.00000  Uiso   1.00
C1001  C     0.37673   0.52400   0.41073   0.00000  Uiso   1.00
C1002  C     0.51884   0.37437   0.61474   0.00000  Uiso   1.00
C1003  C     0.54056   0.39388   0.66094   0.00000  Uiso   1.00
C1004  C     0.47327   0.62951   0.38291   0.00000  Uiso   1.00
C1005  C     0.44753   0.60906   0.34021   0.00000  Uiso   1.00
C1006  C     0.40325   0.36124   0.44176   0.00000  Uiso   1.00
C1007  C     0.36946   0.39578   0.43247   0.00000  Uiso   1.00
C1008  C     0.56766   0.60649   0.59198   0.00000  Uiso   1.00
C1009  C     0.60458   0.62842   0.61961   0.00000  Uiso   1.00
C1010  C     0.50141   0.50017   0.40639   0.00000  Uiso   1.00
C1011  C     0.49997   0.49990   0.59370   0.00000  Uiso   1.00
C1012  C     0.50185   0.50033   0.35519   0.00000  Uiso   1.00
C1013  C     0.50108   0.50002   0.64490   0.00000  Uiso   1.00
C1014  C     0.35576   0.48568   0.54375   0.00000  Uiso   1.00
C1015  C     0.64401   0.51441   0.45701   0.00000  Uiso   1.00
C1016  C     0.64573   0.48526   0.54357   0.00000  Uiso   1.00
H1017  H     0.42246   0.43821   0.62757   0.00000  Uiso   1.00
H1018  H     0.50548   0.61607   0.38231   0.00000  Uiso   1.00
H1019  H     0.47465   0.66616   0.37550   0.00000  Uiso   1.00
H1020  H     0.46201   0.61661   0.63731   0.00000  Uiso   1.00
H1021  H     0.44592   0.57239   0.34489   0.00000  Uiso   1.00
H1022  H     0.41551   0.62277   0.33926   0.00000  Uiso   1.00
H1023  H     0.39700   0.34413   0.47808   0.00000  Uiso   1.00
H1024  H     0.39974   0.33697   0.41090   0.00000  Uiso   1.00
H1025  H     0.37551   0.41530   0.39789   0.00000  Uiso   1.00
H1026  H     0.33867   0.37869   0.42803   0.00000  Uiso   1.00
H1027  H     0.36822   0.41817   0.46488   0.00000  Uiso   1.00
H1028  H     0.57564   0.56307   0.37615   0.00000  Uiso   1.00
H1029  H     0.57393   0.57012   0.59105   0.00000  Uiso   1.00
H1030  H     0.53861   0.60976   0.61298   0.00000  Uiso   1.00
H1031  H     0.60360   0.62071   0.66010   0.00000  Uiso   1.00
H1032  H     0.63422   0.61566   0.60501   0.00000  Uiso   1.00
H1033  H     0.60421   0.66524   0.61417   0.00000  Uiso   1.00
H1034  H     0.62405   0.42121   0.64383   0.00000  Uiso   1.00
H1035  H     0.42050   0.50488   0.36338   0.00000  Uiso   1.00
H1036  H     0.51116   0.33922   0.62362   0.00000  Uiso   1.00
H1037  H     0.48843   0.39116   0.60830   0.00000  Uiso   1.00
H1038  H     0.55226   0.42804   0.65297   0.00000  Uiso   1.00
H1039  H     0.51830   0.39570   0.35842   0.00000  Uiso   1.00
H1040  H     0.56698   0.37249   0.34013   0.00000  Uiso   1.00
N1041  N     0.50000   0.61907   0.50000   0.00000  Uiso   1.00
N1042  N     0.50000   0.38093   0.50000   0.00000  Uiso   1.00
O1043  O     0.43892   0.53821   0.50000   0.00000  Uiso   1.00
O1044  O     0.40930   0.44203   0.59294   0.00000  Uiso   1.00
O1045  O     0.62386   0.50229   0.37327   0.00000  Uiso   1.00
O1046  O     0.59171   0.56069   0.40917   0.00000  Uiso   1.00
O1047  O     0.59429   0.48705   0.60446   0.00000  Uiso   1.00
O1048  O     0.63825   0.42799   0.61135   0.00000  Uiso   1.00
O1049  O     0.36818   0.55754   0.38609   0.00000  Uiso   1.00
O1050  O     0.40762   0.49502   0.39556   0.00000  Uiso   1.00
O1051  O     0.54459   0.37873   0.57256   0.00000  Uiso   1.00
O1052  O     0.45462   0.61905   0.42903   0.00000  Uiso   1.00
O1053  O     0.44335   0.38191   0.44114   0.00000  Uiso   1.00
O1054  O     0.56108   0.46179   0.50000   0.00000  Uiso   1.00
O1055  O     0.56562   0.62281   0.54236   0.00000  Uiso   1.00
O1056  O     0.56108   0.53821   0.50000   0.00000  Uiso   1.00
O1057  O     0.43892   0.46179   0.50000   0.00000  Uiso   1.00
O1058  O     0.50000   0.53821   0.42845   0.00000  Uiso   1.00
O1059  O     0.50000   0.46179   0.57155   0.00000  Uiso   1.00
O1060  O     0.50000   0.53821   0.57155   0.00000  Uiso   1.00
O1061  O     0.50000   0.46179   0.42845   0.00000  Uiso   1.00
O1062  O     0.37191   0.49701   0.62810   0.00000  Uiso   1.00
Zn1063 Zn    0.50000   0.55104   0.50000   0.00000  Uiso   1.00
Zn1064 Zn    0.50000   0.44896   0.50000   0.00000  Uiso   1.00
C1065  C     0.75360   0.49981   0.50083   0.00000  Uiso   1.00
C1066  C     0.68740   0.51314   0.45679   0.00000  Uiso   1.00
C1067  C     0.95722   0.50092   0.50067   0.00000  Uiso   1.00
C1068  C     0.70929   0.49934   0.50039   0.00000  Uiso   1.00
C1069  C     0.85800   0.35690   0.53325   0.00000  Uiso   1.00
C1070  C     0.80861   0.64256   0.46667   0.00000  Uiso   1.00
C1071  C     0.80599   0.35757   0.46936   0.00000  Uiso   1.00
C1072  C     0.86108   0.64250   0.52981   0.00000  Uiso   1.00
C1073  C     0.71296   0.47596   0.59076   0.00000  Uiso   1.00
C1074  C     0.95289   0.52501   0.41041   0.00000  Uiso   1.00
C1075  C     0.95718   0.46719   0.58786   0.00000  Uiso   1.00
C1076  C     0.91304   0.50023   0.50010   0.00000  Uiso   1.00
C1077  C     0.71007   0.52400   0.41073   0.00000  Uiso   1.00
C1078  C     0.85218   0.37437   0.61474   0.00000  Uiso   1.00
C1079  C     0.87390   0.39388   0.66094   0.00000  Uiso   1.00
C1080  C     0.80660   0.62951   0.38291   0.00000  Uiso   1.00
C1081  C     0.78086   0.60906   0.34021   0.00000  Uiso   1.00
C1082  C     0.73658   0.36124   0.44176   0.00000  Uiso   1.00
C1083  C     0.70279   0.39578   0.43247   0.00000  Uiso   1.00
C1084  C     0.90099   0.60649   0.59198   0.00000  Uiso   1.00
C1085  C     0.93791   0.62842   0.61961   0.00000  Uiso   1.00
C1086  C     0.83474   0.50017   0.40639   0.00000  Uiso   1.00
C1087  C     0.83330   0.49990   0.59370   0.00000  Uiso   1.00
C1088  C     0.83519   0.50033   0.35519   0.00000  Uiso   1.00
C1089  C     0.83441   0.50002   0.64490   0.00000  Uiso   1.00
C1090  C     0.68909   0.48568   0.54375   0.00000  Uiso   1.00
C1091  C     0.97735   0.51441   0.45701   0.00000  Uiso   1.00
C1092  C     0.97906   0.48526   0.54357   0.00000  Uiso   1.00
H1093  H     0.75579   0.43821   0.62757   0.00000  Uiso   1.00
H1094  H     0.83881   0.61607   0.38231   0.00000  Uiso   1.00
H1095  H     0.80798   0.66616   0.37550   0.00000  Uiso   1.00
H1096  H     0.79534   0.61661   0.63731   0.00000  Uiso   1.00
H1097  H     0.77925   0.57239   0.34489   0.00000  Uiso   1.00
H1098  H     0.74884   0.62277   0.33926   0.00000  Uiso   1.00
H1099  H     0.73033   0.34413   0.47808   0.00000  Uiso   1.00
H1100  H     0.73307   0.33697   0.41090   0.00000  Uiso   1.00
H1101  H     0.70884   0.41530   0.39789   0.00000  Uiso   1.00
H1102  H     0.67200   0.37869   0.42803   0.00000  Uiso   1.00
H1103  H     0.70155   0.41817   0.46488   0.00000  Uiso   1.00
H1104  H     0.90897   0.56307   0.37615   0.00000  Uiso   1.00
H1105  H     0.90726   0.57012   0.59105   0.00000  Uiso   1.00
H1106  H     0.87194   0.60976   0.61298   0.00000  Uiso   1.00
H1107  H     0.93694   0.62071   0.66010   0.00000  Uiso   1.00
H1108  H     0.96755   0.61566   0.60501   0.00000  Uiso   1.00
H1109  H     0.93755   0.66524   0.61417   0.00000  Uiso   1.00
H1110  H     0.95738   0.42121   0.64383   0.00000  Uiso   1.00
H1111  H     0.75384   0.50488   0.36338   0.00000  Uiso   1.00
H1112  H     0.84449   0.33922   0.62362   0.00000  Uiso   1.00
H1113  H     0.82177   0.39116   0.60830   0.00000  Uiso   1.00
H1114  H     0.88559   0.42804   0.65297   0.00000  Uiso   1.00
H1115  H     0.85163   0.39570   0.35842   0.00000  Uiso   1.00
H1116  H     0.90031   0.37249   0.34013   0.00000  Uiso   1.00
N1117  N     0.83333   0.61907   0.50000   0.00000  Uiso   1.00
N1118  N     0.83333   0.38093   0.50000   0.00000  Uiso   1.00
O1119  O     0.77226   0.53821   0.50000   0.00000  Uiso   1.00
O1120  O     0.74264   0.44203   0.59294   0.00000  Uiso   1.00
O1121  O     0.95719   0.50229   0.37327   0.00000  Uiso   1.00
O1122  O     0.92505   0.56069   0.40917   0.00000  Uiso   1.00
O1123  O     0.92762   0.48705   0.60446   0.00000  Uiso   1.00
O1124  O     0.97159   0.42799   0.61135   0.00000  Uiso   1.00
O1125  O     0.70151   0.55754   0.38609   0.00000  Uiso   1.00
O1126  O     0.74095   0.49502   0.39556   0.00000  Uiso   1.00
O1127  O     0.87792   0.37873   0.57256   0.00000  Uiso   1.00
O1128  O     0.78795   0.61905   0.42903   0.00000  Uiso   1.00
O1129  O     0.77668   0.38191   0.44114   0.00000  Uiso   1.00
O1130  O     0.89441   0.46179   0.50000   0.00000  Uiso   1.00
O1131  O     0.89895   0.62281   0.54236   0.00000  Uiso   1.00
O1132  O     0.89441   0.53821   0.50000   0.00000  Uiso   1.00
O1133  O     0.77226   0.46179   0.50000   0.00000  Uiso   1.00
O1134  O     0.83334   0.53821   0.42845   0.00000  Uiso   1.00
O1135  O     0.83333   0.46179   0.57155   0.00000  Uiso   1.00
O1136  O     0.83333   0.53821   0.57155   0.00000  Uiso   1.00
O1137  O     0.83334   0.46179   0.42845   0.00000  Uiso   1.00
O1138  O     0.70524   0.49701   0.62810   0.00000  Uiso   1.00
Zn1139 Zn    0.83333   0.55104   0.50000   0.00000  Uiso   1.00
Zn1140 Zn    0.83333   0.44896   0.50000   0.00000  Uiso   1.00
C1141  C     0.08693   0.83315   0.50083   0.00000  Uiso   1.00
C1142  C     0.02073   0.84647   0.45679   0.00000  Uiso   1.00
C1143  C     0.29056   0.83425   0.50067   0.00000  Uiso   1.00
C1144  C     0.04262   0.83267   0.50039   0.00000  Uiso   1.00
C1145  C     0.19134   0.69024   0.53325   0.00000  Uiso   1.00
C1146  C     0.14195   0.97589   0.46667   0.00000  Uiso   1.00
C1147  C     0.13932   0.69090   0.46936   0.00000  Uiso   1.00
C1148  C     0.19441   0.97584   0.52981   0.00000  Uiso   1.00
C1149  C     0.04630   0.80929   0.59076   0.00000  Uiso   1.00
C1150  C     0.28622   0.85834   0.41041   0.00000  Uiso   1.00
C1151  C     0.29051   0.80052   0.58786   0.00000  Uiso   1.00
C1152  C     0.24638   0.83356   0.50010   0.00000  Uiso   1.00
C1153  C     0.04340   0.85733   0.41073   0.00000  Uiso   1.00
C1154  C     0.18551   0.70771   0.61474   0.00000  Uiso   1.00
C1155  C     0.20723   0.72721   0.66094   0.00000  Uiso   1.00
C1156  C     0.13993   0.96285   0.38291   0.00000  Uiso   1.00
C1157  C     0.11420   0.94239   0.34021   0.00000  Uiso   1.00
C1158  C     0.06991   0.69458   0.44176   0.00000  Uiso   1.00
C1159  C     0.03612   0.72911   0.43247   0.00000  Uiso   1.00
C1160  C     0.23433   0.93982   0.59198   0.00000  Uiso   1.00
C1161  C     0.27125   0.96175   0.61961   0.00000  Uiso   1.00
C1162  C     0.16807   0.83351   0.40639   0.00000  Uiso   1.00
C1163  C     0.16663   0.83323   0.59370   0.00000  Uiso   1.00
C1164  C     0.16852   0.83366   0.35519   0.00000  Uiso   1.00
C1165  C     0.16774   0.83335   0.64490   0.00000  Uiso   1.00
C1166  C     0.02243   0.81901   0.54375   0.00000  Uiso   1.00
C1167  C     0.31068   0.84774   0.45701   0.00000  Uiso   1.00
C1168  C     0.31240   0.81859   0.54357   0.00000  Uiso   1.00
H1169  H     0.08912   0.77155   0.62757   0.00000  Uiso   1.00
H1170  H     0.17215   0.94940   0.38231   0.00000  Uiso   1.00
H1171  H     0.14131   0.99949   0.37550   0.00000  Uiso   1.00
H1172  H     0.12867   0.94994   0.63731   0.00000  Uiso   1.00
H1173  H     0.11258   0.90572   0.34489   0.00000  Uiso   1.00
H1174  H     0.08218   0.95611   0.33926   0.00000  Uiso   1.00
H1175  H     0.06366   0.67746   0.47808   0.00000  Uiso   1.00
H1176  H     0.06640   0.67031   0.41090   0.00000  Uiso   1.00
H1177  H     0.04217   0.74863   0.39789   0.00000  Uiso   1.00
H1178  H     0.00534   0.71203   0.42803   0.00000  Uiso   1.00
H1179  H     0.03488   0.75151   0.46488   0.00000  Uiso   1.00
H1180  H     0.24231   0.89640   0.37615   0.00000  Uiso   1.00
H1181  H     0.24060   0.90345   0.59105   0.00000  Uiso   1.00
H1182  H     0.20527   0.94309   0.61298   0.00000  Uiso   1.00
H1183  H     0.27027   0.95404   0.66010   0.00000  Uiso   1.00
H1184  H     0.30088   0.94900   0.60501   0.00000  Uiso   1.00
H1185  H     0.27088   0.99857   0.61417   0.00000  Uiso   1.00
H1186  H     0.29071   0.75455   0.64383   0.00000  Uiso   1.00
H1187  H     0.08717   0.83821   0.36338   0.00000  Uiso   1.00
H1188  H     0.17782   0.67255   0.62362   0.00000  Uiso   1.00
H1189  H     0.15510   0.72449   0.60830   0.00000  Uiso   1.00
H1190  H     0.21893   0.76137   0.65297   0.00000  Uiso   1.00
H1191  H     0.18496   0.72903   0.35842   0.00000  Uiso   1.00
H1192  H     0.23365   0.70582   0.34013   0.00000  Uiso   1.00
N1193  N     0.16667   0.95240   0.50000   0.00000  Uiso   1.00
N1194  N     0.16667   0.71427   0.50000   0.00000  Uiso   1.00
O1195  O     0.10559   0.87154   0.50000   0.00000  Uiso   1.00
O1196  O     0.07597   0.77537   0.59294   0.00000  Uiso   1.00
O1197  O     0.29053   0.83562   0.37327   0.00000  Uiso   1.00
O1198  O     0.25838   0.89402   0.40917   0.00000  Uiso   1.00
O1199  O     0.26096   0.82038   0.60446   0.00000  Uiso   1.00
O1200  O     0.30492   0.76132   0.61135   0.00000  Uiso   1.00
O1201  O     0.03484   0.89087   0.38609   0.00000  Uiso   1.00
O1202  O     0.07429   0.82835   0.39556   0.00000  Uiso   1.00
O1203  O     0.21125   0.71207   0.57256   0.00000  Uiso   1.00
O1204  O     0.12128   0.95239   0.42903   0.00000  Uiso   1.00
O1205  O     0.11001   0.71525   0.44114   0.00000  Uiso   1.00
O1206  O     0.22774   0.79513   0.50000   0.00000  Uiso   1.00
O1207  O     0.23228   0.95614   0.54236   0.00000  Uiso   1.00
O1208  O     0.22774   0.87154   0.50000   0.00000  Uiso   1.00
O1209  O     0.10559   0.79513   0.50000   0.00000  Uiso   1.00
O1210  O     0.16667   0.87155   0.42845   0.00000  Uiso   1.00
O1211  O     0.16666   0.79512   0.57155   0.00000  Uiso   1.00
O1212  O     0.16666   0.87155   0.57155   0.00000  Uiso   1.00
O1213  O     0.16667   0.79512   0.42845   0.00000  Uiso   1.00
O1214  O     0.03857   0.83034   0.62810   0.00000  Uiso   1.00
Zn1215 Zn    0.16667   0.88437   0.50000   0.00000  Uiso   1.00
Zn1216 Zn    0.16667   0.78229   0.50000   0.00000  Uiso   1.00
C1217  C     0.42027   0.83315   0.50083   0.00000  Uiso   1.00
C1218  C     0.35407   0.84647   0.45679   0.00000  Uiso   1.00
C1219  C     0.62389   0.83425   0.50067   0.00000  Uiso   1.00
C1220  C     0.37595   0.83267   0.50039   0.00000  Uiso   1.00
C1221  C     0.52467   0.69024   0.53325   0.00000  Uiso   1.00
C1222  C     0.47528   0.97589   0.46667   0.00000  Uiso   1.00
C1223  C     0.47266   0.69090   0.46936   0.00000  Uiso   1.00
C1224  C     0.52775   0.97584   0.52981   0.00000  Uiso   1.00
C1225  C     0.37963   0.80929   0.59076   0.00000  Uiso   1.00
C1226  C     0.61955   0.85834   0.41041   0.00000  Uiso   1.00
C1227  C     0.62384   0.80052   0.58786   0.00000  Uiso   1.00
C1228  C     0.57971   0.83356   0.50010   0.00000  Uiso   1.00
C1229  C     0.37673   0.85733   0.41073   0.00000  Uiso   1.00
C1230  C     0.51884   0.70771   0.61474   0.00000  Uiso   1.00
C1231  C     0.54056   0.72721   0.66094   0.00000  Uiso   1.00
C1232  C     0.47327   0.96285   0.38291   0.00000  Uiso   1.00
C1233  C     0.44753   0.94239   0.34021   0.00000  Uiso   1.00
C1234  C     0.40325   0.69458   0.44176   0.00000  Uiso   1.00
C1235  C     0.36946   0.72911   0.43247   0.00000  Uiso   1.00
C1236  C     0.56766   0.93982   0.59198   0.00000  Uiso   1.00
C1237  C     0.60458   0.96175   0.61961   0.00000  Uiso   1.00
C1238  C     0.50141   0.83351   0.40639   0.00000  Uiso   1.00
C1239  C     0.49997   0.83323   0.59370   0.00000  Uiso   1.00
C1240  C     0.50185   0.83366   0.35519   0.00000  Uiso   1.00
C1241  C     0.50108   0.83335   0.64490   0.00000  Uiso   1.00
C1242  C     0.35576   0.81901   0.54375   0.00000  Uiso   1.00
C1243  C     0.64401   0.84774   0.45701   0.00000  Uiso   1.00
C1244  C     0.64573   0.81859   0.54357   0.00000  Uiso   1.00
H1245  H     0.42246   0.77155   0.62757   0.00000  Uiso   1.00
H1246  H     0.50548   0.94940   0.38231   0.00000  Uiso   1.00
H1247  H     0.47465   0.99949   0.37550   0.00000  Uiso   1.00
H1248  H     0.46201   0.94994   0.63731   0.00000  Uiso   1.00
H1249  H     0.44592   0.90572   0.34489   0.00000  Uiso   1.00
H1250  H     0.41551   0.95611   0.33926   0.00000  Uiso   1.00
H1251  H     0.39700   0.67746   0.47808   0.00000  Uiso   1.00
H1252  H     0.39974   0.67031   0.41090   0.00000  Uiso   1.00
H1253  H     0.37551   0.74863   0.39789   0.00000  Uiso   1.00
H1254  H     0.33867   0.71203   0.42803   0.00000  Uiso   1.00
H1255  H     0.36822   0.75151   0.46488   0.00000  Uiso   1.00
H1256  H     0.57564   0.89640   0.37615   0.00000  Uiso   1.00
H1257  H     0.57393   0.90345   0.59105   0.00000  Uiso   1.00
H1258  H     0.53861   0.94309   0.61298   0.00000  Uiso   1.00
H1259  H     0.60360   0.95404   0.66010   0.00000  Uiso   1.00
H1260  H     0.63422   0.94900   0.60501   0.00000  Uiso   1.00
H1261  H     0.60421   0.99857   0.61417   0.00000  Uiso   1.00
H1262  H     0.62405   0.75455   0.64383   0.00000  Uiso   1.00
H1263  H     0.42050   0.83821   0.36338   0.00000  Uiso   1.00
H1264  H     0.51116   0.67255   0.62362   0.00000  Uiso   1.00
H1265  H     0.48843   0.72449   0.60830   0.00000  Uiso   1.00
H1266  H     0.55226   0.76137   0.65297   0.00000  Uiso   1.00
H1267  H     0.51830   0.72903   0.35842   0.00000  Uiso   1.00
H1268  H     0.56698   0.70582   0.34013   0.00000  Uiso   1.00
N1269  N     0.50000   0.95240   0.50000   0.00000  Uiso   1.00
N1270  N     0.50000   0.71427   0.50000   0.00000  Uiso   1.00
O1271  O     0.43892   0.87154   0.50000   0.00000  Uiso   1.00
O1272  O     0.40930   0.77537   0.59294   0.00000  Uiso   1.00
O1273  O     0.62386   0.83562   0.37327   0.00000  Uiso   1.00
O1274  O     0.59171   0.89402   0.40917   0.00000  Uiso   1.00
O1275  O     0.59429   0.82038   0.60446   0.00000  Uiso   1.00
O1276  O     0.63825   0.76132   0.61135   0.00000  Uiso   1.00
O1277  O     0.36818   0.89087   0.38609   0.00000  Uiso   1.00
O1278  O     0.40762   0.82835   0.39556   0.00000  Uiso   1.00
O1279  O     0.54459   0.71207   0.57256   0.00000  Uiso   1.00
O1280  O     0.45462   0.95239   0.42903   0.00000  Uiso   1.00
O1281  O     0.44335   0.71525   0.44114   0.00000  Uiso   1.00
O1282  O     0.56108   0.79513   0.50000   0.00000  Uiso   1.00
O1283  O     0.56562   0.95614   0.54236   0.00000  Uiso   1.00
O1284  O     0.56108   0.87154   0.50000   0.00000  Uiso   1.00
O1285  O     0.43892   0.79513   0.50000   0.00000  Uiso   1.00
O1286  O     0.50000   0.87155   0.42845   0.00000  Uiso   1.00
O1287  O     0.50000   0.79512   0.57155   0.00000  Uiso   1.00
O1288  O     0.50000   0.87155   0.57155   0.00000  Uiso   1.00
O1289  O     0.50000   0.79512   0.42845   0.00000  Uiso   1.00
O1290  O     0.37191   0.83034   0.62810   0.00000  Uiso   1.00
Zn1291 Zn    0.50000   0.88437   0.50000   0.00000  Uiso   1.00
Zn1292 Zn    0.50000   0.78229   0.50000   0.00000  Uiso   1.00
C1293  C     0.75360   0.83315   0.50083   0.00000  Uiso   1.00
C1294  C     0.68740   0.84647   0.45679   0.00000  Uiso   1.00
C1295  C     0.95722   0.83425   0.50067   0.00000  Uiso   1.00
C1296  C     0.70929   0.83267   0.50039   0.00000  Uiso   1.00
C1297  C     0.85800   0.69024   0.53325   0.00000  Uiso   1.00
C1298  C     0.80861   0.97589   0.46667   0.00000  Uiso   1.00
C1299  C     0.80599   0.69090   0.46936   0.00000  Uiso   1.00
C1300  C     0.86108   0.97584   0.52981   0.00000  Uiso   1.00
C1301  C     0.71296   0.80929   0.59076   0.00000  Uiso   1.00
C1302  C     0.95289   0.85834   0.41041   0.00000  Uiso   1.00
C1303  C     0.95718   0.80052   0.58786   0.00000  Uiso   1.00
C1304  C     0.91304   0.83356   0.50010   0.00000  Uiso   1.00
C1305  C     0.71007   0.85733   0.41073   0.00000  Uiso   1.00
C1306  C     0.85218   0.70771   0.61474   0.00000  Uiso   1.00
C1307  C     0.87390   0.72721   0.66094   0.00000  Uiso   1.00
C1308  C     0.80660   0.96285   0.38291   0.00000  Uiso   1.00
C1309  C     0.78086   0.94239   0.34021   0.00000  Uiso   1.00
C1310  C     0.73658   0.69458   0.44176   0.00000  Uiso   1.00
C1311  C     0.70279   0.72911   0.43247   0.00000  Uiso   1.00
C1312  C     0.90099   0.93982   0.59198   0.00000  Uiso   1.00
C1313  C     0.93791   0.96175   0.61961   0.00000  Uiso   1.00
C1314  C     0.83474   0.83351   0.40639   0.00000  Uiso   1.00
C1315  C     0.83330   0.83323   0.59370   0.00000  Uiso   1.00
C1316  C     0.83519   0.83366   0.35519   0.00000  Uiso   1.00
C1317  C     0.83441   0.83335   0.64490   0.00000  Uiso   1.00
C1318  C     0.68909   0.81901   0.54375   0.00000  Uiso   1.00
C1319  C     0.97735   0.84774   0.45701   0.00000  Uiso   1.00
C1320  C     0.97906   0.81859   0.54357   0.00000  Uiso   1.00
H1321  H     0.75579   0.77155   0.62757   0.00000  Uiso   1.00
H1322  H     0.83881   0.94940   0.38231   0.00000  Uiso   1.00
H1323  H     0.80798   0.99949   0.37550   0.00000  Uiso   1.00
H1324  H     0.79534   0.94994   0.63731   0.00000  Uiso   1.00
H1325  H     0.77925   0.90572   0.34489   0.00000  Uiso   1.00
H1326  H     0.74884   0.95611   0.33926   0.00000  Uiso   1.00
H1327  H     0.73033   0.67746   0.47808   0.00000  Uiso   1.00
H1328  H     0.73307   0.67031   0.41090   0.00000  Uiso   1.00
H1329  H     0.70884   0.74863   0.39789   0.00000  Uiso   1.00
H1330  H     0.67200   0.71203   0.42803   0.00000  Uiso   1.00
H1331  H     0.70155   0.75151   0.46488   0.00000  Uiso   1.00
H1332  H     0.90897   0.89640   0.37615   0.00000  Uiso   1.00
H1333  H     0.90726   0.90345   0.59105   0.00000  Uiso   1.00
H1334  H     0.87194   0.94309   0.61298   0.00000  Uiso   1.00
H1335  H     0.93694   0.95404   0.66010   0.00000  Uiso   1.00
H1336  H     0.96755   0.94900   0.60501   0.00000  Uiso   1.00
H1337  H     0.93755   0.99857   0.61417   0.00000  Uiso   1.00
H1338  H     0.95738   0.75455   0.64383   0.00000  Uiso   1.00
H1339  H     0.75384   0.83821   0.36338   0.00000  Uiso   1.00
H1340  H     0.84449   0.67255   0.62362   0.00000  Uiso   1.00
H1341  H     0.82177   0.72449   0.60830   0.00000  Uiso   1.00
H1342  H     0.88559   0.76137   0.65297   0.00000  Uiso   1.00
H1343  H     0.85163   0.72903   0.35842   0.00000  Uiso   1.00
H1344  H     0.90031   0.70582   0.34013   0.00000  Uiso   1.00
N1345  N     0.83333   0.95240   0.50000   0.00000  Uiso   1.00
N1346  N     0.83333   0.71427   0.50000   0.00000  Uiso   1.00
O1347  O     0.77226   0.87154   0.50000   0.00000  Uiso   1.00
O1348  O     0.74264   0.77537   0.59294   0.00000  Uiso   1.00
O1349  O     0.95719   0.83562   0.37327   0.00000  Uiso   1.00
O1350  O     0.92505   0.89402   0.40917   0.00000  Uiso   1.00
O1351  O     0.92762   0.82038   0.60446   0.00000  Uiso   1.00
O1352  O     0.97159   0.76132   0.61135   0.00000  Uiso   1.00
O1353  O     0.70151   0.89087   0.38609   0.00000  Uiso   1.00
O1354  O     0.74095   0.82835   0.39556   0.00000  Uiso   1.00
O1355  O     0.87792   0.71207   0.57256   0.00000  Uiso   1.00
O1356  O     0.78795   0.95239   0.42903   0.00000  Uiso   1.00
O1357  O     0.77668   0.71525   0.44114   0.00000  Uiso   1.00
O1358  O     0.89441   0.79513   0.50000   0.00000  Uiso   1.00
O1359  O     0.89895   0.95614   0.54236   0.00000  Uiso   1.00
O1360  O     0.89441   0.87154   0.50000   0.00000  Uiso   1.00
O1361  O     0.77226   0.79513   0.50000   0.00000  Uiso   1.00
O1362  O     0.83334   0.87155   0.42845   0.00000  Uiso   1.00
O1363  O     0.83333   0.79512   0.57155   0.00000  Uiso   1.00
O1364  O     0.83333   0.87155   0.57155   0.00000  Uiso   1.00
O1365  O     0.83334   0.79512   0.42845   0.00000  Uiso   1.00
O1366  O     0.70524   0.83034   0.62810   0.00000  Uiso   1.00
Zn1367 Zn    0.83333   0.88437   0.50000   0.00000  Uiso   1.00
Zn1368 Zn    0.83333   0.78229   0.50000   0.00000  Uiso   1.00
C1369  C     0.08693   0.16648   0.83416   0.00000  Uiso   1.00
C1370  C     0.02073   0.17980   0.79012   0.00000  Uiso   1.00
C1371  C     0.29056   0.16759   0.83401   0.00000  Uiso   1.00
C1372  C     0.04262   0.16601   0.83373   0.00000  Uiso   1.00
C1373  C     0.19134   0.02357   0.86659   0.00000  Uiso   1.00
C1374  C     0.14195   0.30922   0.80000   0.00000  Uiso   1.00
C1375  C     0.13932   0.02423   0.80269   0.00000  Uiso   1.00
C1376  C     0.19441   0.30917   0.86314   0.00000  Uiso   1.00
C1377  C     0.04630   0.14262   0.92409   0.00000  Uiso   1.00
C1378  C     0.28622   0.19167   0.74375   0.00000  Uiso   1.00
C1379  C     0.29051   0.13385   0.92120   0.00000  Uiso   1.00
C1380  C     0.24638   0.16690   0.83344   0.00000  Uiso   1.00
C1381  C     0.04340   0.19066   0.74406   0.00000  Uiso   1.00
C1382  C     0.18551   0.04104   0.94808   0.00000  Uiso   1.00
C1383  C     0.20723   0.06054   0.99427   0.00000  Uiso   1.00
C1384  C     0.13993   0.29618   0.71624   0.00000  Uiso   1.00
C1385  C     0.11420   0.27573   0.67355   0.00000  Uiso   1.00
C1386  C     0.06991   0.02791   0.77509   0.00000  Uiso   1.00
C1387  C     0.03612   0.06244   0.76580   0.00000  Uiso   1.00
C1388  C     0.23433   0.27315   0.92532   0.00000  Uiso   1.00
C1389  C     0.27125   0.29508   0.95294   0.00000  Uiso   1.00
C1390  C     0.16807   0.16684   0.73972   0.00000  Uiso   1.00
C1391  C     0.16663   0.16657   0.92703   0.00000  Uiso   1.00
C1392  C     0.16852   0.16700   0.68853   0.00000  Uiso   1.00
C1393  C     0.16774   0.16668   0.97823   0.00000  Uiso   1.00
C1394  C     0.02243   0.15235   0.87709   0.00000  Uiso   1.00
C1395  C     0.31068   0.18107   0.79034   0.00000  Uiso   1.00
C1396  C     0.31240   0.15192   0.87690   0.00000  Uiso   1.00
H1397  H     0.08912   0.10488   0.96090   0.00000  Uiso   1.00
H1398  H     0.17215   0.28274   0.71564   0.00000  Uiso   1.00
H1399  H     0.14131   0.33282   0.70884   0.00000  Uiso   1.00
H1400  H     0.12867   0.28327   0.97065   0.00000  Uiso   1.00
H1401  H     0.11258   0.23905   0.67823   0.00000  Uiso   1.00
H1402  H     0.08218   0.28944   0.67260   0.00000  Uiso   1.00
H1403  H     0.06366   0.01079   0.81142   0.00000  Uiso   1.00
H1404  H     0.06640   0.00364   0.74423   0.00000  Uiso   1.00
H1405  H     0.04217   0.08196   0.73123   0.00000  Uiso   1.00
H1406  H     0.00534   0.04536   0.76136   0.00000  Uiso   1.00
H1407  H     0.03488   0.08484   0.79821   0.00000  Uiso   1.00
H1408  H     0.24231   0.22973   0.70949   0.00000  Uiso   1.00
H1409  H     0.24060   0.23679   0.92438   0.00000  Uiso   1.00
H1410  H     0.20527   0.27643   0.94631   0.00000  Uiso   1.00
H1411  H     0.27027   0.28738   0.99344   0.00000  Uiso   1.00
H1412  H     0.30088   0.28233   0.93834   0.00000  Uiso   1.00
H1413  H     0.27088   0.33190   0.94750   0.00000  Uiso   1.00
H1414  H     0.29071   0.08788   0.97717   0.00000  Uiso   1.00
H1415  H     0.08717   0.17154   0.69671   0.00000  Uiso   1.00
H1416  H     0.17782   0.00589   0.95695   0.00000  Uiso   1.00
H1417  H     0.15510   0.05782   0.94164   0.00000  Uiso   1.00
H1418  H     0.21893   0.09470   0.98630   0.00000  Uiso   1.00
H1419  H     0.18496   0.06236   0.69175   0.00000  Uiso   1.00
H1420  H     0.23365   0.03915   0.67347   0.00000  Uiso   1.00
N1421  N     0.16667   0.28573   0.83333   0.00000  Uiso   1.00
N1422  N     0.16667   0.04760   0.83333   0.00000  Uiso   1.00
O1423  O     0.10559   0.20487   0.83333   0.00000  Uiso   1.00
O1424  O     0.07597   0.10870   0.92627   0.00000  Uiso   1.00
O1425  O     0.29053   0.16895   0.70660   0.00000  Uiso   1.00
O1426  O     0.25838   0.22735   0.74250   0.00000  Uiso   1.00
O1427  O     0.26096   0.15371   0.93779   0.00000  Uiso   1.00
O1428  O     0.30492   0.09466   0.94468   0.00000  Uiso   1.00
O1429  O     0.03484   0.22421   0.71942   0.00000  Uiso   1.00
O1430  O     0.07429   0.16169   0.72890   0.00000  Uiso   1.00
O1431  O     0.21125   0.04540   0.90590   0.00000  Uiso   1.00
O1432  O     0.12128   0.28572   0.76237   0.00000  Uiso   1.00
O1433  O     0.11001   0.04858   0.77447   0.00000  Uiso   1.00
O1434  O     0.22774   0.12846   0.83334   0.00000  Uiso   1.00
O1435  O     0.23228   0.28947   0.87569   0.00000  Uiso   1.00
O1436  O     0.22774   0.20487   0.83334   0.00000  Uiso   1.00
O1437  O     0.10559   0.12846   0.83333   0.00000  Uiso   1.00
O1438  O     0.16667   0.20488   0.76178   0.00000  Uiso   1.00
O1439  O     0.16666   0.12845   0.90489   0.00000  Uiso   1.00
O1440  O     0.16666   0.20488   0.90489   0.00000  Uiso   1.00
O1441  O     0.16667   0.12845   0.76178   0.00000  Uiso   1.00
O1442  O     0.03857   0.16368   0.96143   0.00000  Uiso   1.00
Zn1443 Zn    0.16667   0.21771   0.83333   0.00000  Uiso   1.00
Zn1444 Zn    0.16667   0.11563   0.83333   0.00000  Uiso   1.00
C1445  C     0.42027   0.16648   0.83416   0.00000  Uiso   1.00
C1446  C     0.35407   0.17980   0.79012   0.00000  Uiso   1.00
C1447  C     0.62389   0.16759   0.83401   0.00000  Uiso   1.00
C1448  C     0.37595   0.16601   0.83373   0.00000  Uiso   1.00
C1449  C     0.52467   0.02357   0.86659   0.00000  Uiso   1.00
C1450  C     0.47528   0.30922   0.80000   0.00000  Uiso   1.00
C1451  C     0.47266   0.02423   0.80269   0.00000  Uiso   1.00
C1452  C     0.52775   0.30917   0.86314   0.00000  Uiso   1.00
C1453  C     0.37963   0.14262   0.92409   0.00000  Uiso   1.00
C1454  C     0.61955   0.19167   0.74375   0.00000  Uiso   1.00
C1455  C     0.62384   0.13385   0.92120   0.00000  Uiso   1.00
C1456  C     0.57971   0.16690   0.83344   0.00000  Uiso   1.00
C1457  C     0.37673   0.19066   0.74406   0.00000  Uiso   1.00
C1458  C     0.51884   0.04104   0.94808   0.00000  Uiso   1.00
C1459  C     0.54056   0.06054   0.99427   0.00000  Uiso   1.00
C1460  C     0.47327   0.29618   0.71624   0.00000  Uiso   1.00
C1461  C     0.44753   0.27573   0.67355   0.00000  Uiso   1.00
C1462  C     0.40325   0.02791   0.77509   0.00000  Uiso   1.00
C1463  C     0.36946   0.06244   0.76580   0.00000  Uiso   1.00
C1464  C     0.56766   0.27315   0.92532   0.00000  Uiso   1.00
C1465  C     0.60458   0.29508   0.95294   0.00000  Uiso   1.00
C1466  C     0.50141   0.16684   0.73972   0.00000  Uiso   1.00
C1467  C     0.49997   0.16657   0.92703   0.00000  Uiso   1.00
C1468  C     0.50185   0.16700   0.68853   0.00000  Uiso   1.00
C1469  C     0.50108   0.16668   0.97823   0.00000  Uiso   1.00
C1470  C     0.35576   0.15235   0.87709   0.00000  Uiso   1.00
C1471  C     0.64401   0.18107   0.79034   0.00000  Uiso   1.00
C1472  C     0.64573   0.15192   0.87690   0.00000  Uiso   1.00
H1473  H     0.42246   0.10488   0.96090   0.00000  Uiso   1.00
H1474  H     0.50548   0.28274   0.71564   0.00000  Uiso   1.00
H1475  H     0.47465   0.33282   0.70884   0.00000  Uiso   1.00
H1476  H     0.46201   0.28327   0.97065   0.00000  Uiso   1.00
H1477  H     0.44592   0.23905   0.67823   0.00000  Uiso   1.00
H1478  H     0.41551   0.28944   0.67260   0.00000  Uiso   1.00
H1479  H     0.39700   0.01079   0.81142   0.00000  Uiso   1.00
H1480  H     0.39974   0.00364   0.74423   0.00000  Uiso   1.00
H1481  H     0.37551   0.08196   0.73123   0.00000  Uiso   1.00
H1482  H     0.33867   0.04536   0.76136   0.00000  Uiso   1.00
H1483  H     0.36822   0.08484   0.79821   0.00000  Uiso   1.00
H1484  H     0.57564   0.22973   0.70949   0.00000  Uiso   1.00
H1485  H     0.57393   0.23679   0.92438   0.00000  Uiso   1.00
H1486  H     0.53861   0.27643   0.94631   0.00000  Uiso   1.00
H1487  H     0.60360   0.28738   0.99344   0.00000  Uiso   1.00
H1488  H     0.63422   0.28233   0.93834   0.00000  Uiso   1.00
H1489  H     0.60421   0.33190   0.94750   0.00000  Uiso   1.00
H1490  H     0.62405   0.08788   0.97717   0.00000  Uiso   1.00
H1491  H     0.42050   0.17154   0.69671   0.00000  Uiso   1.00
H1492  H     0.51116   0.00589   0.95695   0.00000  Uiso   1.00
H1493  H     0.48843   0.05782   0.94164   0.00000  Uiso   1.00
H1494  H     0.55226   0.09470   0.98630   0.00000  Uiso   1.00
H1495  H     0.51830   0.06236   0.69175   0.00000  Uiso   1.00
H1496  H     0.56698   0.03915   0.67347   0.00000  Uiso   1.00
N1497  N     0.50000   0.28573   0.83333   0.00000  Uiso   1.00
N1498  N     0.50000   0.04760   0.83333   0.00000  Uiso   1.00
O1499  O     0.43892   0.20487   0.83333   0.00000  Uiso   1.00
O1500  O     0.40930   0.10870   0.92627   0.00000  Uiso   1.00
O1501  O     0.62386   0.16895   0.70660   0.00000  Uiso   1.00
O1502  O     0.59171   0.22735   0.74250   0.00000  Uiso   1.00
O1503  O     0.59429   0.15371   0.93779   0.00000  Uiso   1.00
O1504  O     0.63825   0.09466   0.94468   0.00000  Uiso   1.00
O1505  O     0.36818   0.22421   0.71942   0.00000  Uiso   1.00
O1506  O     0.40762   0.16169   0.72890   0.00000  Uiso   1.00
O1507  O     0.54459   0.04540   0.90590   0.00000  Uiso   1.00
O1508  O     0.45462   0.28572   0.76237   0.00000  Uiso   1.00
O1509  O     0.44335   0.04858   0.77447   0.00000  Uiso   1.00
O1510  O     0.56108   0.12846   0.83334   0.00000  Uiso   1.00
O1511  O     0.56562   0.28947   0.87569   0.00000  Uiso   1.00
O1512  O     0.56108   0.20487   0.83334   0.00000  Uiso   1.00
O1513  O     0.43892   0.12846   0.83333   0.00000  Uiso   1.00
O1514  O     0.50000   0.20488   0.76178   0.00000  Uiso   1.00
O1515  O     0.50000   0.12845   0.90489   0.00000  Uiso   1.00
O1516  O     0.50000   0.20488   0.90489   0.00000  Uiso   1.00
O1517  O     0.50000   0.12845   0.76178   0.00000  Uiso   1.00
O1518  O     0.37191   0.16368   0.96143   0.00000  Uiso   1.00
Zn1519 Zn    0.50000   0.21771   0.83333   0.00000  Uiso   1.00
Zn1520 Zn    0.50000   0.11563   0.83333   0.00000  Uiso   1.00
C1521  C     0.75360   0.16648   0.83416   0.00000  Uiso   1.00
C1522  C     0.68740   0.17980   0.79012   0.00000  Uiso   1.00
C1523  C     0.95722   0.16759   0.83401   0.00000  Uiso   1.00
C1524  C     0.70929   0.16601   0.83373   0.00000  Uiso   1.00
C1525  C     0.85800   0.02357   0.86659   0.00000  Uiso   1.00
C1526  C     0.80861   0.30922   0.80000   0.00000  Uiso   1.00
C1527  C     0.80599   0.02423   0.80269   0.00000  Uiso   1.00
C1528  C     0.86108   0.30917   0.86314   0.00000  Uiso   1.00
C1529  C     0.71296   0.14262   0.92409   0.00000  Uiso   1.00
C1530  C     0.95289   0.19167   0.74375   0.00000  Uiso   1.00
C1531  C     0.95718   0.13385   0.92120   0.00000  Uiso   1.00
C1532  C     0.91304   0.16690   0.83344   0.00000  Uiso   1.00
C1533  C     0.71007   0.19066   0.74406   0.00000  Uiso   1.00
C1534  C     0.85218   0.04104   0.94808   0.00000  Uiso   1.00
C1535  C     0.87390   0.06054   0.99427   0.00000  Uiso   1.00
C1536  C     0.80660   0.29618   0.71624   0.00000  Uiso   1.00
C1537  C     0.78086   0.27573   0.67355   0.00000  Uiso   1.00
C1538  C     0.73658   0.02791   0.77509   0.00000  Uiso   1.00
C1539  C     0.70279   0.06244   0.76580   0.00000  Uiso   1.00
C1540  C     0.90099   0.27315   0.92532   0.00000  Uiso   1.00
C1541  C     0.93791   0.29508   0.95294   0.00000  Uiso   1.00
C1542  C     0.83474   0.16684   0.73972   0.00000  Uiso   1.00
C1543  C     0.83330   0.16657   0.92703   0.00000  Uiso   1.00
C1544  C     0.83519   0.16700   0.68853   0.00000  Uiso   1.00
C1545  C     0.83441   0.16668   0.97823   0.00000  Uiso   1.00
C1546  C     0.68909   0.15235   0.87709   0.00000  Uiso   1.00
C1547  C     0.97735   0.18107   0.79034   0.00000  Uiso   1.00
C1548  C     0.97906   0.15192   0.87690   0.00000  Uiso   1.00
H1549  H     0.75579   0.10488   0.96090   0.00000  Uiso   1.00
H1550  H     0.83881   0.28274   0.71564   0.00000  Uiso   1.00
H1551  H     0.80798   0.33282   0.70884   0.00000  Uiso   1.00
H1552  H     0.79534   0.28327   0.97065   0.00000  Uiso   1.00
H1553  H     0.77925   0.23905   0.67823   0.00000  Uiso   1.00
H1554  H     0.74884   0.28944   0.67260   0.00000  Uiso   1.00
H1555  H     0.73033   0.01079   0.81142   0.00000  Uiso   1.00
H1556  H     0.73307   0.00364   0.74423   0.00000  Uiso   1.00
H1557  H     0.70884   0.08196   0.73123   0.00000  Uiso   1.00
H1558  H     0.67200   0.04536   0.76136   0.00000  Uiso   1.00
H1559  H     0.70155   0.08484   0.79821   0.00000  Uiso   1.00
H1560  H     0.90897   0.22973   0.70949   0.00000  Uiso   1.00
H1561  H     0.90726   0.23679   0.92438   0.00000  Uiso   1.00
H1562  H     0.87194   0.27643   0.94631   0.00000  Uiso   1.00
H1563  H     0.93694   0.28738   0.99344   0.00000  Uiso   1.00
H1564  H     0.96755   0.28233   0.93834   0.00000  Uiso   1.00
H1565  H     0.93755   0.33190   0.94750   0.00000  Uiso   1.00
H1566  H     0.95738   0.08788   0.97717   0.00000  Uiso   1.00
H1567  H     0.75384   0.17154   0.69671   0.00000  Uiso   1.00
H1568  H     0.84449   0.00589   0.95695   0.00000  Uiso   1.00
H1569  H     0.82177   0.05782   0.94164   0.00000  Uiso   1.00
H1570  H     0.88559   0.09470   0.98630   0.00000  Uiso   1.00
H1571  H     0.85163   0.06236   0.69175   0.00000  Uiso   1.00
H1572  H     0.90031   0.03915   0.67347   0.00000  Uiso   1.00
N1573  N     0.83333   0.28573   0.83333   0.00000  Uiso   1.00
N1574  N     0.83333   0.04760   0.83333   0.00000  Uiso   1.00
O1575  O     0.77226   0.20487   0.83333   0.00000  Uiso   1.00
O1576  O     0.74264   0.10870   0.92627   0.00000  Uiso   1.00
O1577  O     0.95719   0.16895   0.70660   0.00000  Uiso   1.00
O1578  O     0.92505   0.22735   0.74250   0.00000  Uiso   1.00
O1579  O     0.92762   0.15371   0.93779   0.00000  Uiso   1.00
O1580  O     0.97159   0.09466   0.94468   0.00000  Uiso   1.00
O1581  O     0.70151   0.22421   0.71942   0.00000  Uiso   1.00
O1582  O     0.74095   0.16169   0.72890   0.00000  Uiso   1.00
O1583  O     0.87792   0.04540   0.90590   0.00000  Uiso   1.00
O1584  O     0.78795   0.28572   0.76237   0.00000  Uiso   1.00
O1585  O     0.77668   0.04858   0.77447   0.00000  Uiso   1.00
O1586  O     0.89441   0.12846   0.83334   0.00000  Uiso   1.00
O1587  O     0.89895   0.28947   0.87569   0.00000  Uiso   1.00
O1588  O     0.89441   0.20487   0.83334   0.00000  Uiso   1.00
O1589  O     0.77226   0.12846   0.83333   0.00000  Uiso   1.00
O1590  O     0.83334   0.20488   0.76178   0.00000  Uiso   1.00
O1591  O     0.83333   0.12845   0.90489   0.00000  Uiso   1.00
O1592  O     0.83333   0.20488   0.90489   0.00000  Uiso   1.00
O1593  O     0.83334   0.12845   0.76178   0.00000  Uiso   1.00
O1594  O     0.70524   0.16368   0.96143   0.00000  Uiso   1.00
Zn1595 Zn    0.83333   0.21771   0.83333   0.00000  Uiso   1.00
Zn1596 Zn    0.83333   0.11563   0.83333   0.00000  Uiso   1.00
C1597  C     0.08693   0.49981   0.83416   0.00000  Uiso   1.00
C1598  C     0.02073   0.51314   0.79012   0.00000  Uiso   1.00
C1599  C     0.29056   0.50092   0.83401   0.00000  Uiso   1.00
C1600  C     0.04262   0.49934   0.83373   0.00000  Uiso   1.00
C1601  C     0.19134   0.35690   0.86659   0.00000  Uiso   1.00
C1602  C     0.14195   0.64256   0.80000   0.00000  Uiso   1.00
C1603  C     0.13932   0.35757   0.80269   0.00000  Uiso   1.00
C1604  C     0.19441   0.64250   0.86314   0.00000  Uiso   1.00
C1605  C     0.04630   0.47596   0.92409   0.00000  Uiso   1.00
C1606  C     0.28622   0.52501   0.74375   0.00000  Uiso   1.00
C1607  C     0.29051   0.46719   0.92120   0.00000  Uiso   1.00
C1608  C     0.24638   0.50023   0.83344   0.00000  Uiso   1.00
C1609  C     0.04340   0.52400   0.74406   0.00000  Uiso   1.00
C1610  C     0.18551   0.37437   0.94808   0.00000  Uiso   1.00
C1611  C     0.20723   0.39388   0.99427   0.00000  Uiso   1.00
C1612  C     0.13993   0.62951   0.71624   0.00000  Uiso   1.00
C1613  C     0.11420   0.60906   0.67355   0.00000  Uiso   1.00
C1614  C     0.06991   0.36124   0.77509   0.00000  Uiso   1.00
C1615  C     0.03612   0.39578   0.76580   0.00000  Uiso   1.00
C1616  C     0.23433   0.60649   0.92532   0.00000  Uiso   1.00
C1617  C     0.27125   0.62842   0.95294   0.00000  Uiso   1.00
C1618  C     0.16807   0.50017   0.73972   0.00000  Uiso   1.00
C1619  C     0.16663   0.49990   0.92703   0.00000  Uiso   1.00
C1620  C     0.16852   0.50033   0.68853   0.00000  Uiso   1.00
C1621  C     0.16774   0.50002   0.97823   0.00000  Uiso   1.00
C1622  C     0.02243   0.48568   0.87709   0.00000  Uiso   1.00
C1623  C     0.31068   0.51441   0.79034   0.00000  Uiso   1.00
C1624  C     0.31240   0.48526   0.87690   0.00000  Uiso   1.00
H1625  H     0.08912   0.43821   0.96090   0.00000  Uiso   1.00
H1626  H     0.17215   0.61607   0.71564   0.00000  Uiso   1.00
H1627  H     0.14131   0.66616   0.70884   0.00000  Uiso   1.00
H1628  H     0.12867   0.61661   0.97065   0.00000  Uiso   1.00
H1629  H     0.11258   0.57239   0.67823   0.00000  Uiso   1.00
H1630  H     0.08218   0.62277   0.67260   0.00000  Uiso   1.00
H1631  H     0.06366   0.34413   0.81142   0.00000  Uiso   1.00
H1632  H     0.06640   0.33697   0.74423   0.00000  Uiso   1.00
H1633  H     0.04217   0.41530   0.73123   0.00000  Uiso   1.00
H1634  H     0.00534   0.37869   0.76136   0.00000  Uiso   1.00
H1635  H     0.03488   0.41817   0.79821   0.00000  Uiso   1.00
H1636  H     0.24231   0.56307   0.70949   0.00000  Uiso   1.00
H1637  H     0.24060   0.57012   0.92438   0.00000  Uiso   1.00
H1638  H     0.20527   0.60976   0.94631   0.00000  Uiso   1.00
H1639  H     0.27027   0.62071   0.99344   0.00000  Uiso   1.00
H1640  H     0.30088   0.61566   0.93834   0.00000  Uiso   1.00
H1641  H     0.27088   0.66524   0.94750   0.00000  Uiso   1.00
H1642  H     0.29071   0.42121   0.97717   0.00000  Uiso   1.00
H1643  H     0.08717   0.50488   0.69671   0.00000  Uiso   1.00
H1644  H     0.17782   0.33922   0.95695   0.00000  Uiso   1.00
H1645  H     0.15510   0.39116   0.94164   0.00000  Uiso   1.00
H1646  H     0.21893   0.42804   0.98630   0.00000  Uiso   1.00
H1647  H     0.18496   0.39570   0.69175   0.00000  Uiso   1.00
H1648  H     0.23365   0.37249   0.67347   0.00000  Uiso   1.00
N1649  N     0.16667   0.61907   0.83333   0.00000  Uiso   1.00
N1650  N     0.16667   0.38093   0.83333   0.00000  Uiso   1.00
O1651  O     0.10559   0.53821   0.83333   0.00000  Uiso   1.00
O1652  O     0.07597   0.44203   0.92627   0.00000  Uiso   1.00
O1653  O     0.29053   0.50229   0.70660   0.00000  Uiso   1.00
O1654  O     0.25838   0.56069   0.74250   0.00000  Uiso   1.00
O1655  O     0.26096   0.48705   0.93779   0.00000  Uiso   1.00
O1656  O     0.30492   0.42799   0.94468   0.00000  Uiso   1.00
O1657  O     0.03484   0.55754   0.71942   0.00000  Uiso   1.00
O1658  O     0.07429   0.49502   0.72890   0.00000  Uiso   1.00
O1659  O     0.21125   0.37873   0.90590   0.00000  Uiso   1.00
O1660  O     0.12128   0.61905   0.76237   0.00000  Uiso   1.00
O1661  O     0.11001   0.38191   0.77447   0.00000  Uiso   1.00
O1662  O     0.22774   0.46179   0.83334   0.00000  Uiso   1.00
O1663  O     0.23228   0.62281   0.87569   0.00000  Uiso   1.00
O1664  O     0.22774   0.53821   0.83334   0.00000  Uiso   1.00
O1665  O     0.10559   0.46179   0.83333   0.00000  Uiso   1.00
O1666  O     0.16667   0.53821   0.76178   0.00000  Uiso   1.00
O1667  O     0.16666   0.46179   0.90489   0.00000  Uiso   1.00
O1668  O     0.16666   0.53821   0.90489   0.00000  Uiso   1.00
O1669  O     0.16667   0.46179   0.76178   0.00000  Uiso   1.00
O1670  O     0.03857   0.49701   0.96143   0.00000  Uiso   1.00
Zn1671 Zn    0.16667   0.55104   0.83333   0.00000  Uiso   1.00
Zn1672 Zn    0.16667   0.44896   0.83333   0.00000  Uiso   1.00
C1673  C     0.42027   0.49981   0.83416   0.00000  Uiso   1.00
C1674  C     0.35407   0.51314   0.79012   0.00000  Uiso   1.00
C1675  C     0.62389   0.50092   0.83401   0.00000  Uiso   1.00
C1676  C     0.37595   0.49934   0.83373   0.00000  Uiso   1.00
C1677  C     0.52467   0.35690   0.86659   0.00000  Uiso   1.00
C1678  C     0.47528   0.64256   0.80000   0.00000  Uiso   1.00
C1679  C     0.47266   0.35757   0.80269   0.00000  Uiso   1.00
C1680  C     0.52775   0.64250   0.86314   0.00000  Uiso   1.00
C1681  C     0.37963   0.47596   0.92409   0.00000  Uiso   1.00
C1682  C     0.61955   0.52501   0.74375   0.00000  Uiso   1.00
C1683  C     0.62384   0.46719   0.92120   0.00000  Uiso   1.00
C1684  C     0.57971   0.50023   0.83344   0.00000  Uiso   1.00
C1685  C     0.37673   0.52400   0.74406   0.00000  Uiso   1.00
C1686  C     0.51884   0.37437   0.94808   0.00000  Uiso   1.00
C1687  C     0.54056   0.39388   0.99427   0.00000  Uiso   1.00
C1688  C     0.47327   0.62951   0.71624   0.00000  Uiso   1.00
C1689  C     0.44753   0.60906   0.67355   0.00000  Uiso   1.00
C1690  C     0.40325   0.36124   0.77509   0.00000  Uiso   1.00
C1691  C     0.36946   0.39578   0.76580   0.00000  Uiso   1.00
C1692  C     0.56766   0.60649   0.92532   0.00000  Uiso   1.00
C1693  C     0.60458   0.62842   0.95294   0.00000  Uiso   1.00
C1694  C     0.50141   0.50017   0.73972   0.00000  Uiso   1.00
C1695  C     0.49997   0.49990   0.92703   0.00000  Uiso   1.00
C1696  C     0.50185   0.50033   0.68853   0.00000  Uiso   1.00
C1697  C     0.50108   0.50002   0.97823   0.00000  Uiso   1.00
C1698  C     0.35576   0.48568   0.87709   0.00000  Uiso   1.00
C1699  C     0.64401   0.51441   0.79034   0.00000  Uiso   1.00
C1700  C     0.64573   0.48526   0.87690   0.00000  Uiso   1.00
H1701  H     0.42246   0.43821   0.96090   0.00000  Uiso   1.00
H1702  H     0.50548   0.61607   0.71564   0.00000  Uiso   1.00
H1703  H     0.47465   0.66616   0.70884   0.00000  Uiso   1.00
H1704  H     0.46201   0.61661   0.97065   0.00000  Uiso   1.00
H1705  H     0.44592   0.57239   0.67823   0.00000  Uiso   1.00
H1706  H     0.41551   0.62277   0.67260   0.00000  Uiso   1.00
H1707  H     0.39700   0.34413   0.81142   0.00000  Uiso   1.00
H1708  H     0.39974   0.33697   0.74423   0.00000  Uiso   1.00
H1709  H     0.37551   0.41530   0.73123   0.00000  Uiso   1.00
H1710  H     0.33867   0.37869   0.76136   0.00000  Uiso   1.00
H1711  H     0.36822   0.41817   0.79821   0.00000  Uiso   1.00
H1712  H     0.57564   0.56307   0.70949   0.00000  Uiso   1.00
H1713  H     0.57393   0.57012   0.92438   0.00000  Uiso   1.00
H1714  H     0.53861   0.60976   0.94631   0.00000  Uiso   1.00
H1715  H     0.60360   0.62071   0.99344   0.00000  Uiso   1.00
H1716  H     0.63422   0.61566   0.93834   0.00000  Uiso   1.00
H1717  H     0.60421   0.66524   0.94750   0.00000  Uiso   1.00
H1718  H     0.62405   0.42121   0.97717   0.00000  Uiso   1.00
H1719  H     0.42050   0.50488   0.69671   0.00000  Uiso   1.00
H1720  H     0.51116   0.33922   0.95695   0.00000  Uiso   1.00
H1721  H     0.48843   0.39116   0.94164   0.00000  Uiso   1.00
H1722  H     0.55226   0.42804   0.98630   0.00000  Uiso   1.00
H1723  H     0.51830   0.39570   0.69175   0.00000  Uiso   1.00
H1724  H     0.56698   0.37249   0.67347   0.00000  Uiso   1.00
N1725  N     0.50000   0.61907   0.83333   0.00000  Uiso   1.00
N1726  N     0.50000   0.38093   0.83333   0.00000  Uiso   1.00
O1727  O     0.43892   0.53821   0.83333   0.00000  Uiso   1.00
O1728  O     0.40930   0.44203   0.92627   0.00000  Uiso   1.00
O1729  O     0.62386   0.50229   0.70660   0.00000  Uiso   1.00
O1730  O     0.59171   0.56069   0.74250   0.00000  Uiso   1.00
O1731  O     0.59429   0.48705   0.93779   0.00000  Uiso   1.00
O1732  O     0.63825   0.42799   0.94468   0.00000  Uiso   1.00
O1733  O     0.36818   0.55754   0.71942   0.00000  Uiso   1.00
O1734  O     0.40762   0.49502   0.72890   0.00000  Uiso   1.00
O1735  O     0.54459   0.37873   0.90590   0.00000  Uiso   1.00
O1736  O     0.45462   0.61905   0.76237   0.00000  Uiso   1.00
O1737  O     0.44335   0.38191   0.77447   0.00000  Uiso   1.00
O1738  O     0.56108   0.46179   0.83334   0.00000  Uiso   1.00
O1739  O     0.56562   0.62281   0.87569   0.00000  Uiso   1.00
O1740  O     0.56108   0.53821   0.83334   0.00000  Uiso   1.00
O1741  O     0.43892   0.46179   0.83333   0.00000  Uiso   1.00
O1742  O     0.50000   0.53821   0.76178   0.00000  Uiso   1.00
O1743  O     0.50000   0.46179   0.90489   0.00000  Uiso   1.00
O1744  O     0.50000   0.53821   0.90489   0.00000  Uiso   1.00
O1745  O     0.50000   0.46179   0.76178   0.00000  Uiso   1.00
O1746  O     0.37191   0.49701   0.96143   0.00000  Uiso   1.00
Zn1747 Zn    0.50000   0.55104   0.83333   0.00000  Uiso   1.00
Zn1748 Zn    0.50000   0.44896   0.83333   0.00000  Uiso   1.00
C1749  C     0.75360   0.49981   0.83416   0.00000  Uiso   1.00
C1750  C     0.68740   0.51314   0.79012   0.00000  Uiso   1.00
C1751  C     0.95722   0.50092   0.83401   0.00000  Uiso   1.00
C1752  C     0.70929   0.49934   0.83373   0.00000  Uiso   1.00
C1753  C     0.85800   0.35690   0.86659   0.00000  Uiso   1.00
C1754  C     0.80861   0.64256   0.80000   0.00000  Uiso   1.00
C1755  C     0.80599   0.35757   0.80269   0.00000  Uiso   1.00
C1756  C     0.86108   0.64250   0.86314   0.00000  Uiso   1.00
C1757  C     0.71296   0.47596   0.92409   0.00000  Uiso   1.00
C1758  C     0.95289   0.52501   0.74375   0.00000  Uiso   1.00
C1759  C     0.95718   0.46719   0.92120   0.00000  Uiso   1.00
C1760  C     0.91304   0.50023   0.83344   0.00000  Uiso   1.00
C1761  C     0.71007   0.52400   0.74406   0.00000  Uiso   1.00
C1762  C     0.85218   0.37437   0.94808   0.00000  Uiso   1.00
C1763  C     0.87390   0.39388   0.99427   0.00000  Uiso   1.00
C1764  C     0.80660   0.62951   0.71624   0.00000  Uiso   1.00
C1765  C     0.78086   0.60906   0.67355   0.00000  Uiso   1.00
C1766  C     0.73658   0.36124   0.77509   0.00000  Uiso   1.00
C1767  C     0.70279   0.39578   0.76580   0.00000  Uiso   1.00
C1768  C     0.90099   0.60649   0.92532   0.00000  Uiso   1.00
C1769  C     0.93791   0.62842   0.95294   0.00000  Uiso   1.00
C1770  C     0.83474   0.50017   0.73972   0.00000  Uiso   1.00
C1771  C     0.83330   0.49990   0.92703   0.00000  Uiso   1.00
C1772  C     0.83519   0.50033   0.68853   0.00000  Uiso   1.00
C1773  C     0.83441   0.50002   0.97823   0.00000  Uiso   1.00
C1774  C     0.68909   0.48568   0.87709   0.00000  Uiso   1.00
C1775  C     0.97735   0.51441   0.79034   0.00000  Uiso   1.00
C1776  C     0.97906   0.48526   0.87690   0.00000  Uiso   1.00
H1777  H     0.75579   0.43821   0.96090   0.00000  Uiso   1.00
H1778  H     0.83881   0.61607   0.71564   0.00000  Uiso   1.00
H1779  H     0.80798   0.66616   0.70884   0.00000  Uiso   1.00
H1780  H     0.79534   0.61661   0.97065   0.00000  Uiso   1.00
H1781  H     0.77925   0.57239   0.67823   0.00000  Uiso   1.00
H1782  H     0.74884   0.62277   0.67260   0.00000  Uiso   1.00
H1783  H     0.73033   0.34413   0.81142   0.00000  Uiso   1.00
H1784  H     0.73307   0.33697   0.74423   0.00000  Uiso   1.00
H1785  H     0.70884   0.41530   0.73123   0.00000  Uiso   1.00
H1786  H     0.67200   0.37869   0.76136   0.00000  Uiso   1.00
H1787  H     0.70155   0.41817   0.79821   0.00000  Uiso   1.00
H1788  H     0.90897   0.56307   0.70949   0.00000  Uiso   1.00
H1789  H     0.90726   0.57012   0.92438   0.00000  Uiso   1.00
H1790  H     0.87194   0.60976   0.94631   0.00000  Uiso   1.00
H1791  H     0.93694   0.62071   0.99344   0.00000  Uiso   1.00
H1792  H     0.96755   0.61566   0.93834   0.00000  Uiso   1.00
H1793  H     0.93755   0.66524   0.94750   0.00000  Uiso   1.00
H1794  H     0.95738   0.42121   0.97717   0.00000  Uiso   1.00
H1795  H     0.75384   0.50488   0.69671   0.00000  Uiso   1.00
H1796  H     0.84449   0.33922   0.95695   0.00000  Uiso   1.00
H1797  H     0.82177   0.39116   0.94164   0.00000  Uiso   1.00
H1798  H     0.88559   0.42804   0.98630   0.00000  Uiso   1.00
H1799  H     0.85163   0.39570   0.69175   0.00000  Uiso   1.00
H1800  H     0.90031   0.37249   0.67347   0.00000  Uiso   1.00
N1801  N     0.83333   0.61907   0.83333   0.00000  Uiso   1.00
N1802  N     0.83333   0.38093   0.83333   0.00000  Uiso   1.00
O1803  O     0.77226   0.53821   0.83333   0.00000  Uiso   1.00
O1804  O     0.74264   0.44203   0.92627   0.00000  Uiso   1.00
O1805  O     0.95719   0.50229   0.70660   0.00000  Uiso   1.00
O1806  O     0.92505   0.56069   0.74250   0.00000  Uiso   1.00
O1807  O     0.92762   0.48705   0.93779   0.00000  Uiso   1.00
O1808  O     0.97159   0.42799   0.94468   0.00000  Uiso   1.00
O1809  O     0.70151   0.55754   0.71942   0.00000  Uiso   1.00
O1810  O     0.74095   0.49502   0.72890   0.00000  Uiso   1.00
O1811  O     0.87792   0.37873   0.90590   0.00000  Uiso   1.00
O1812  O     0.78795   0.61905   0.76237   0.00000  Uiso   1.00
O1813  O     0.77668   0.38191   0.77447   0.00000  Uiso   1.00
O1814  O     0.89441   0.46179   0.83334   0.00000  Uiso   1.00
O1815  O     0.89895   0.62281   0.87569   0.00000  Uiso   1.00
O1816  O     0.89441   0.53821   0.83334   0.00000  Uiso   1.00
O1817  O     0.77226   0.46179   0.83333   0.00000  Uiso   1.00
O1818  O     0.83334   0.53821   0.76178   0.00000  Uiso   1.00
O1819  O     0.83333   0.46179   0.90489   0.00000  Uiso   1.00
O1820  O     0.83333   0.53821   0.90489   0.00000  Uiso   1.00
O1821  O     0.83334   0.46179   0.76178   0.00000  Uiso   1.00
O1822  O     0.70524   0.49701   0.96143   0.00000  Uiso   1.00
Zn1823 Zn    0.83333   0.55104   0.83333   0.00000  Uiso   1.00
Zn1824 Zn    0.83333   0.44896   0.83333   0.00000  Uiso   1.00
C1825  C     0.08693   0.83315   0.83416   0.00000  Uiso   1.00
C1826  C     0.02073   0.84647   0.79012   0.00000  Uiso   1.00
C1827  C     0.29056   0.83425   0.83401   0.00000  Uiso   1.00
C1828  C     0.04262   0.83267   0.83373   0.00000  Uiso   1.00
C1829  C     0.19134   0.69024   0.86659   0.00000  Uiso   1.00
C1830  C     0.14195   0.97589   0.80000   0.00000  Uiso   1.00
C1831  C     0.13932   0.69090   0.80269   0.00000  Uiso   1.00
C1832  C     0.19441   0.97584   0.86314   0.00000  Uiso   1.00
C1833  C     0.04630   0.80929   0.92409   0.00000  Uiso   1.00
C1834  C     0.28622   0.85834   0.74375   0.00000  Uiso   1.00
C1835  C     0.29051   0.80052   0.92120   0.00000  Uiso   1.00
C1836  C     0.24638   0.83356   0.83344   0.00000  Uiso   1.00
C1837  C     0.04340   0.85733   0.74406   0.00000  Uiso   1.00
C1838  C     0.18551   0.70771   0.94808   0.00000  Uiso   1.00
C1839  C     0.20723   0.72721   0.99427   0.00000  Uiso   1.00
C1840  C     0.13993   0.96285   0.71624   0.00000  Uiso   1.00
C1841  C     0.11420   0.94239   0.67355   0.00000  Uiso   1.00
C1842  C     0.06991   0.69458   0.77509   0.00000  Uiso   1.00
C1843  C     0.03612   0.72911   0.76580   0.00000  Uiso   1.00
C1844  C     0.23433   0.93982   0.92532   0.00000  Uiso   1.00
C1845  C     0.27125   0.96175   0.95294   0.00000  Uiso   1.00
C1846  C     0.16807   0.83351   0.73972   0.00000  Uiso   1.00
C1847  C     0.16663   0.83323   0.92703   0.00000  Uiso   1.00
C1848  C     0.16852   0.83366   0.68853   0.00000  Uiso   1.00
C1849  C     0.16774   0.83335   0.97823   0.00000  Uiso   1.00
C1850  C     0.02243   0.81901   0.87709   0.00000  Uiso   1.00
C1851  C     0.31068   0.84774   0.79034   0.00000  Uiso   1.00
C1852  C     0.31240   0.81859   0.87690   0.00000  Uiso   1.00
H1853  H     0.08912   0.77155   0.96090   0.00000  Uiso   1.00
H1854  H     0.17215   0.94940   0.71564   0.00000  Uiso   1.00
H1855  H     0.14131   0.99949   0.70884   0.00000  Uiso   1.00
H1856  H     0.12867   0.94994   0.97065   0.00000  Uiso   1.00
H1857  H     0.11258   0.90572   0.67823   0.00000  Uiso   1.00
H1858  H     0.08218   0.95611   0.67260   0.00000  Uiso   1.00
H1859  H     0.06366   0.67746   0.81142   0.00000  Uiso   1.00
H1860  H     0.06640   0.67031   0.74423   0.00000  Uiso   1.00
H1861  H     0.04217   0.74863   0.73123   0.00000  Uiso   1.00
H1862  H     0.00534   0.71203   0.76136   0.00000  Uiso   1.00
H1863  H     0.03488   0.75151   0.79821   0.00000  Uiso   1.00
H1864  H     0.24231   0.89640   0.70949   0.00000  Uiso   1.00
H1865  H     0.24060   0.90345   0.92438   0.00000  Uiso   1.00
H1866  H     0.20527   0.94309   0.94631   0.00000  Uiso   1.00
H1867  H     0.27027   0.95404   0.99344   0.00000  Uiso   1.00
H1868  H     0.30088   0.94900   0.93834   0.00000  Uiso   1.00
H1869  H     0.27088   0.99857   0.94750   0.00000  Uiso   1.00
H1870  H     0.29071   0.75455   0.97717   0.00000  Uiso   1.00
H1871  H     0.08717   0.83821   0.69671   0.00000  Uiso   1.00
H1872  H     0.17782   0.67255   0.95695   0.00000  Uiso   1.00
H1873  H     0.15510   0.72449   0.94164   0.00000  Uiso   1.00
H1874  H     0.21893   0.76137   0.98630   0.00000  Uiso   1.00
H1875  H     0.18496   0.72903   0.69175   0.00000  Uiso   1.00
H1876  H     0.23365   0.70582   0.67347   0.00000  Uiso   1.00
N1877  N     0.16667   0.95240   0.83333   0.00000  Uiso   1.00
N1878  N     0.16667   0.71427   0.83333   0.00000  Uiso   1.00
O1879  O     0.10559   0.87154   0.83333   0.00000  Uiso   1.00
O1880  O     0.07597   0.77537   0.92627   0.00000  Uiso   1.00
O1881  O     0.29053   0.83562   0.70660   0.00000  Uiso   1.00
O1882  O     0.25838   0.89402   0.74250   0.00000  Uiso   1.00
O1883  O     0.26096   0.82038   0.93779   0.00000  Uiso   1.00
O1884  O     0.30492   0.76132   0.94468   0.00000  Uiso   1.00
O1885  O     0.03484   0.89087   0.71942   0.00000  Uiso   1.00
O1886  O     0.07429   0.82835   0.72890   0.00000  Uiso   1.00
O1887  O     0.21125   0.71207   0.90590   0.00000  Uiso   1.00
O1888  O     0.12128   0.95239   0.76237   0.00000  Uiso   1.00
O1889  O     0.11001   0.71525   0.77447   0.00000  Uiso   1.00
O1890  O     0.22774   0.79513   0.83334   0.00000  Uiso   1.00
O1891  O     0.23228   0.95614   0.87569   0.00000  Uiso   1.00
O1892  O     0.22774   0.87154   0.83334   0.00000  Uiso   1.00
O1893  O     0.10559   0.79513   0.83333   0.00000  Uiso   1.00
O1894  O     0.16667   0.87155   0.76178   0.00000  Uiso   1.00
O1895  O     0.16666   0.79512   0.90489   0.00000  Uiso   1.00
O1896  O     0.16666   0.87155   0.90489   0.00000  Uiso   1.00
O1897  O     0.16667   0.79512   0.76178   0.00000  Uiso   1.00
O1898  O     0.03857   0.83034   0.96143   0.00000  Uiso   1.00
Zn1899 Zn    0.16667   0.88437   0.83333   0.00000  Uiso   1.00
Zn1900 Zn    0.16667   0.78229   0.83333   0.00000  Uiso   1.00
C1901  C     0.42027   0.83315   0.83416   0.00000  Uiso   1.00
C1902  C     0.35407   0.84647   0.79012   0.00000  Uiso   1.00
C1903  C     0.62389   0.83425   0.83401   0.00000  Uiso   1.00
C1904  C     0.37595   0.83267   0.83373   0.00000  Uiso   1.00
C1905  C     0.52467   0.69024   0.86659   0.00000  Uiso   1.00
C1906  C     0.47528   0.97589   0.80000   0.00000  Uiso   1.00
C1907  C     0.47266   0.69090   0.80269   0.00000  Uiso   1.00
C1908  C     0.52775   0.97584   0.86314   0.00000  Uiso   1.00
C1909  C     0.37963   0.80929   0.92409   0.00000  Uiso   1.00
C1910  C     0.61955   0.85834   0.74375   0.00000  Uiso   1.00
C1911  C     0.62384   0.80052   0.92120   0.00000  Uiso   1.00
C1912  C     0.57971   0.83356   0.83344   0.00000  Uiso   1.00
C1913  C     0.37673   0.85733   0.74406   0.00000  Uiso   1.00
C1914  C     0.51884   0.70771   0.94808   0.00000  Uiso   1.00
C1915  C     0.54056   0.72721   0.99427   0.00000  Uiso   1.00
C1916  C     0.47327   0.96285   0.71624   0.00000  Uiso   1.00
C1917  C     0.44753   0.94239   0.67355   0.00000  Uiso   1.00
C1918  C     0.40325   0.69458   0.77509   0.00000  Uiso   1.00
C1919  C     0.36946   0.72911   0.76580   0.00000  Uiso   1.00
C1920  C     0.56766   0.93982   0.92532   0.00000  Uiso   1.00
C1921  C     0.60458   0.96175   0.95294   0.00000  Uiso   1.00
C1922  C     0.50141   0.83351   0.73972   0.00000  Uiso   1.00
C1923  C     0.49997   0.83323   0.92703   0.00000  Uiso   1.00
C1924  C     0.50185   0.83366   0.68853   0.00000  Uiso   1.00
C1925  C     0.50108   0.83335   0.97823   0.00000  Uiso   1.00
C1926  C     0.35576   0.81901   0.87709   0.00000  Uiso   1.00
C1927  C     0.64401   0.84774   0.79034   0.00000  Uiso   1.00
C1928  C     0.64573   0.81859   0.87690   0.00000  Uiso   1.00
H1929  H     0.42246   0.77155   0.96090   0.00000  Uiso   1.00
H1930  H     0.50548   0.94940   0.71564   0.00000  Uiso   1.00
H1931  H     0.47465   0.99949   0.70884   0.00000  Uiso   1.00
H1932  H     0.46201   0.94994   0.97065   0.00000  Uiso   1.00
H1933  H     0.44592   0.90572   0.67823   0.00000  Uiso   1.00
H1934  H     0.41551   0.95611   0.67260   0.00000  Uiso   1.00
H1935  H     0.39700   0.67746   0.81142   0.00000  Uiso   1.00
H1936  H     0.39974   0.67031   0.74423   0.00000  Uiso   1.00
H1937  H     0.37551   0.74863   0.73123   0.00000  Uiso   1.00
H1938  H     0.33867   0.71203   0.76136   0.00000  Uiso   1.00
H1939  H     0.36822   0.75151   0.79821   0.00000  Uiso   1.00
H1940  H     0.57564   0.89640   0.70949   0.00000  Uiso   1.00
H1941  H     0.57393   0.90345   0.92438   0.00000  Uiso   1.00
H1942  H     0.53861   0.94309   0.94631   0.00000  Uiso   1.00
H1943  H     0.60360   0.95404   0.99344   0.00000  Uiso   1.00
H1944  H     0.63422   0.94900   0.93834   0.00000  Uiso   1.00
H1945  H     0.60421   0.99857   0.94750   0.00000  Uiso   1.00
H1946  H     0.62405   0.75455   0.97717   0.00000  Uiso   1.00
H1947  H     0.42050   0.83821   0.69671   0.00000  Uiso   1.00
H1948  H     0.51116   0.67255   0.95695   0.00000  Uiso   1.00
H1949  H     0.48843   0.72449   0.94164   0.00000  Uiso   1.00
H1950  H     0.55226   0.76137   0.98630   0.00000  Uiso   1.00
H1951  H     0.51830   0.72903   0.69175   0.00000  Uiso   1.00
H1952  H     0.56698   0.70582   0.67347   0.00000  Uiso   1.00
N1953  N     0.50000   0.95240   0.83333   0.00000  Uiso   1.00
N1954  N     0.50000   0.71427   0.83333   0.00000  Uiso   1.00
O1955  O     0.43892   0.87154   0.83333   0.00000  Uiso   1.00
O1956  O     0.40930   0.77537   0.92627   0.00000  Uiso   1.00
O1957  O     0.62386   0.83562   0.70660   0.00000  Uiso   1.00
O1958  O     0.59171   0.89402   0.74250   0.00000  Uiso   1.00
O1959  O     0.59429   0.82038   0.93779   0.00000  Uiso   1.00
O1960  O     0.63825   0.76132   0.94468   0.00000  Uiso   1.00
O1961  O     0.36818   0.89087   0.71942   0.00000  Uiso   1.00
O1962  O     0.40762   0.82835   0.72890   0.00000  Uiso   1.00
O1963  O     0.54459   0.71207   0.90590   0.00000  Uiso   1.00
O1964  O     0.45462   0.95239   0.76237   0.00000  Uiso   1.00
O1965  O     0.44335   0.71525   0.77447   0.00000  Uiso   1.00
O1966  O     0.56108   0.79513   0.83334   0.00000  Uiso   1.00
O1967  O     0.56562   0.95614   0.87569   0.00000  Uiso   1.00
O1968  O     0.56108   0.87154   0.83334   0.00000  Uiso   1.00
O1969  O     0.43892   0.79513   0.83333   0.00000  Uiso   1.00
O1970  O     0.50000   0.87155   0.76178   0.00000  Uiso   1.00
O1971  O     0.50000   0.79512   0.90489   0.00000  Uiso   1.00
O1972  O     0.50000   0.87155   0.90489   0.00000  Uiso   1.00
O1973  O     0.50000   0.79512   0.76178   0.00000  Uiso   1.00
O1974  O     0.37191   0.83034   0.96143   0.00000  Uiso   1.00
Zn1975 Zn    0.50000   0.88437   0.83333   0.00000  Uiso   1.00
Zn1976 Zn    0.50000   0.78229   0.83333   0.00000  Uiso   1.00
C1977  C     0.75360   0.83315   0.83416   0.00000  Uiso   1.00
C1978  C     0.68740   0.84647   0.79012   0.00000  Uiso   1.00
C1979  C     0.95722   0.83425   0.83401   0.00000  Uiso   1.00
C1980  C     0.70929   0.83267   0.83373   0.00000  Uiso   1.00
C1981  C     0.85800   0.69024   0.86659   0.00000  Uiso   1.00
C1982  C     0.80861   0.97589   0.80000   0.00000  Uiso   1.00
C1983  C     0.80599   0.69090   0.80269   0.00000  Uiso   1.00
C1984  C     0.86108   0.97584   0.86314   0.00000  Uiso   1.00
C1985  C     0.71296   0.80929   0.92409   0.00000  Uiso   1.00
C1986  C     0.95289   0.85834   0.74375   0.00000  Uiso   1.00
C1987  C     0.95718   0.80052   0.92120   0.00000  Uiso   1.00
C1988  C     0.91304   0.83356   0.83344   0.00000  Uiso   1.00
C1989  C     0.71007   0.85733   0.74406   0.00000  Uiso   1.00
C1990  C     0.85218   0.70771   0.94808   0.00000  Uiso   1.00
C1991  C     0.87390   0.72721   0.99427   0.00000  Uiso   1.00
C1992  C     0.80660   0.96285   0.71624   0.00000  Uiso   1.00
C1993  C     0.78086   0.94239   0.67355   0.00000  Uiso   1.00
C1994  C     0.73658   0.69458   0.77509   0.00000  Uiso   1.00
C1995  C     0.70279   0.72911   0.76580   0.00000  Uiso   1.00
C1996  C     0.90099   0.93982   0.92532   0.00000  Uiso   1.00
C1997  C     0.93791   0.96175   0.95294   0.00000  Uiso   1.00
C1998  C     0.83474   0.83351   0.73972   0.00000  Uiso   1.00
C1999  C     0.83330   0.83323   0.92703   0.00000  Uiso   1.00
C2000  C     0.83519   0.83366   0.68853   0.00000  Uiso   1.00
C2001  C     0.83441   0.83335   0.97823   0.00000  Uiso   1.00
C2002  C     0.68909   0.81901   0.87709   0.00000  Uiso   1.00
C2003  C     0.97735   0.84774   0.79034   0.00000  Uiso   1.00
C2004  C     0.97906   0.81859   0.87690   0.00000  Uiso   1.00
H2005  H     0.75579   0.77155   0.96090   0.00000  Uiso   1.00
H2006  H     0.83881   0.94940   0.71564   0.00000  Uiso   1.00
H2007  H     0.80798   0.99949   0.70884   0.00000  Uiso   1.00
H2008  H     0.79534   0.94994   0.97065   0.00000  Uiso   1.00
H2009  H     0.77925   0.90572   0.67823   0.00000  Uiso   1.00
H2010  H     0.74884   0.95611   0.67260   0.00000  Uiso   1.00
H2011  H     0.73033   0.67746   0.81142   0.00000  Uiso   1.00
H2012  H     0.73307   0.67031   0.74423   0.00000  Uiso   1.00
H2013  H     0.70884   0.74863   0.73123   0.00000  Uiso   1.00
H2014  H     0.67200   0.71203   0.76136   0.00000  Uiso   1.00
H2015  H     0.70155   0.75151   0.79821   0.00000  Uiso   1.00
H2016  H     0.90897   0.89640   0.70949   0.00000  Uiso   1.00
H2017  H     0.90726   0.90345   0.92438   0.00000  Uiso   1.00
H2018  H     0.87194   0.94309   0.94631   0.00000  Uiso   1.00
H2019  H     0.93694   0.95404   0.99344   0.00000  Uiso   1.00
H2020  H     0.96755   0.94900   0.93834   0.00000  Uiso   1.00
H2021  H     0.93755   0.99857   0.94750   0.00000  Uiso   1.00
H2022  H     0.95738   0.75455   0.97717   0.00000  Uiso   1.00
H2023  H     0.75384   0.83821   0.69671   0.00000  Uiso   1.00
H2024  H     0.84449   0.67255   0.95695   0.00000  Uiso   1.00
H2025  H     0.82177   0.72449   0.94164   0.00000  Uiso   1.00
H2026  H     0.88559   0.76137   0.98630   0.00000  Uiso   1.00
H2027  H     0.85163   0.72903   0.69175   0.00000  Uiso   1.00
H2028  H     0.90031   0.70582   0.67347   0.00000  Uiso   1.00
N2029  N     0.83333   0.95240   0.83333   0.00000  Uiso   1.00
N2030  N     0.83333   0.71427   0.83333   0.00000  Uiso   1.00
O2031  O     0.77226   0.87154   0.83333   0.00000  Uiso   1.00
O2032  O     0.74264   0.77537   0.92627   0.00000  Uiso   1.00
O2033  O     0.95719   0.83562   0.70660   0.00000  Uiso   1.00
O2034  O     0.92505   0.89402   0.74250   0.00000  Uiso   1.00
O2035  O     0.92762   0.82038   0.93779   0.00000  Uiso   1.00
O2036  O     0.97159   0.76132   0.94468   0.00000  Uiso   1.00
O2037  O     0.70151   0.89087   0.71942   0.00000  Uiso   1.00
O2038  O     0.74095   0.82835   0.72890   0.00000  Uiso   1.00
O2039  O     0.87792   0.71207   0.90590   0.00000  Uiso   1.00
O2040  O     0.78795   0.95239   0.76237   0.00000  Uiso   1.00
O2041  O     0.77668   0.71525   0.77447   0.00000  Uiso   1.00
O2042  O     0.89441   0.79513   0.83334   0.00000  Uiso   1.00
O2043  O     0.89895   0.95614   0.87569   0.00000  Uiso   1.00
O2044  O     0.89441   0.87154   0.83334   0.00000  Uiso   1.00
O2045  O     0.77226   0.79513   0.83333   0.00000  Uiso   1.00
O2046  O     0.83334   0.87155   0.76178   0.00000  Uiso   1.00
O2047  O     0.83333   0.79512   0.90489   0.00000  Uiso   1.00
O2048  O     0.83333   0.87155   0.90489   0.00000  Uiso   1.00
O2049  O     0.83334   0.79512   0.76178   0.00000  Uiso   1.00
O2050  O     0.70524   0.83034   0.96143   0.00000  Uiso   1.00
Zn2051 Zn    0.83333   0.88437   0.83333   0.00000  Uiso   1.00
Zn2052 Zn    0.83333   0.78229   0.83333   0.00000  Uiso   1.00
loop_
_geom_bond_atom_site_label_1
_geom_bond_atom_site_label_2
_geom_bond_distance
_geom_bond_site_symmetry_2
_ccdc_geom_bond_type
C1     C4      1.421   .     S
C1     O55     1.288   .     A
C1     O69     1.289   .     A
C2     C4      1.406   .     A
C2     C13     1.481   .     S
C2     C179    1.393   1_455 S
C3     C27     1.405   .     A
C3     C28     1.407   .     A
C3     C12     1.417   .     S
C4     C26     1.401   .     A
C5     N54     1.376   .     A
C5     O63     1.382   .     S
C5     C464    1.434   1_545 S
C6     N53     1.370   .     A
C6     O64     1.384   .     S
C6     C235    1.449   .     S
C7     O65     1.395   .     S
C7     N54     1.374   .     A
C7     C462    1.449   1_545 S
C8     N53     1.370   .     A
C8     O67     1.386   .     S
C8     C233    1.434   .     S
C9     O56     1.397   .     S
C9     C26     1.483   .     S
C9     O74     1.220   .     D
C10    C27     1.488   .     S
C10    O57     1.222   .     D
C10    O58     1.397   .     S
C11    C28     1.489   .     S
C11    O59     1.220   .     D
C11    O60     1.399   .     S
C12    O68     1.287   .     A
C12    O66     1.288   .     A
C13    O61     1.223   .     D
C13    O62     1.394   .     S
C14    O63     1.423   .     S
C14    H49     1.110   .     S
C14    C15     1.521   .     S
C14    H48     1.101   .     S
C15    H50     1.104   .     S
C15    H735    1.109   .     S
C15    H736    1.109   .     S
C16    O64     1.419   .     S
C16    H30     1.113   .     S
C16    C17     1.521   .     S
C16    H31     1.110   .     S
C17    H33     1.101   .     S
C17    H34     1.109   .     S
C17    H1400   1.108   1_554 S
C18    H35     1.116   .     S
C18    O65     1.421   .     S
C18    H36     1.108   .     S
C18    C19     1.517   .     S
C19    H38     1.111   .     S
C19    H39     1.103   .     S
C19    H37     1.110   .     S
C20    O67     1.411   .     S
C20    H41     1.107   .     S
C20    H42     1.108   .     S
C20    C21     1.524   .     S
C21    H44     1.111   .     S
C21    H43     1.108   .     S
C21    H45     1.107   .     S
C22    C24     1.372   .     S
C22    O73     1.285   .     A
C22    O70     1.287   .     A
C23    C25     1.371   .     S
C23    O71     1.289   .     A
C23    O72     1.283   .     A
C24    C1393   1.169   1_554 S
C25    C708    1.169   .     S
C26    C180    1.391   1_455 S
C27    C78     1.393   .     S
C28    C102    1.391   .     S
H29    O56     1.014   .     S
H32    C701    1.108   .     S
H40    O58     1.013   .     S
H46    O60     1.011   .     S
H47    O62     1.007   .     S
H51    C1383   1.109   1_554 S
H52    C1383   1.109   1_554 S
N53    Zn75    2.031   .     S
N54    Zn76    2.031   .     S
O55    Zn75    1.993   .     S
O66    Zn76    1.993   .     S
O68    Zn75    2.001   .     S
O69    Zn76    2.001   .     S
O70    Zn75    1.959   .     S
O71    Zn76    1.959   .     S
O72    Zn75    1.951   .     S
O73    Zn76    1.951   .     S
C77    C80     1.421   .     S
C77    O131    1.288   .     A
C77    O145    1.289   .     A
C78    C80     1.406   .     A
C78    C89     1.481   .     S
C79    C103    1.405   .     A
C79    C104    1.407   .     A
C79    C88     1.417   .     S
C80    C102    1.401   .     A
C81    N130    1.376   .     A
C81    O139    1.382   .     S
C81    C540    1.434   1_545 S
C82    N129    1.370   .     A
C82    O140    1.384   .     S
C82    C311    1.449   .     S
C83    O141    1.395   .     S
C83    N130    1.374   .     A
C83    C538    1.449   1_545 S
C84    N129    1.370   .     A
C84    O143    1.386   .     S
C84    C309    1.434   .     S
C85    O132    1.397   .     S
C85    C102    1.483   .     S
C85    O150    1.220   .     D
C86    C103    1.488   .     S
C86    O133    1.222   .     D
C86    O134    1.397   .     S
C87    C104    1.489   .     S
C87    O135    1.220   .     D
C87    O136    1.399   .     S
C88    O144    1.287   .     A
C88    O142    1.288   .     A
C89    O137    1.223   .     D
C89    O138    1.394   .     S
C90    O139    1.423   .     S
C90    H125    1.110   .     S
C90    C91     1.521   .     S
C90    H124    1.101   .     S
C91    H126    1.104   .     S
C91    H811    1.109   .     S
C91    H812    1.109   .     S
C92    O140    1.419   .     S
C92    H106    1.113   .     S
C92    C93     1.521   .     S
C92    H107    1.110   .     S
C93    H109    1.101   .     S
C93    H110    1.109   .     S
C93    H1476   1.108   1_554 S
C94    H111    1.116   .     S
C94    O141    1.421   .     S
C94    H112    1.108   .     S
C94    C95     1.517   .     S
C95    H114    1.111   .     S
C95    H115    1.103   .     S
C95    H113    1.110   .     S
C96    O143    1.411   .     S
C96    H117    1.107   .     S
C96    H118    1.108   .     S
C96    C97     1.524   .     S
C97    H120    1.111   .     S
C97    H119    1.108   .     S
C97    H121    1.107   .     S
C98    C100    1.372   .     S
C98    O149    1.285   .     A
C98    O146    1.287   .     A
C99    C101    1.371   .     S
C99    O147    1.289   .     A
C99    O148    1.283   .     A
C100   C1469   1.169   1_554 S
C101   C784    1.169   .     S
C103   C154    1.393   .     S
C104   C178    1.391   .     S
H105   O132    1.014   .     S
H108   C777    1.108   .     S
H116   O134    1.013   .     S
H122   O136    1.011   .     S
H123   O138    1.007   .     S
H127   C1459   1.109   1_554 S
H128   C1459   1.109   1_554 S
N129   Zn151   2.031   .     S
N130   Zn152   2.031   .     S
O131   Zn151   1.993   .     S
O142   Zn152   1.993   .     S
O144   Zn151   2.001   .     S
O145   Zn152   2.001   .     S
O146   Zn151   1.959   .     S
O147   Zn152   1.959   .     S
O148   Zn151   1.951   .     S
O149   Zn152   1.951   .     S
C153   C156    1.421   .     S
C153   O207    1.288   .     A
C153   O221    1.289   .     A
C154   C156    1.406   .     A
C154   C165    1.481   .     S
C155   C179    1.405   .     A
C155   C180    1.407   .     A
C155   C164    1.417   .     S
C156   C178    1.401   .     A
C157   N206    1.376   .     A
C157   O215    1.382   .     S
C157   C616    1.434   1_545 S
C158   N205    1.370   .     A
C158   O216    1.384   .     S
C158   C387    1.449   .     S
C159   O217    1.395   .     S
C159   N206    1.374   .     A
C159   C614    1.449   1_545 S
C160   N205    1.370   .     A
C160   O219    1.386   .     S
C160   C385    1.434   .     S
C161   O208    1.397   .     S
C161   C178    1.483   .     S
C161   O226    1.220   .     D
C162   C179    1.488   .     S
C162   O209    1.222   .     D
C162   O210    1.397   .     S
C163   C180    1.489   .     S
C163   O211    1.220   .     D
C163   O212    1.399   .     S
C164   O220    1.287   .     A
C164   O218    1.288   .     A
C165   O213    1.223   .     D
C165   O214    1.394   .     S
C166   O215    1.423   .     S
C166   H201    1.110   .     S
C166   C167    1.521   .     S
C166   H200    1.101   .     S
C167   H202    1.104   .     S
C167   H887    1.109   .     S
C167   H888    1.109   .     S
C168   O216    1.419   .     S
C168   H182    1.113   .     S
C168   C169    1.521   .     S
C168   H183    1.110   .     S
C169   H185    1.101   .     S
C169   H186    1.109   .     S
C169   H1552   1.108   1_554 S
C170   H187    1.116   .     S
C170   O217    1.421   .     S
C170   H188    1.108   .     S
C170   C171    1.517   .     S
C171   H190    1.111   .     S
C171   H191    1.103   .     S
C171   H189    1.110   .     S
C172   O219    1.411   .     S
C172   H193    1.107   .     S
C172   H194    1.108   .     S
C172   C173    1.524   .     S
C173   H196    1.111   .     S
C173   H195    1.108   .     S
C173   H197    1.107   .     S
C174   C176    1.372   .     S
C174   O225    1.285   .     A
C174   O222    1.287   .     A
C175   C177    1.371   .     S
C175   O223    1.289   .     A
C175   O224    1.283   .     A
C176   C1545   1.169   1_554 S
C177   C860    1.169   .     S
C179   C2      1.393   1_655 S
C180   C26     1.391   1_655 S
H181   O208    1.014   .     S
H184   C853    1.108   .     S
H192   O210    1.013   .     S
H198   O212    1.011   .     S
H199   O214    1.007   .     S
H203   C1535   1.109   1_554 S
H204   C1535   1.109   1_554 S
N205   Zn227   2.031   .     S
N206   Zn228   2.031   .     S
O207   Zn227   1.993   .     S
O218   Zn228   1.993   .     S
O220   Zn227   2.001   .     S
O221   Zn228   2.001   .     S
O222   Zn227   1.959   .     S
O223   Zn228   1.959   .     S
O224   Zn227   1.951   .     S
O225   Zn228   1.951   .     S
C229   C232    1.421   .     S
C229   O283    1.288   .     A
C229   O297    1.289   .     A
C230   C232    1.406   .     A
C230   C241    1.481   .     S
C230   C407    1.393   1_455 S
C231   C255    1.405   .     A
C231   C256    1.407   .     A
C231   C240    1.417   .     S
C232   C254    1.401   .     A
C233   N282    1.376   .     A
C233   O291    1.382   .     S
C234   N281    1.370   .     A
C234   O292    1.384   .     S
C234   C463    1.449   .     S
C235   O293    1.395   .     S
C235   N282    1.374   .     A
C236   N281    1.370   .     A
C236   O295    1.386   .     S
C236   C461    1.434   .     S
C237   O284    1.397   .     S
C237   C254    1.483   .     S
C237   O302    1.220   .     D
C238   C255    1.488   .     S
C238   O285    1.222   .     D
C238   O286    1.397   .     S
C239   C256    1.489   .     S
C239   O287    1.220   .     D
C239   O288    1.399   .     S
C240   O296    1.287   .     A
C240   O294    1.288   .     A
C241   O289    1.223   .     D
C241   O290    1.394   .     S
C242   O291    1.423   .     S
C242   H277    1.110   .     S
C242   C243    1.521   .     S
C242   H276    1.101   .     S
C243   H278    1.104   .     S
C243   H963    1.109   .     S
C243   H964    1.109   .     S
C244   O292    1.419   .     S
C244   H258    1.113   .     S
C244   C245    1.521   .     S
C244   H259    1.110   .     S
C245   H261    1.101   .     S
C245   H262    1.109   .     S
C245   H1628   1.108   1_554 S
C246   H263    1.116   .     S
C246   O293    1.421   .     S
C246   H264    1.108   .     S
C246   C247    1.517   .     S
C247   H266    1.111   .     S
C247   H267    1.103   .     S
C247   H265    1.110   .     S
C248   O295    1.411   .     S
C248   H269    1.107   .     S
C248   H270    1.108   .     S
C248   C249    1.524   .     S
C249   H272    1.111   .     S
C249   H271    1.108   .     S
C249   H273    1.107   .     S
C250   C252    1.372   .     S
C250   O301    1.285   .     A
C250   O298    1.287   .     A
C251   C253    1.371   .     S
C251   O299    1.289   .     A
C251   O300    1.283   .     A
C252   C1621   1.169   1_554 S
C253   C936    1.169   .     S
C254   C408    1.391   1_455 S
C255   C306    1.393   .     S
C256   C330    1.391   .     S
H257   O284    1.014   .     S
H260   C929    1.108   .     S
H268   O286    1.013   .     S
H274   O288    1.011   .     S
H275   O290    1.007   .     S
H279   C1611   1.109   1_554 S
H280   C1611   1.109   1_554 S
N281   Zn303   2.031   .     S
N282   Zn304   2.031   .     S
O283   Zn303   1.993   .     S
O294   Zn304   1.993   .     S
O296   Zn303   2.001   .     S
O297   Zn304   2.001   .     S
O298   Zn303   1.959   .     S
O299   Zn304   1.959   .     S
O300   Zn303   1.951   .     S
O301   Zn304   1.951   .     S
C305   C308    1.421   .     S
C305   O359    1.288   .     A
C305   O373    1.289   .     A
C306   C308    1.406   .     A
C306   C317    1.481   .     S
C307   C331    1.405   .     A
C307   C332    1.407   .     A
C307   C316    1.417   .     S
C308   C330    1.401   .     A
C309   N358    1.376   .     A
C309   O367    1.382   .     S
C310   N357    1.370   .     A
C310   O368    1.384   .     S
C310   C539    1.449   .     S
C311   O369    1.395   .     S
C311   N358    1.374   .     A
C312   N357    1.370   .     A
C312   O371    1.386   .     S
C312   C537    1.434   .     S
C313   O360    1.397   .     S
C313   C330    1.483   .     S
C313   O378    1.220   .     D
C314   C331    1.488   .     S
C314   O361    1.222   .     D
C314   O362    1.397   .     S
C315   C332    1.489   .     S
C315   O363    1.220   .     D
C315   O364    1.399   .     S
C316   O372    1.287   .     A
C316   O370    1.288   .     A
C317   O365    1.223   .     D
C317   O366    1.394   .     S
C318   O367    1.423   .     S
C318   H353    1.110   .     S
C318   C319    1.521   .     S
C318   H352    1.101   .     S
C319   H354    1.104   .     S
C319   H1039   1.109   .     S
C319   H1040   1.109   .     S
C320   O368    1.419   .     S
C320   H334    1.113   .     S
C320   C321    1.521   .     S
C320   H335    1.110   .     S
C321   H337    1.101   .     S
C321   H338    1.109   .     S
C321   H1704   1.108   1_554 S
C322   H339    1.116   .     S
C322   O369    1.421   .     S
C322   H340    1.108   .     S
C322   C323    1.517   .     S
C323   H342    1.111   .     S
C323   H343    1.103   .     S
C323   H341    1.110   .     S
C324   O371    1.411   .     S
C324   H345    1.107   .     S
C324   H346    1.108   .     S
C324   C325    1.524   .     S
C325   H348    1.111   .     S
C325   H347    1.108   .     S
C325   H349    1.107   .     S
C326   C328    1.372   .     S
C326   O377    1.285   .     A
C326   O374    1.287   .     A
C327   C329    1.371   .     S
C327   O375    1.289   .     A
C327   O376    1.283   .     A
C328   C1697   1.169   1_554 S
C329   C1012   1.169   .     S
C331   C382    1.393   .     S
C332   C406    1.391   .     S
H333   O360    1.014   .     S
H336   C1005   1.108   .     S
H344   O362    1.013   .     S
H350   O364    1.011   .     S
H351   O366    1.007   .     S
H355   C1687   1.109   1_554 S
H356   C1687   1.109   1_554 S
N357   Zn379   2.031   .     S
N358   Zn380   2.031   .     S
O359   Zn379   1.993   .     S
O370   Zn380   1.993   .     S
O372   Zn379   2.001   .     S
O373   Zn380   2.001   .     S
O374   Zn379   1.959   .     S
O375   Zn380   1.959   .     S
O376   Zn379   1.951   .     S
O377   Zn380   1.951   .     S
C381   C384    1.421   .     S
C381   O435    1.288   .     A
C381   O449    1.289   .     A
C382   C384    1.406   .     A
C382   C393    1.481   .     S
C383   C407    1.405   .     A
C383   C408    1.407   .     A
C383   C392    1.417   .     S
C384   C406    1.401   .     A
C385   N434    1.376   .     A
C385   O443    1.382   .     S
C386   N433    1.370   .     A
C386   O444    1.384   .     S
C386   C615    1.449   .     S
C387   O445    1.395   .     S
C387   N434    1.374   .     A
C388   N433    1.370   .     A
C388   O447    1.386   .     S
C388   C613    1.434   .     S
C389   O436    1.397   .     S
C389   C406    1.483   .     S
C389   O454    1.220   .     D
C390   C407    1.488   .     S
C390   O437    1.222   .     D
C390   O438    1.397   .     S
C391   C408    1.489   .     S
C391   O439    1.220   .     D
C391   O440    1.399   .     S
C392   O448    1.287   .     A
C392   O446    1.288   .     A
C393   O441    1.223   .     D
C393   O442    1.394   .     S
C394   O443    1.423   .     S
C394   H429    1.110   .     S
C394   C395    1.521   .     S
C394   H428    1.101   .     S
C395   H430    1.104   .     S
C395   H1115   1.109   .     S
C395   H1116   1.109   .     S
C396   O444    1.419   .     S
C396   H410    1.113   .     S
C396   C397    1.521   .     S
C396   H411    1.110   .     S
C397   H413    1.101   .     S
C397   H414    1.109   .     S
C397   H1780   1.108   1_554 S
C398   H415    1.116   .     S
C398   O445    1.421   .     S
C398   H416    1.108   .     S
C398   C399    1.517   .     S
C399   H418    1.111   .     S
C399   H419    1.103   .     S
C399   H417    1.110   .     S
C400   O447    1.411   .     S
C400   H421    1.107   .     S
C400   H422    1.108   .     S
C400   C401    1.524   .     S
C401   H424    1.111   .     S
C401   H423    1.108   .     S
C401   H425    1.107   .     S
C402   C404    1.372   .     S
C402   O453    1.285   .     A
C402   O450    1.287   .     A
C403   C405    1.371   .     S
C403   O451    1.289   .     A
C403   O452    1.283   .     A
C404   C1773   1.169   1_554 S
C405   C1088   1.169   .     S
C407   C230    1.393   1_655 S
C408   C254    1.391   1_655 S
H409   O436    1.014   .     S
H412   C1081   1.108   .     S
H420   O438    1.013   .     S
H426   O440    1.011   .     S
H427   O442    1.007   .     S
H431   C1763   1.109   1_554 S
H432   C1763   1.109   1_554 S
N433   Zn455   2.031   .     S
N434   Zn456   2.031   .     S
O435   Zn455   1.993   .     S
O446   Zn456   1.993   .     S
O448   Zn455   2.001   .     S
O449   Zn456   2.001   .     S
O450   Zn455   1.959   .     S
O451   Zn456   1.959   .     S
O452   Zn455   1.951   .     S
O453   Zn456   1.951   .     S
C457   C460    1.421   .     S
C457   O511    1.288   .     A
C457   O525    1.289   .     A
C458   C460    1.406   .     A
C458   C469    1.481   .     S
C458   C635    1.393   1_455 S
C459   C483    1.405   .     A
C459   C484    1.407   .     A
C459   C468    1.417   .     S
C460   C482    1.401   .     A
C461   N510    1.376   .     A
C461   O519    1.382   .     S
C462   N509    1.370   .     A
C462   O520    1.384   .     S
C462   C7      1.449   1_565 S
C463   O521    1.395   .     S
C463   N510    1.374   .     A
C464   N509    1.370   .     A
C464   O523    1.386   .     S
C464   C5      1.434   1_565 S
C465   O512    1.397   .     S
C465   C482    1.483   .     S
C465   O530    1.220   .     D
C466   C483    1.488   .     S
C466   O513    1.222   .     D
C466   O514    1.397   .     S
C467   C484    1.489   .     S
C467   O515    1.220   .     D
C467   O516    1.399   .     S
C468   O524    1.287   .     A
C468   O522    1.288   .     A
C469   O517    1.223   .     D
C469   O518    1.394   .     S
C470   O519    1.423   .     S
C470   H505    1.110   .     S
C470   C471    1.521   .     S
C470   H504    1.101   .     S
C471   H506    1.104   .     S
C471   H1191   1.109   .     S
C471   H1192   1.109   .     S
C472   O520    1.419   .     S
C472   H486    1.113   .     S
C472   C473    1.521   .     S
C472   H487    1.110   .     S
C473   H489    1.101   .     S
C473   H490    1.109   .     S
C473   H1856   1.108   1_554 S
C474   H491    1.116   .     S
C474   O521    1.421   .     S
C474   H492    1.108   .     S
C474   C475    1.517   .     S
C475   H494    1.111   .     S
C475   H495    1.103   .     S
C475   H493    1.110   .     S
C476   O523    1.411   .     S
C476   H497    1.107   .     S
C476   H498    1.108   .     S
C476   C477    1.524   .     S
C477   H500    1.111   .     S
C477   H499    1.108   .     S
C477   H501    1.107   .     S
C478   C480    1.372   .     S
C478   O529    1.285   .     A
C478   O526    1.287   .     A
C479   C481    1.371   .     S
C479   O527    1.289   .     A
C479   O528    1.283   .     A
C480   C1849   1.169   1_554 S
C481   C1164   1.169   .     S
C482   C636    1.391   1_455 S
C483   C534    1.393   .     S
C484   C558    1.391   .     S
H485   O512    1.014   .     S
H488   C1157   1.108   .     S
H496   O514    1.013   .     S
H502   O516    1.011   .     S
H503   O518    1.007   .     S
H507   C1839   1.109   1_554 S
H508   C1839   1.109   1_554 S
N509   Zn531   2.031   .     S
N510   Zn532   2.031   .     S
O511   Zn531   1.993   .     S
O522   Zn532   1.993   .     S
O524   Zn531   2.001   .     S
O525   Zn532   2.001   .     S
O526   Zn531   1.959   .     S
O527   Zn532   1.959   .     S
O528   Zn531   1.951   .     S
O529   Zn532   1.951   .     S
C533   C536    1.421   .     S
C533   O587    1.288   .     A
C533   O601    1.289   .     A
C534   C536    1.406   .     A
C534   C545    1.481   .     S
C535   C559    1.405   .     A
C535   C560    1.407   .     A
C535   C544    1.417   .     S
C536   C558    1.401   .     A
C537   N586    1.376   .     A
C537   O595    1.382   .     S
C538   N585    1.370   .     A
C538   O596    1.384   .     S
C538   C83     1.449   1_565 S
C539   O597    1.395   .     S
C539   N586    1.374   .     A
C540   N585    1.370   .     A
C540   O599    1.386   .     S
C540   C81     1.434   1_565 S
C541   O588    1.397   .     S
C541   C558    1.483   .     S
C541   O606    1.220   .     D
C542   C559    1.488   .     S
C542   O589    1.222   .     D
C542   O590    1.397   .     S
C543   C560    1.489   .     S
C543   O591    1.220   .     D
C543   O592    1.399   .     S
C544   O600    1.287   .     A
C544   O598    1.288   .     A
C545   O593    1.223   .     D
C545   O594    1.394   .     S
C546   O595    1.423   .     S
C546   H581    1.110   .     S
C546   C547    1.521   .     S
C546   H580    1.101   .     S
C547   H582    1.104   .     S
C547   H1267   1.109   .     S
C547   H1268   1.109   .     S
C548   O596    1.419   .     S
C548   H562    1.113   .     S
C548   C549    1.521   .     S
C548   H563    1.110   .     S
C549   H565    1.101   .     S
C549   H566    1.109   .     S
C549   H1932   1.108   1_554 S
C550   H567    1.116   .     S
C550   O597    1.421   .     S
C550   H568    1.108   .     S
C550   C551    1.517   .     S
C551   H570    1.111   .     S
C551   H571    1.103   .     S
C551   H569    1.110   .     S
C552   O599    1.411   .     S
C552   H573    1.107   .     S
C552   H574    1.108   .     S
C552   C553    1.524   .     S
C553   H576    1.111   .     S
C553   H575    1.108   .     S
C553   H577    1.107   .     S
C554   C556    1.372   .     S
C554   O605    1.285   .     A
C554   O602    1.287   .     A
C555   C557    1.371   .     S
C555   O603    1.289   .     A
C555   O604    1.283   .     A
C556   C1925   1.169   1_554 S
C557   C1240   1.169   .     S
C559   C610    1.393   .     S
C560   C634    1.391   .     S
H561   O588    1.014   .     S
H564   C1233   1.108   .     S
H572   O590    1.013   .     S
H578   O592    1.011   .     S
H579   O594    1.007   .     S
H583   C1915   1.109   1_554 S
H584   C1915   1.109   1_554 S
N585   Zn607   2.031   .     S
N586   Zn608   2.031   .     S
O587   Zn607   1.993   .     S
O598   Zn608   1.993   .     S
O600   Zn607   2.001   .     S
O601   Zn608   2.001   .     S
O602   Zn607   1.959   .     S
O603   Zn608   1.959   .     S
O604   Zn607   1.951   .     S
O605   Zn608   1.951   .     S
C609   C612    1.421   .     S
C609   O663    1.288   .     A
C609   O677    1.289   .     A
C610   C612    1.406   .     A
C610   C621    1.481   .     S
C611   C635    1.405   .     A
C611   C636    1.407   .     A
C611   C620    1.417   .     S
C612   C634    1.401   .     A
C613   N662    1.376   .     A
C613   O671    1.382   .     S
C614   N661    1.370   .     A
C614   O672    1.384   .     S
C614   C159    1.449   1_565 S
C615   O673    1.395   .     S
C615   N662    1.374   .     A
C616   N661    1.370   .     A
C616   O675    1.386   .     S
C616   C157    1.434   1_565 S
C617   O664    1.397   .     S
C617   C634    1.483   .     S
C617   O682    1.220   .     D
C618   C635    1.488   .     S
C618   O665    1.222   .     D
C618   O666    1.397   .     S
C619   C636    1.489   .     S
C619   O667    1.220   .     D
C619   O668    1.399   .     S
C620   O676    1.287   .     A
C620   O674    1.288   .     A
C621   O669    1.223   .     D
C621   O670    1.394   .     S
C622   O671    1.423   .     S
C622   H657    1.110   .     S
C622   C623    1.521   .     S
C622   H656    1.101   .     S
C623   H658    1.104   .     S
C623   H1343   1.109   .     S
C623   H1344   1.109   .     S
C624   O672    1.419   .     S
C624   H638    1.113   .     S
C624   C625    1.521   .     S
C624   H639    1.110   .     S
C625   H641    1.101   .     S
C625   H642    1.109   .     S
C625   H2008   1.108   1_554 S
C626   H643    1.116   .     S
C626   O673    1.421   .     S
C626   H644    1.108   .     S
C626   C627    1.517   .     S
C627   H646    1.111   .     S
C627   H647    1.103   .     S
C627   H645    1.110   .     S
C628   O675    1.411   .     S
C628   H649    1.107   .     S
C628   H650    1.108   .     S
C628   C629    1.524   .     S
C629   H652    1.111   .     S
C629   H651    1.108   .     S
C629   H653    1.107   .     S
C630   C632    1.372   .     S
C630   O681    1.285   .     A
C630   O678    1.287   .     A
C631   C633    1.371   .     S
C631   O679    1.289   .     A
C631   O680    1.283   .     A
C632   C2001   1.169   1_554 S
C633   C1316   1.169   .     S
C635   C458    1.393   1_655 S
C636   C482    1.391   1_655 S
H637   O664    1.014   .     S
H640   C1309   1.108   .     S
H648   O666    1.013   .     S
H654   O668    1.011   .     S
H655   O670    1.007   .     S
H659   C1991   1.109   1_554 S
H660   C1991   1.109   1_554 S
N661   Zn683   2.031   .     S
N662   Zn684   2.031   .     S
O663   Zn683   1.993   .     S
O674   Zn684   1.993   .     S
O676   Zn683   2.001   .     S
O677   Zn684   2.001   .     S
O678   Zn683   1.959   .     S
O679   Zn684   1.959   .     S
O680   Zn683   1.951   .     S
O681   Zn684   1.951   .     S
C685   C688    1.421   .     S
C685   O739    1.288   .     A
C685   O753    1.289   .     A
C686   C688    1.406   .     A
C686   C697    1.481   .     S
C686   C863    1.393   1_455 S
C687   C711    1.405   .     A
C687   C712    1.407   .     A
C687   C696    1.417   .     S
C688   C710    1.401   .     A
C689   N738    1.376   .     A
C689   O747    1.382   .     S
C689   C1148   1.434   1_545 S
C690   N737    1.370   .     A
C690   O748    1.384   .     S
C690   C919    1.449   .     S
C691   O749    1.395   .     S
C691   N738    1.374   .     A
C691   C1146   1.449   1_545 S
C692   N737    1.370   .     A
C692   O751    1.386   .     S
C692   C917    1.434   .     S
C693   O740    1.397   .     S
C693   C710    1.483   .     S
C693   O758    1.220   .     D
C694   C711    1.488   .     S
C694   O741    1.222   .     D
C694   O742    1.397   .     S
C695   C712    1.489   .     S
C695   O743    1.220   .     D
C695   O744    1.399   .     S
C696   O752    1.287   .     A
C696   O750    1.288   .     A
C697   O745    1.223   .     D
C697   O746    1.394   .     S
C698   O747    1.423   .     S
C698   H733    1.110   .     S
C698   C699    1.521   .     S
C698   H732    1.101   .     S
C699   H734    1.104   .     S
C699   H1419   1.109   .     S
C699   H1420   1.109   .     S
C700   O748    1.419   .     S
C700   H714    1.113   .     S
C700   C701    1.521   .     S
C700   H715    1.110   .     S
C701   H717    1.101   .     S
C701   H718    1.109   .     S
C702   H719    1.116   .     S
C702   O749    1.421   .     S
C702   H720    1.108   .     S
C702   C703    1.517   .     S
C703   H722    1.111   .     S
C703   H723    1.103   .     S
C703   H721    1.110   .     S
C704   O751    1.411   .     S
C704   H725    1.107   .     S
C704   H726    1.108   .     S
C704   C705    1.524   .     S
C705   H728    1.111   .     S
C705   H727    1.108   .     S
C705   H729    1.107   .     S
C706   C708    1.372   .     S
C706   O757    1.285   .     A
C706   O754    1.287   .     A
C707   C709    1.371   .     S
C707   O755    1.289   .     A
C707   O756    1.283   .     A
C709   C1392   1.169   .     S
C710   C864    1.391   1_455 S
C711   C762    1.393   .     S
C712   C786    1.391   .     S
H713   O740    1.014   .     S
H716   C1385   1.108   .     S
H724   O742    1.013   .     S
H730   O744    1.011   .     S
H731   O746    1.007   .     S
N737   Zn759   2.031   .     S
N738   Zn760   2.031   .     S
O739   Zn759   1.993   .     S
O750   Zn760   1.993   .     S
O752   Zn759   2.001   .     S
O753   Zn760   2.001   .     S
O754   Zn759   1.959   .     S
O755   Zn760   1.959   .     S
O756   Zn759   1.951   .     S
O757   Zn760   1.951   .     S
C761   C764    1.421   .     S
C761   O815    1.288   .     A
C761   O829    1.289   .     A
C762   C764    1.406   .     A
C762   C773    1.481   .     S
C763   C787    1.405   .     A
C763   C788    1.407   .     A
C763   C772    1.417   .     S
C764   C786    1.401   .     A
C765   N814    1.376   .     A
C765   O823    1.382   .     S
C765   C1224   1.434   1_545 S
C766   N813    1.370   .     A
C766   O824    1.384   .     S
C766   C995    1.449   .     S
C767   O825    1.395   .     S
C767   N814    1.374   .     A
C767   C1222   1.449   1_545 S
C768   N813    1.370   .     A
C768   O827    1.386   .     S
C768   C993    1.434   .     S
C769   O816    1.397   .     S
C769   C786    1.483   .     S
C769   O834    1.220   .     D
C770   C787    1.488   .     S
C770   O817    1.222   .     D
C770   O818    1.397   .     S
C771   C788    1.489   .     S
C771   O819    1.220   .     D
C771   O820    1.399   .     S
C772   O828    1.287   .     A
C772   O826    1.288   .     A
C773   O821    1.223   .     D
C773   O822    1.394   .     S
C774   O823    1.423   .     S
C774   H809    1.110   .     S
C774   C775    1.521   .     S
C774   H808    1.101   .     S
C775   H810    1.104   .     S
C775   H1495   1.109   .     S
C775   H1496   1.109   .     S
C776   O824    1.419   .     S
C776   H790    1.113   .     S
C776   C777    1.521   .     S
C776   H791    1.110   .     S
C777   H793    1.101   .     S
C777   H794    1.109   .     S
C778   H795    1.116   .     S
C778   O825    1.421   .     S
C778   H796    1.108   .     S
C778   C779    1.517   .     S
C779   H798    1.111   .     S
C779   H799    1.103   .     S
C779   H797    1.110   .     S
C780   O827    1.411   .     S
C780   H801    1.107   .     S
C780   H802    1.108   .     S
C780   C781    1.524   .     S
C781   H804    1.111   .     S
C781   H803    1.108   .     S
C781   H805    1.107   .     S
C782   C784    1.372   .     S
C782   O833    1.285   .     A
C782   O830    1.287   .     A
C783   C785    1.371   .     S
C783   O831    1.289   .     A
C783   O832    1.283   .     A
C785   C1468   1.169   .     S
C787   C838    1.393   .     S
C788   C862    1.391   .     S
H789   O816    1.014   .     S
H792   C1461   1.108   .     S
H800   O818    1.013   .     S
H806   O820    1.011   .     S
H807   O822    1.007   .     S
N813   Zn835   2.031   .     S
N814   Zn836   2.031   .     S
O815   Zn835   1.993   .     S
O826   Zn836   1.993   .     S
O828   Zn835   2.001   .     S
O829   Zn836   2.001   .     S
O830   Zn835   1.959   .     S
O831   Zn836   1.959   .     S
O832   Zn835   1.951   .     S
O833   Zn836   1.951   .     S
C837   C840    1.421   .     S
C837   O891    1.288   .     A
C837   O905    1.289   .     A
C838   C840    1.406   .     A
C838   C849    1.481   .     S
C839   C863    1.405   .     A
C839   C864    1.407   .     A
C839   C848    1.417   .     S
C840   C862    1.401   .     A
C841   N890    1.376   .     A
C841   O899    1.382   .     S
C841   C1300   1.434   1_545 S
C842   N889    1.370   .     A
C842   O900    1.384   .     S
C842   C1071   1.449   .     S
C843   O901    1.395   .     S
C843   N890    1.374   .     A
C843   C1298   1.449   1_545 S
C844   N889    1.370   .     A
C844   O903    1.386   .     S
C844   C1069   1.434   .     S
C845   O892    1.397   .     S
C845   C862    1.483   .     S
C845   O910    1.220   .     D
C846   C863    1.488   .     S
C846   O893    1.222   .     D
C846   O894    1.397   .     S
C847   C864    1.489   .     S
C847   O895    1.220   .     D
C847   O896    1.399   .     S
C848   O904    1.287   .     A
C848   O902    1.288   .     A
C849   O897    1.223   .     D
C849   O898    1.394   .     S
C850   O899    1.423   .     S
C850   H885    1.110   .     S
C850   C851    1.521   .     S
C850   H884    1.101   .     S
C851   H886    1.104   .     S
C851   H1571   1.109   .     S
C851   H1572   1.109   .     S
C852   O900    1.419   .     S
C852   H866    1.113   .     S
C852   C853    1.521   .     S
C852   H867    1.110   .     S
C853   H869    1.101   .     S
C853   H870    1.109   .     S
C854   H871    1.116   .     S
C854   O901    1.421   .     S
C854   H872    1.108   .     S
C854   C855    1.517   .     S
C855   H874    1.111   .     S
C855   H875    1.103   .     S
C855   H873    1.110   .     S
C856   O903    1.411   .     S
C856   H877    1.107   .     S
C856   H878    1.108   .     S
C856   C857    1.524   .     S
C857   H880    1.111   .     S
C857   H879    1.108   .     S
C857   H881    1.107   .     S
C858   C860    1.372   .     S
C858   O909    1.285   .     A
C858   O906    1.287   .     A
C859   C861    1.371   .     S
C859   O907    1.289   .     A
C859   O908    1.283   .     A
C861   C1544   1.169   .     S
C863   C686    1.393   1_655 S
C864   C710    1.391   1_655 S
H865   O892    1.014   .     S
H868   C1537   1.108   .     S
H876   O894    1.013   .     S
H882   O896    1.011   .     S
H883   O898    1.007   .     S
N889   Zn911   2.031   .     S
N890   Zn912   2.031   .     S
O891   Zn911   1.993   .     S
O902   Zn912   1.993   .     S
O904   Zn911   2.001   .     S
O905   Zn912   2.001   .     S
O906   Zn911   1.959   .     S
O907   Zn912   1.959   .     S
O908   Zn911   1.951   .     S
O909   Zn912   1.951   .     S
C913   C916    1.421   .     S
C913   O967    1.288   .     A
C913   O981    1.289   .     A
C914   C916    1.406   .     A
C914   C925    1.481   .     S
C914   C1091   1.393   1_455 S
C915   C939    1.405   .     A
C915   C940    1.407   .     A
C915   C924    1.417   .     S
C916   C938    1.401   .     A
C917   N966    1.376   .     A
C917   O975    1.382   .     S
C918   N965    1.370   .     A
C918   O976    1.384   .     S
C918   C1147   1.449   .     S
C919   O977    1.395   .     S
C919   N966    1.374   .     A
C920   N965    1.370   .     A
C920   O979    1.386   .     S
C920   C1145   1.434   .     S
C921   O968    1.397   .     S
C921   C938    1.483   .     S
C921   O986    1.220   .     D
C922   C939    1.488   .     S
C922   O969    1.222   .     D
C922   O970    1.397   .     S
C923   C940    1.489   .     S
C923   O971    1.220   .     D
C923   O972    1.399   .     S
C924   O980    1.287   .     A
C924   O978    1.288   .     A
C925   O973    1.223   .     D
C925   O974    1.394   .     S
C926   O975    1.423   .     S
C926   H961    1.110   .     S
C926   C927    1.521   .     S
C926   H960    1.101   .     S
C927   H962    1.104   .     S
C927   H1647   1.109   .     S
C927   H1648   1.109   .     S
C928   O976    1.419   .     S
C928   H942    1.113   .     S
C928   C929    1.521   .     S
C928   H943    1.110   .     S
C929   H945    1.101   .     S
C929   H946    1.109   .     S
C930   H947    1.116   .     S
C930   O977    1.421   .     S
C930   H948    1.108   .     S
C930   C931    1.517   .     S
C931   H950    1.111   .     S
C931   H951    1.103   .     S
C931   H949    1.110   .     S
C932   O979    1.411   .     S
C932   H953    1.107   .     S
C932   H954    1.108   .     S
C932   C933    1.524   .     S
C933   H956    1.111   .     S
C933   H955    1.108   .     S
C933   H957    1.107   .     S
C934   C936    1.372   .     S
C934   O985    1.285   .     A
C934   O982    1.287   .     A
C935   C937    1.371   .     S
C935   O983    1.289   .     A
C935   O984    1.283   .     A
C937   C1620   1.169   .     S
C938   C1092   1.391   1_455 S
C939   C990    1.393   .     S
C940   C1014   1.391   .     S
H941   O968    1.014   .     S
H944   C1613   1.108   .     S
H952   O970    1.013   .     S
H958   O972    1.011   .     S
H959   O974    1.007   .     S
N965   Zn987   2.031   .     S
N966   Zn988   2.031   .     S
O967   Zn987   1.993   .     S
O978   Zn988   1.993   .     S
O980   Zn987   2.001   .     S
O981   Zn988   2.001   .     S
O982   Zn987   1.959   .     S
O983   Zn988   1.959   .     S
O984   Zn987   1.951   .     S
O985   Zn988   1.951   .     S
C989   C992    1.421   .     S
C989   O1043   1.288   .     A
C989   O1057   1.289   .     A
C990   C992    1.406   .     A
C990   C1001   1.481   .     S
C991   C1015   1.405   .     A
C991   C1016   1.407   .     A
C991   C1000   1.417   .     S
C992   C1014   1.401   .     A
C993   N1042   1.376   .     A
C993   O1051   1.382   .     S
C994   N1041   1.370   .     A
C994   O1052   1.384   .     S
C994   C1223   1.449   .     S
C995   O1053   1.395   .     S
C995   N1042   1.374   .     A
C996   N1041   1.370   .     A
C996   O1055   1.386   .     S
C996   C1221   1.434   .     S
C997   O1044   1.397   .     S
C997   C1014   1.483   .     S
C997   O1062   1.220   .     D
C998   C1015   1.488   .     S
C998   O1045   1.222   .     D
C998   O1046   1.397   .     S
C999   C1016   1.489   .     S
C999   O1047   1.220   .     D
C999   O1048   1.399   .     S
C1000  O1056   1.287   .     A
C1000  O1054   1.288   .     A
C1001  O1049   1.223   .     D
C1001  O1050   1.394   .     S
C1002  O1051   1.423   .     S
C1002  H1037   1.110   .     S
C1002  C1003   1.521   .     S
C1002  H1036   1.101   .     S
C1003  H1038   1.104   .     S
C1003  H1723   1.109   .     S
C1003  H1724   1.109   .     S
C1004  O1052   1.419   .     S
C1004  H1018   1.113   .     S
C1004  C1005   1.521   .     S
C1004  H1019   1.110   .     S
C1005  H1021   1.101   .     S
C1005  H1022   1.109   .     S
C1006  H1023   1.116   .     S
C1006  O1053   1.421   .     S
C1006  H1024   1.108   .     S
C1006  C1007   1.517   .     S
C1007  H1026   1.111   .     S
C1007  H1027   1.103   .     S
C1007  H1025   1.110   .     S
C1008  O1055   1.411   .     S
C1008  H1029   1.107   .     S
C1008  H1030   1.108   .     S
C1008  C1009   1.524   .     S
C1009  H1032   1.111   .     S
C1009  H1031   1.108   .     S
C1009  H1033   1.107   .     S
C1010  C1012   1.372   .     S
C1010  O1061   1.285   .     A
C1010  O1058   1.287   .     A
C1011  C1013   1.371   .     S
C1011  O1059   1.289   .     A
C1011  O1060   1.283   .     A
C1013  C1696   1.169   .     S
C1015  C1066   1.393   .     S
C1016  C1090   1.391   .     S
H1017  O1044   1.014   .     S
H1020  C1689   1.108   .     S
H1028  O1046   1.013   .     S
H1034  O1048   1.011   .     S
H1035  O1050   1.007   .     S
N1041  Zn1063  2.031   .     S
N1042  Zn1064  2.031   .     S
O1043  Zn1063  1.993   .     S
O1054  Zn1064  1.993   .     S
O1056  Zn1063  2.001   .     S
O1057  Zn1064  2.001   .     S
O1058  Zn1063  1.959   .     S
O1059  Zn1064  1.959   .     S
O1060  Zn1063  1.951   .     S
O1061  Zn1064  1.951   .     S
C1065  C1068   1.421   .     S
C1065  O1119   1.288   .     A
C1065  O1133   1.289   .     A
C1066  C1068   1.406   .     A
C1066  C1077   1.481   .     S
C1067  C1091   1.405   .     A
C1067  C1092   1.407   .     A
C1067  C1076   1.417   .     S
C1068  C1090   1.401   .     A
C1069  N1118   1.376   .     A
C1069  O1127   1.382   .     S
C1070  N1117   1.370   .     A
C1070  O1128   1.384   .     S
C1070  C1299   1.449   .     S
C1071  O1129   1.395   .     S
C1071  N1118   1.374   .     A
C1072  N1117   1.370   .     A
C1072  O1131   1.386   .     S
C1072  C1297   1.434   .     S
C1073  O1120   1.397   .     S
C1073  C1090   1.483   .     S
C1073  O1138   1.220   .     D
C1074  C1091   1.488   .     S
C1074  O1121   1.222   .     D
C1074  O1122   1.397   .     S
C1075  C1092   1.489   .     S
C1075  O1123   1.220   .     D
C1075  O1124   1.399   .     S
C1076  O1132   1.287   .     A
C1076  O1130   1.288   .     A
C1077  O1125   1.223   .     D
C1077  O1126   1.394   .     S
C1078  O1127   1.423   .     S
C1078  H1113   1.110   .     S
C1078  C1079   1.521   .     S
C1078  H1112   1.101   .     S
C1079  H1114   1.104   .     S
C1079  H1799   1.109   .     S
C1079  H1800   1.109   .     S
C1080  O1128   1.419   .     S
C1080  H1094   1.113   .     S
C1080  C1081   1.521   .     S
C1080  H1095   1.110   .     S
C1081  H1097   1.101   .     S
C1081  H1098   1.109   .     S
C1082  H1099   1.116   .     S
C1082  O1129   1.421   .     S
C1082  H1100   1.108   .     S
C1082  C1083   1.517   .     S
C1083  H1102   1.111   .     S
C1083  H1103   1.103   .     S
C1083  H1101   1.110   .     S
C1084  O1131   1.411   .     S
C1084  H1105   1.107   .     S
C1084  H1106   1.108   .     S
C1084  C1085   1.524   .     S
C1085  H1108   1.111   .     S
C1085  H1107   1.108   .     S
C1085  H1109   1.107   .     S
C1086  C1088   1.372   .     S
C1086  O1137   1.285   .     A
C1086  O1134   1.287   .     A
C1087  C1089   1.371   .     S
C1087  O1135   1.289   .     A
C1087  O1136   1.283   .     A
C1089  C1772   1.169   .     S
C1091  C914    1.393   1_655 S
C1092  C938    1.391   1_655 S
H1093  O1120   1.014   .     S
H1096  C1765   1.108   .     S
H1104  O1122   1.013   .     S
H1110  O1124   1.011   .     S
H1111  O1126   1.007   .     S
N1117  Zn1139  2.031   .     S
N1118  Zn1140  2.031   .     S
O1119  Zn1139  1.993   .     S
O1130  Zn1140  1.993   .     S
O1132  Zn1139  2.001   .     S
O1133  Zn1140  2.001   .     S
O1134  Zn1139  1.959   .     S
O1135  Zn1140  1.959   .     S
O1136  Zn1139  1.951   .     S
O1137  Zn1140  1.951   .     S
C1141  C1144   1.421   .     S
C1141  O1195   1.288   .     A
C1141  O1209   1.289   .     A
C1142  C1144   1.406   .     A
C1142  C1153   1.481   .     S
C1142  C1319   1.393   1_455 S
C1143  C1167   1.405   .     A
C1143  C1168   1.407   .     A
C1143  C1152   1.417   .     S
C1144  C1166   1.401   .     A
C1145  N1194   1.376   .     A
C1145  O1203   1.382   .     S
C1146  N1193   1.370   .     A
C1146  O1204   1.384   .     S
C1146  C691    1.449   1_565 S
C1147  O1205   1.395   .     S
C1147  N1194   1.374   .     A
C1148  N1193   1.370   .     A
C1148  O1207   1.386   .     S
C1148  C689    1.434   1_565 S
C1149  O1196   1.397   .     S
C1149  C1166   1.483   .     S
C1149  O1214   1.220   .     D
C1150  C1167   1.488   .     S
C1150  O1197   1.222   .     D
C1150  O1198   1.397   .     S
C1151  C1168   1.489   .     S
C1151  O1199   1.220   .     D
C1151  O1200   1.399   .     S
C1152  O1208   1.287   .     A
C1152  O1206   1.288   .     A
C1153  O1201   1.223   .     D
C1153  O1202   1.394   .     S
C1154  O1203   1.423   .     S
C1154  H1189   1.110   .     S
C1154  C1155   1.521   .     S
C1154  H1188   1.101   .     S
C1155  H1190   1.104   .     S
C1155  H1875   1.109   .     S
C1155  H1876   1.109   .     S
C1156  O1204   1.419   .     S
C1156  H1170   1.113   .     S
C1156  C1157   1.521   .     S
C1156  H1171   1.110   .     S
C1157  H1173   1.101   .     S
C1157  H1174   1.109   .     S
C1158  H1175   1.116   .     S
C1158  O1205   1.421   .     S
C1158  H1176   1.108   .     S
C1158  C1159   1.517   .     S
C1159  H1178   1.111   .     S
C1159  H1179   1.103   .     S
C1159  H1177   1.110   .     S
C1160  O1207   1.411   .     S
C1160  H1181   1.107   .     S
C1160  H1182   1.108   .     S
C1160  C1161   1.524   .     S
C1161  H1184   1.111   .     S
C1161  H1183   1.108   .     S
C1161  H1185   1.107   .     S
C1162  C1164   1.372   .     S
C1162  O1213   1.285   .     A
C1162  O1210   1.287   .     A
C1163  C1165   1.371   .     S
C1163  O1211   1.289   .     A
C1163  O1212   1.283   .     A
C1165  C1848   1.169   .     S
C1166  C1320   1.391   1_455 S
C1167  C1218   1.393   .     S
C1168  C1242   1.391   .     S
H1169  O1196   1.014   .     S
H1172  C1841   1.108   .     S
H1180  O1198   1.013   .     S
H1186  O1200   1.011   .     S
H1187  O1202   1.007   .     S
N1193  Zn1215  2.031   .     S
N1194  Zn1216  2.031   .     S
O1195  Zn1215  1.993   .     S
O1206  Zn1216  1.993   .     S
O1208  Zn1215  2.001   .     S
O1209  Zn1216  2.001   .     S
O1210  Zn1215  1.959   .     S
O1211  Zn1216  1.959   .     S
O1212  Zn1215  1.951   .     S
O1213  Zn1216  1.951   .     S
C1217  C1220   1.421   .     S
C1217  O1271   1.288   .     A
C1217  O1285   1.289   .     A
C1218  C1220   1.406   .     A
C1218  C1229   1.481   .     S
C1219  C1243   1.405   .     A
C1219  C1244   1.407   .     A
C1219  C1228   1.417   .     S
C1220  C1242   1.401   .     A
C1221  N1270   1.376   .     A
C1221  O1279   1.382   .     S
C1222  N1269   1.370   .     A
C1222  O1280   1.384   .     S
C1222  C767    1.449   1_565 S
C1223  O1281   1.395   .     S
C1223  N1270   1.374   .     A
C1224  N1269   1.370   .     A
C1224  O1283   1.386   .     S
C1224  C765    1.434   1_565 S
C1225  O1272   1.397   .     S
C1225  C1242   1.483   .     S
C1225  O1290   1.220   .     D
C1226  C1243   1.488   .     S
C1226  O1273   1.222   .     D
C1226  O1274   1.397   .     S
C1227  C1244   1.489   .     S
C1227  O1275   1.220   .     D
C1227  O1276   1.399   .     S
C1228  O1284   1.287   .     A
C1228  O1282   1.288   .     A
C1229  O1277   1.223   .     D
C1229  O1278   1.394   .     S
C1230  O1279   1.423   .     S
C1230  H1265   1.110   .     S
C1230  C1231   1.521   .     S
C1230  H1264   1.101   .     S
C1231  H1266   1.104   .     S
C1231  H1951   1.109   .     S
C1231  H1952   1.109   .     S
C1232  O1280   1.419   .     S
C1232  H1246   1.113   .     S
C1232  C1233   1.521   .     S
C1232  H1247   1.110   .     S
C1233  H1249   1.101   .     S
C1233  H1250   1.109   .     S
C1234  H1251   1.116   .     S
C1234  O1281   1.421   .     S
C1234  H1252   1.108   .     S
C1234  C1235   1.517   .     S
C1235  H1254   1.111   .     S
C1235  H1255   1.103   .     S
C1235  H1253   1.110   .     S
C1236  O1283   1.411   .     S
C1236  H1257   1.107   .     S
C1236  H1258   1.108   .     S
C1236  C1237   1.524   .     S
C1237  H1260   1.111   .     S
C1237  H1259   1.108   .     S
C1237  H1261   1.107   .     S
C1238  C1240   1.372   .     S
C1238  O1289   1.285   .     A
C1238  O1286   1.287   .     A
C1239  C1241   1.371   .     S
C1239  O1287   1.289   .     A
C1239  O1288   1.283   .     A
C1241  C1924   1.169   .     S
C1243  C1294   1.393   .     S
C1244  C1318   1.391   .     S
H1245  O1272   1.014   .     S
H1248  C1917   1.108   .     S
H1256  O1274   1.013   .     S
H1262  O1276   1.011   .     S
H1263  O1278   1.007   .     S
N1269  Zn1291  2.031   .     S
N1270  Zn1292  2.031   .     S
O1271  Zn1291  1.993   .     S
O1282  Zn1292  1.993   .     S
O1284  Zn1291  2.001   .     S
O1285  Zn1292  2.001   .     S
O1286  Zn1291  1.959   .     S
O1287  Zn1292  1.959   .     S
O1288  Zn1291  1.951   .     S
O1289  Zn1292  1.951   .     S
C1293  C1296   1.421   .     S
C1293  O1347   1.288   .     A
C1293  O1361   1.289   .     A
C1294  C1296   1.406   .     A
C1294  C1305   1.481   .     S
C1295  C1319   1.405   .     A
C1295  C1320   1.407   .     A
C1295  C1304   1.417   .     S
C1296  C1318   1.401   .     A
C1297  N1346   1.376   .     A
C1297  O1355   1.382   .     S
C1298  N1345   1.370   .     A
C1298  O1356   1.384   .     S
C1298  C843    1.449   1_565 S
C1299  O1357   1.395   .     S
C1299  N1346   1.374   .     A
C1300  N1345   1.370   .     A
C1300  O1359   1.386   .     S
C1300  C841    1.434   1_565 S
C1301  O1348   1.397   .     S
C1301  C1318   1.483   .     S
C1301  O1366   1.220   .     D
C1302  C1319   1.488   .     S
C1302  O1349   1.222   .     D
C1302  O1350   1.397   .     S
C1303  C1320   1.489   .     S
C1303  O1351   1.220   .     D
C1303  O1352   1.399   .     S
C1304  O1360   1.287   .     A
C1304  O1358   1.288   .     A
C1305  O1353   1.223   .     D
C1305  O1354   1.394   .     S
C1306  O1355   1.423   .     S
C1306  H1341   1.110   .     S
C1306  C1307   1.521   .     S
C1306  H1340   1.101   .     S
C1307  H1342   1.104   .     S
C1307  H2027   1.109   .     S
C1307  H2028   1.109   .     S
C1308  O1356   1.419   .     S
C1308  H1322   1.113   .     S
C1308  C1309   1.521   .     S
C1308  H1323   1.110   .     S
C1309  H1325   1.101   .     S
C1309  H1326   1.109   .     S
C1310  H1327   1.116   .     S
C1310  O1357   1.421   .     S
C1310  H1328   1.108   .     S
C1310  C1311   1.517   .     S
C1311  H1330   1.111   .     S
C1311  H1331   1.103   .     S
C1311  H1329   1.110   .     S
C1312  O1359   1.411   .     S
C1312  H1333   1.107   .     S
C1312  H1334   1.108   .     S
C1312  C1313   1.524   .     S
C1313  H1336   1.111   .     S
C1313  H1335   1.108   .     S
C1313  H1337   1.107   .     S
C1314  C1316   1.372   .     S
C1314  O1365   1.285   .     A
C1314  O1362   1.287   .     A
C1315  C1317   1.371   .     S
C1315  O1363   1.289   .     A
C1315  O1364   1.283   .     A
C1317  C2000   1.169   .     S
C1319  C1142   1.393   1_655 S
C1320  C1166   1.391   1_655 S
H1321  O1348   1.014   .     S
H1324  C1993   1.108   .     S
H1332  O1350   1.013   .     S
H1338  O1352   1.011   .     S
H1339  O1354   1.007   .     S
N1345  Zn1367  2.031   .     S
N1346  Zn1368  2.031   .     S
O1347  Zn1367  1.993   .     S
O1358  Zn1368  1.993   .     S
O1360  Zn1367  2.001   .     S
O1361  Zn1368  2.001   .     S
O1362  Zn1367  1.959   .     S
O1363  Zn1368  1.959   .     S
O1364  Zn1367  1.951   .     S
O1365  Zn1368  1.951   .     S
C1369  C1372   1.421   .     S
C1369  O1423   1.288   .     A
C1369  O1437   1.289   .     A
C1370  C1372   1.406   .     A
C1370  C1381   1.481   .     S
C1370  C1547   1.393   1_455 S
C1371  C1395   1.405   .     A
C1371  C1396   1.407   .     A
C1371  C1380   1.417   .     S
C1372  C1394   1.401   .     A
C1373  N1422   1.376   .     A
C1373  O1431   1.382   .     S
C1373  C1832   1.434   1_545 S
C1374  N1421   1.370   .     A
C1374  O1432   1.384   .     S
C1374  C1603   1.449   .     S
C1375  O1433   1.395   .     S
C1375  N1422   1.374   .     A
C1375  C1830   1.449   1_545 S
C1376  N1421   1.370   .     A
C1376  O1435   1.386   .     S
C1376  C1601   1.434   .     S
C1377  O1424   1.397   .     S
C1377  C1394   1.483   .     S
C1377  O1442   1.220   .     D
C1378  C1395   1.488   .     S
C1378  O1425   1.222   .     D
C1378  O1426   1.397   .     S
C1379  C1396   1.489   .     S
C1379  O1427   1.220   .     D
C1379  O1428   1.399   .     S
C1380  O1436   1.287   .     A
C1380  O1434   1.288   .     A
C1381  O1429   1.223   .     D
C1381  O1430   1.394   .     S
C1382  O1431   1.423   .     S
C1382  H1417   1.110   .     S
C1382  C1383   1.521   .     S
C1382  H1416   1.101   .     S
C1383  H1418   1.104   .     S
C1383  H51     1.109   1_556 S
C1383  H52     1.109   1_556 S
C1384  O1432   1.419   .     S
C1384  H1398   1.113   .     S
C1384  C1385   1.521   .     S
C1384  H1399   1.110   .     S
C1385  H1401   1.101   .     S
C1385  H1402   1.109   .     S
C1386  H1403   1.116   .     S
C1386  O1433   1.421   .     S
C1386  H1404   1.108   .     S
C1386  C1387   1.517   .     S
C1387  H1406   1.111   .     S
C1387  H1407   1.103   .     S
C1387  H1405   1.110   .     S
C1388  O1435   1.411   .     S
C1388  H1409   1.107   .     S
C1388  H1410   1.108   .     S
C1388  C1389   1.524   .     S
C1389  H1412   1.111   .     S
C1389  H1411   1.108   .     S
C1389  H1413   1.107   .     S
C1390  C1392   1.372   .     S
C1390  O1441   1.285   .     A
C1390  O1438   1.287   .     A
C1391  C1393   1.371   .     S
C1391  O1439   1.289   .     A
C1391  O1440   1.283   .     A
C1393  C24     1.169   1_556 S
C1394  C1548   1.391   1_455 S
C1395  C1446   1.393   .     S
C1396  C1470   1.391   .     S
H1397  O1424   1.014   .     S
H1400  C17     1.108   1_556 S
H1408  O1426   1.013   .     S
H1414  O1428   1.011   .     S
H1415  O1430   1.007   .     S
N1421  Zn1443  2.031   .     S
N1422  Zn1444  2.031   .     S
O1423  Zn1443  1.993   .     S
O1434  Zn1444  1.993   .     S
O1436  Zn1443  2.001   .     S
O1437  Zn1444  2.001   .     S
O1438  Zn1443  1.959   .     S
O1439  Zn1444  1.959   .     S
O1440  Zn1443  1.951   .     S
O1441  Zn1444  1.951   .     S
C1445  C1448   1.421   .     S
C1445  O1499   1.288   .     A
C1445  O1513   1.289   .     A
C1446  C1448   1.406   .     A
C1446  C1457   1.481   .     S
C1447  C1471   1.405   .     A
C1447  C1472   1.407   .     A
C1447  C1456   1.417   .     S
C1448  C1470   1.401   .     A
C1449  N1498   1.376   .     A
C1449  O1507   1.382   .     S
C1449  C1908   1.434   1_545 S
C1450  N1497   1.370   .     A
C1450  O1508   1.384   .     S
C1450  C1679   1.449   .     S
C1451  O1509   1.395   .     S
C1451  N1498   1.374   .     A
C1451  C1906   1.449   1_545 S
C1452  N1497   1.370   .     A
C1452  O1511   1.386   .     S
C1452  C1677   1.434   .     S
C1453  O1500   1.397   .     S
C1453  C1470   1.483   .     S
C1453  O1518   1.220   .     D
C1454  C1471   1.488   .     S
C1454  O1501   1.222   .     D
C1454  O1502   1.397   .     S
C1455  C1472   1.489   .     S
C1455  O1503   1.220   .     D
C1455  O1504   1.399   .     S
C1456  O1512   1.287   .     A
C1456  O1510   1.288   .     A
C1457  O1505   1.223   .     D
C1457  O1506   1.394   .     S
C1458  O1507   1.423   .     S
C1458  H1493   1.110   .     S
C1458  C1459   1.521   .     S
C1458  H1492   1.101   .     S
C1459  H1494   1.104   .     S
C1459  H127    1.109   1_556 S
C1459  H128    1.109   1_556 S
C1460  O1508   1.419   .     S
C1460  H1474   1.113   .     S
C1460  C1461   1.521   .     S
C1460  H1475   1.110   .     S
C1461  H1477   1.101   .     S
C1461  H1478   1.109   .     S
C1462  H1479   1.116   .     S
C1462  O1509   1.421   .     S
C1462  H1480   1.108   .     S
C1462  C1463   1.517   .     S
C1463  H1482   1.111   .     S
C1463  H1483   1.103   .     S
C1463  H1481   1.110   .     S
C1464  O1511   1.411   .     S
C1464  H1485   1.107   .     S
C1464  H1486   1.108   .     S
C1464  C1465   1.524   .     S
C1465  H1488   1.111   .     S
C1465  H1487   1.108   .     S
C1465  H1489   1.107   .     S
C1466  C1468   1.372   .     S
C1466  O1517   1.285   .     A
C1466  O1514   1.287   .     A
C1467  C1469   1.371   .     S
C1467  O1515   1.289   .     A
C1467  O1516   1.283   .     A
C1469  C100    1.169   1_556 S
C1471  C1522   1.393   .     S
C1472  C1546   1.391   .     S
H1473  O1500   1.014   .     S
H1476  C93     1.108   1_556 S
H1484  O1502   1.013   .     S
H1490  O1504   1.011   .     S
H1491  O1506   1.007   .     S
N1497  Zn1519  2.031   .     S
N1498  Zn1520  2.031   .     S
O1499  Zn1519  1.993   .     S
O1510  Zn1520  1.993   .     S
O1512  Zn1519  2.001   .     S
O1513  Zn1520  2.001   .     S
O1514  Zn1519  1.959   .     S
O1515  Zn1520  1.959   .     S
O1516  Zn1519  1.951   .     S
O1517  Zn1520  1.951   .     S
C1521  C1524   1.421   .     S
C1521  O1575   1.288   .     A
C1521  O1589   1.289   .     A
C1522  C1524   1.406   .     A
C1522  C1533   1.481   .     S
C1523  C1547   1.405   .     A
C1523  C1548   1.407   .     A
C1523  C1532   1.417   .     S
C1524  C1546   1.401   .     A
C1525  N1574   1.376   .     A
C1525  O1583   1.382   .     S
C1525  C1984   1.434   1_545 S
C1526  N1573   1.370   .     A
C1526  O1584   1.384   .     S
C1526  C1755   1.449   .     S
C1527  O1585   1.395   .     S
C1527  N1574   1.374   .     A
C1527  C1982   1.449   1_545 S
C1528  N1573   1.370   .     A
C1528  O1587   1.386   .     S
C1528  C1753   1.434   .     S
C1529  O1576   1.397   .     S
C1529  C1546   1.483   .     S
C1529  O1594   1.220   .     D
C1530  C1547   1.488   .     S
C1530  O1577   1.222   .     D
C1530  O1578   1.397   .     S
C1531  C1548   1.489   .     S
C1531  O1579   1.220   .     D
C1531  O1580   1.399   .     S
C1532  O1588   1.287   .     A
C1532  O1586   1.288   .     A
C1533  O1581   1.223   .     D
C1533  O1582   1.394   .     S
C1534  O1583   1.423   .     S
C1534  H1569   1.110   .     S
C1534  C1535   1.521   .     S
C1534  H1568   1.101   .     S
C1535  H1570   1.104   .     S
C1535  H203    1.109   1_556 S
C1535  H204    1.109   1_556 S
C1536  O1584   1.419   .     S
C1536  H1550   1.113   .     S
C1536  C1537   1.521   .     S
C1536  H1551   1.110   .     S
C1537  H1553   1.101   .     S
C1537  H1554   1.109   .     S
C1538  H1555   1.116   .     S
C1538  O1585   1.421   .     S
C1538  H1556   1.108   .     S
C1538  C1539   1.517   .     S
C1539  H1558   1.111   .     S
C1539  H1559   1.103   .     S
C1539  H1557   1.110   .     S
C1540  O1587   1.411   .     S
C1540  H1561   1.107   .     S
C1540  H1562   1.108   .     S
C1540  C1541   1.524   .     S
C1541  H1564   1.111   .     S
C1541  H1563   1.108   .     S
C1541  H1565   1.107   .     S
C1542  C1544   1.372   .     S
C1542  O1593   1.285   .     A
C1542  O1590   1.287   .     A
C1543  C1545   1.371   .     S
C1543  O1591   1.289   .     A
C1543  O1592   1.283   .     A
C1545  C176    1.169   1_556 S
C1547  C1370   1.393   1_655 S
C1548  C1394   1.391   1_655 S
H1549  O1576   1.014   .     S
H1552  C169    1.108   1_556 S
H1560  O1578   1.013   .     S
H1566  O1580   1.011   .     S
H1567  O1582   1.007   .     S
N1573  Zn1595  2.031   .     S
N1574  Zn1596  2.031   .     S
O1575  Zn1595  1.993   .     S
O1586  Zn1596  1.993   .     S
O1588  Zn1595  2.001   .     S
O1589  Zn1596  2.001   .     S
O1590  Zn1595  1.959   .     S
O1591  Zn1596  1.959   .     S
O1592  Zn1595  1.951   .     S
O1593  Zn1596  1.951   .     S
C1597  C1600   1.421   .     S
C1597  O1651   1.288   .     A
C1597  O1665   1.289   .     A
C1598  C1600   1.406   .     A
C1598  C1609   1.481   .     S
C1598  C1775   1.393   1_455 S
C1599  C1623   1.405   .     A
C1599  C1624   1.407   .     A
C1599  C1608   1.417   .     S
C1600  C1622   1.401   .     A
C1601  N1650   1.376   .     A
C1601  O1659   1.382   .     S
C1602  N1649   1.370   .     A
C1602  O1660   1.384   .     S
C1602  C1831   1.449   .     S
C1603  O1661   1.395   .     S
C1603  N1650   1.374   .     A
C1604  N1649   1.370   .     A
C1604  O1663   1.386   .     S
C1604  C1829   1.434   .     S
C1605  O1652   1.397   .     S
C1605  C1622   1.483   .     S
C1605  O1670   1.220   .     D
C1606  C1623   1.488   .     S
C1606  O1653   1.222   .     D
C1606  O1654   1.397   .     S
C1607  C1624   1.489   .     S
C1607  O1655   1.220   .     D
C1607  O1656   1.399   .     S
C1608  O1664   1.287   .     A
C1608  O1662   1.288   .     A
C1609  O1657   1.223   .     D
C1609  O1658   1.394   .     S
C1610  O1659   1.423   .     S
C1610  H1645   1.110   .     S
C1610  C1611   1.521   .     S
C1610  H1644   1.101   .     S
C1611  H1646   1.104   .     S
C1611  H279    1.109   1_556 S
C1611  H280    1.109   1_556 S
C1612  O1660   1.419   .     S
C1612  H1626   1.113   .     S
C1612  C1613   1.521   .     S
C1612  H1627   1.110   .     S
C1613  H1629   1.101   .     S
C1613  H1630   1.109   .     S
C1614  H1631   1.116   .     S
C1614  O1661   1.421   .     S
C1614  H1632   1.108   .     S
C1614  C1615   1.517   .     S
C1615  H1634   1.111   .     S
C1615  H1635   1.103   .     S
C1615  H1633   1.110   .     S
C1616  O1663   1.411   .     S
C1616  H1637   1.107   .     S
C1616  H1638   1.108   .     S
C1616  C1617   1.524   .     S
C1617  H1640   1.111   .     S
C1617  H1639   1.108   .     S
C1617  H1641   1.107   .     S
C1618  C1620   1.372   .     S
C1618  O1669   1.285   .     A
C1618  O1666   1.287   .     A
C1619  C1621   1.371   .     S
C1619  O1667   1.289   .     A
C1619  O1668   1.283   .     A
C1621  C252    1.169   1_556 S
C1622  C1776   1.391   1_455 S
C1623  C1674   1.393   .     S
C1624  C1698   1.391   .     S
H1625  O1652   1.014   .     S
H1628  C245    1.108   1_556 S
H1636  O1654   1.013   .     S
H1642  O1656   1.011   .     S
H1643  O1658   1.007   .     S
N1649  Zn1671  2.031   .     S
N1650  Zn1672  2.031   .     S
O1651  Zn1671  1.993   .     S
O1662  Zn1672  1.993   .     S
O1664  Zn1671  2.001   .     S
O1665  Zn1672  2.001   .     S
O1666  Zn1671  1.959   .     S
O1667  Zn1672  1.959   .     S
O1668  Zn1671  1.951   .     S
O1669  Zn1672  1.951   .     S
C1673  C1676   1.421   .     S
C1673  O1727   1.288   .     A
C1673  O1741   1.289   .     A
C1674  C1676   1.406   .     A
C1674  C1685   1.481   .     S
C1675  C1699   1.405   .     A
C1675  C1700   1.407   .     A
C1675  C1684   1.417   .     S
C1676  C1698   1.401   .     A
C1677  N1726   1.376   .     A
C1677  O1735   1.382   .     S
C1678  N1725   1.370   .     A
C1678  O1736   1.384   .     S
C1678  C1907   1.449   .     S
C1679  O1737   1.395   .     S
C1679  N1726   1.374   .     A
C1680  N1725   1.370   .     A
C1680  O1739   1.386   .     S
C1680  C1905   1.434   .     S
C1681  O1728   1.397   .     S
C1681  C1698   1.483   .     S
C1681  O1746   1.220   .     D
C1682  C1699   1.488   .     S
C1682  O1729   1.222   .     D
C1682  O1730   1.397   .     S
C1683  C1700   1.489   .     S
C1683  O1731   1.220   .     D
C1683  O1732   1.399   .     S
C1684  O1740   1.287   .     A
C1684  O1738   1.288   .     A
C1685  O1733   1.223   .     D
C1685  O1734   1.394   .     S
C1686  O1735   1.423   .     S
C1686  H1721   1.110   .     S
C1686  C1687   1.521   .     S
C1686  H1720   1.101   .     S
C1687  H1722   1.104   .     S
C1687  H355    1.109   1_556 S
C1687  H356    1.109   1_556 S
C1688  O1736   1.419   .     S
C1688  H1702   1.113   .     S
C1688  C1689   1.521   .     S
C1688  H1703   1.110   .     S
C1689  H1705   1.101   .     S
C1689  H1706   1.109   .     S
C1690  H1707   1.116   .     S
C1690  O1737   1.421   .     S
C1690  H1708   1.108   .     S
C1690  C1691   1.517   .     S
C1691  H1710   1.111   .     S
C1691  H1711   1.103   .     S
C1691  H1709   1.110   .     S
C1692  O1739   1.411   .     S
C1692  H1713   1.107   .     S
C1692  H1714   1.108   .     S
C1692  C1693   1.524   .     S
C1693  H1716   1.111   .     S
C1693  H1715   1.108   .     S
C1693  H1717   1.107   .     S
C1694  C1696   1.372   .     S
C1694  O1745   1.285   .     A
C1694  O1742   1.287   .     A
C1695  C1697   1.371   .     S
C1695  O1743   1.289   .     A
C1695  O1744   1.283   .     A
C1697  C328    1.169   1_556 S
C1699  C1750   1.393   .     S
C1700  C1774   1.391   .     S
H1701  O1728   1.014   .     S
H1704  C321    1.108   1_556 S
H1712  O1730   1.013   .     S
H1718  O1732   1.011   .     S
H1719  O1734   1.007   .     S
N1725  Zn1747  2.031   .     S
N1726  Zn1748  2.031   .     S
O1727  Zn1747  1.993   .     S
O1738  Zn1748  1.993   .     S
O1740  Zn1747  2.001   .     S
O1741  Zn1748  2.001   .     S
O1742  Zn1747  1.959   .     S
O1743  Zn1748  1.959   .     S
O1744  Zn1747  1.951   .     S
O1745  Zn1748  1.951   .     S
C1749  C1752   1.421   .     S
C1749  O1803   1.288   .     A
C1749  O1817   1.289   .     A
C1750  C1752   1.406   .     A
C1750  C1761   1.481   .     S
C1751  C1775   1.405   .     A
C1751  C1776   1.407   .     A
C1751  C1760   1.417   .     S
C1752  C1774   1.401   .     A
C1753  N1802   1.376   .     A
C1753  O1811   1.382   .     S
C1754  N1801   1.370   .     A
C1754  O1812   1.384   .     S
C1754  C1983   1.449   .     S
C1755  O1813   1.395   .     S
C1755  N1802   1.374   .     A
C1756  N1801   1.370   .     A
C1756  O1815   1.386   .     S
C1756  C1981   1.434   .     S
C1757  O1804   1.397   .     S
C1757  C1774   1.483   .     S
C1757  O1822   1.220   .     D
C1758  C1775   1.488   .     S
C1758  O1805   1.222   .     D
C1758  O1806   1.397   .     S
C1759  C1776   1.489   .     S
C1759  O1807   1.220   .     D
C1759  O1808   1.399   .     S
C1760  O1816   1.287   .     A
C1760  O1814   1.288   .     A
C1761  O1809   1.223   .     D
C1761  O1810   1.394   .     S
C1762  O1811   1.423   .     S
C1762  H1797   1.110   .     S
C1762  C1763   1.521   .     S
C1762  H1796   1.101   .     S
C1763  H1798   1.104   .     S
C1763  H431    1.109   1_556 S
C1763  H432    1.109   1_556 S
C1764  O1812   1.419   .     S
C1764  H1778   1.113   .     S
C1764  C1765   1.521   .     S
C1764  H1779   1.110   .     S
C1765  H1781   1.101   .     S
C1765  H1782   1.109   .     S
C1766  H1783   1.116   .     S
C1766  O1813   1.421   .     S
C1766  H1784   1.108   .     S
C1766  C1767   1.517   .     S
C1767  H1786   1.111   .     S
C1767  H1787   1.103   .     S
C1767  H1785   1.110   .     S
C1768  O1815   1.411   .     S
C1768  H1789   1.107   .     S
C1768  H1790   1.108   .     S
C1768  C1769   1.524   .     S
C1769  H1792   1.111   .     S
C1769  H1791   1.108   .     S
C1769  H1793   1.107   .     S
C1770  C1772   1.372   .     S
C1770  O1821   1.285   .     A
C1770  O1818   1.287   .     A
C1771  C1773   1.371   .     S
C1771  O1819   1.289   .     A
C1771  O1820   1.283   .     A
C1773  C404    1.169   1_556 S
C1775  C1598   1.393   1_655 S
C1776  C1622   1.391   1_655 S
H1777  O1804   1.014   .     S
H1780  C397    1.108   1_556 S
H1788  O1806   1.013   .     S
H1794  O1808   1.011   .     S
H1795  O1810   1.007   .     S
N1801  Zn1823  2.031   .     S
N1802  Zn1824  2.031   .     S
O1803  Zn1823  1.993   .     S
O1814  Zn1824  1.993   .     S
O1816  Zn1823  2.001   .     S
O1817  Zn1824  2.001   .     S
O1818  Zn1823  1.959   .     S
O1819  Zn1824  1.959   .     S
O1820  Zn1823  1.951   .     S
O1821  Zn1824  1.951   .     S
C1825  C1828   1.421   .     S
C1825  O1879   1.288   .     A
C1825  O1893   1.289   .     A
C1826  C1828   1.406   .     A
C1826  C1837   1.481   .     S
C1826  C2003   1.393   1_455 S
C1827  C1851   1.405   .     A
C1827  C1852   1.407   .     A
C1827  C1836   1.417   .     S
C1828  C1850   1.401   .     A
C1829  N1878   1.376   .     A
C1829  O1887   1.382   .     S
C1830  N1877   1.370   .     A
C1830  O1888   1.384   .     S
C1830  C1375   1.449   1_565 S
C1831  O1889   1.395   .     S
C1831  N1878   1.374   .     A
C1832  N1877   1.370   .     A
C1832  O1891   1.386   .     S
C1832  C1373   1.434   1_565 S
C1833  O1880   1.397   .     S
C1833  C1850   1.483   .     S
C1833  O1898   1.220   .     D
C1834  C1851   1.488   .     S
C1834  O1881   1.222   .     D
C1834  O1882   1.397   .     S
C1835  C1852   1.489   .     S
C1835  O1883   1.220   .     D
C1835  O1884   1.399   .     S
C1836  O1892   1.287   .     A
C1836  O1890   1.288   .     A
C1837  O1885   1.223   .     D
C1837  O1886   1.394   .     S
C1838  O1887   1.423   .     S
C1838  H1873   1.110   .     S
C1838  C1839   1.521   .     S
C1838  H1872   1.101   .     S
C1839  H1874   1.104   .     S
C1839  H507    1.109   1_556 S
C1839  H508    1.109   1_556 S
C1840  O1888   1.419   .     S
C1840  H1854   1.113   .     S
C1840  C1841   1.521   .     S
C1840  H1855   1.110   .     S
C1841  H1857   1.101   .     S
C1841  H1858   1.109   .     S
C1842  H1859   1.116   .     S
C1842  O1889   1.421   .     S
C1842  H1860   1.108   .     S
C1842  C1843   1.517   .     S
C1843  H1862   1.111   .     S
C1843  H1863   1.103   .     S
C1843  H1861   1.110   .     S
C1844  O1891   1.411   .     S
C1844  H1865   1.107   .     S
C1844  H1866   1.108   .     S
C1844  C1845   1.524   .     S
C1845  H1868   1.111   .     S
C1845  H1867   1.108   .     S
C1845  H1869   1.107   .     S
C1846  C1848   1.372   .     S
C1846  O1897   1.285   .     A
C1846  O1894   1.287   .     A
C1847  C1849   1.371   .     S
C1847  O1895   1.289   .     A
C1847  O1896   1.283   .     A
C1849  C480    1.169   1_556 S
C1850  C2004   1.391   1_455 S
C1851  C1902   1.393   .     S
C1852  C1926   1.391   .     S
H1853  O1880   1.014   .     S
H1856  C473    1.108   1_556 S
H1864  O1882   1.013   .     S
H1870  O1884   1.011   .     S
H1871  O1886   1.007   .     S
N1877  Zn1899  2.031   .     S
N1878  Zn1900  2.031   .     S
O1879  Zn1899  1.993   .     S
O1890  Zn1900  1.993   .     S
O1892  Zn1899  2.001   .     S
O1893  Zn1900  2.001   .     S
O1894  Zn1899  1.959   .     S
O1895  Zn1900  1.959   .     S
O1896  Zn1899  1.951   .     S
O1897  Zn1900  1.951   .     S
C1901  C1904   1.421   .     S
C1901  O1955   1.288   .     A
C1901  O1969   1.289   .     A
C1902  C1904   1.406   .     A
C1902  C1913   1.481   .     S
C1903  C1927   1.405   .     A
C1903  C1928   1.407   .     A
C1903  C1912   1.417   .     S
C1904  C1926   1.401   .     A
C1905  N1954   1.376   .     A
C1905  O1963   1.382   .     S
C1906  N1953   1.370   .     A
C1906  O1964   1.384   .     S
C1906  C1451   1.449   1_565 S
C1907  O1965   1.395   .     S
C1907  N1954   1.374   .     A
C1908  N1953   1.370   .     A
C1908  O1967   1.386   .     S
C1908  C1449   1.434   1_565 S
C1909  O1956   1.397   .     S
C1909  C1926   1.483   .     S
C1909  O1974   1.220   .     D
C1910  C1927   1.488   .     S
C1910  O1957   1.222   .     D
C1910  O1958   1.397   .     S
C1911  C1928   1.489   .     S
C1911  O1959   1.220   .     D
C1911  O1960   1.399   .     S
C1912  O1968   1.287   .     A
C1912  O1966   1.288   .     A
C1913  O1961   1.223   .     D
C1913  O1962   1.394   .     S
C1914  O1963   1.423   .     S
C1914  H1949   1.110   .     S
C1914  C1915   1.521   .     S
C1914  H1948   1.101   .     S
C1915  H1950   1.104   .     S
C1915  H583    1.109   1_556 S
C1915  H584    1.109   1_556 S
C1916  O1964   1.419   .     S
C1916  H1930   1.113   .     S
C1916  C1917   1.521   .     S
C1916  H1931   1.110   .     S
C1917  H1933   1.101   .     S
C1917  H1934   1.109   .     S
C1918  H1935   1.116   .     S
C1918  O1965   1.421   .     S
C1918  H1936   1.108   .     S
C1918  C1919   1.517   .     S
C1919  H1938   1.111   .     S
C1919  H1939   1.103   .     S
C1919  H1937   1.110   .     S
C1920  O1967   1.411   .     S
C1920  H1941   1.107   .     S
C1920  H1942   1.108   .     S
C1920  C1921   1.524   .     S
C1921  H1944   1.111   .     S
C1921  H1943   1.108   .     S
C1921  H1945   1.107   .     S
C1922  C1924   1.372   .     S
C1922  O1973   1.285   .     A
C1922  O1970   1.287   .     A
C1923  C1925   1.371   .     S
C1923  O1971   1.289   .     A
C1923  O1972   1.283   .     A
C1925  C556    1.169   1_556 S
C1927  C1978   1.393   .     S
C1928  C2002   1.391   .     S
H1929  O1956   1.014   .     S
H1932  C549    1.108   1_556 S
H1940  O1958   1.013   .     S
H1946  O1960   1.011   .     S
H1947  O1962   1.007   .     S
N1953  Zn1975  2.031   .     S
N1954  Zn1976  2.031   .     S
O1955  Zn1975  1.993   .     S
O1966  Zn1976  1.993   .     S
O1968  Zn1975  2.001   .     S
O1969  Zn1976  2.001   .     S
O1970  Zn1975  1.959   .     S
O1971  Zn1976  1.959   .     S
O1972  Zn1975  1.951   .     S
O1973  Zn1976  1.951   .     S
C1977  C1980   1.421   .     S
C1977  O2031   1.288   .     A
C1977  O2045   1.289   .     A
C1978  C1980   1.406   .     A
C1978  C1989   1.481   .     S
C1979  C2003   1.405   .     A
C1979  C2004   1.407   .     A
C1979  C1988   1.417   .     S
C1980  C2002   1.401   .     A
C1981  N2030   1.376   .     A
C1981  O2039   1.382   .     S
C1982  N2029   1.370   .     A
C1982  O2040   1.384   .     S
C1982  C1527   1.449   1_565 S
C1983  O2041   1.395   .     S
C1983  N2030   1.374   .     A
C1984  N2029   1.370   .     A
C1984  O2043   1.386   .     S
C1984  C1525   1.434   1_565 S
C1985  O2032   1.397   .     S
C1985  C2002   1.483   .     S
C1985  O2050   1.220   .     D
C1986  C2003   1.488   .     S
C1986  O2033   1.222   .     D
C1986  O2034   1.397   .     S
C1987  C2004   1.489   .     S
C1987  O2035   1.220   .     D
C1987  O2036   1.399   .     S
C1988  O2044   1.287   .     A
C1988  O2042   1.288   .     A
C1989  O2037   1.223   .     D
C1989  O2038   1.394   .     S
C1990  O2039   1.423   .     S
C1990  H2025   1.110   .     S
C1990  C1991   1.521   .     S
C1990  H2024   1.101   .     S
C1991  H2026   1.104   .     S
C1991  H659    1.109   1_556 S
C1991  H660    1.109   1_556 S
C1992  O2040   1.419   .     S
C1992  H2006   1.113   .     S
C1992  C1993   1.521   .     S
C1992  H2007   1.110   .     S
C1993  H2009   1.101   .     S
C1993  H2010   1.109   .     S
C1994  H2011   1.116   .     S
C1994  O2041   1.421   .     S
C1994  H2012   1.108   .     S
C1994  C1995   1.517   .     S
C1995  H2014   1.111   .     S
C1995  H2015   1.103   .     S
C1995  H2013   1.110   .     S
C1996  O2043   1.411   .     S
C1996  H2017   1.107   .     S
C1996  H2018   1.108   .     S
C1996  C1997   1.524   .     S
C1997  H2020   1.111   .     S
C1997  H2019   1.108   .     S
C1997  H2021   1.107   .     S
C1998  C2000   1.372   .     S
C1998  O2049   1.285   .     A
C1998  O2046   1.287   .     A
C1999  C2001   1.371   .     S
C1999  O2047   1.289   .     A
C1999  O2048   1.283   .     A
C2001  C632    1.169   1_556 S
C2003  C1826   1.393   1_655 S
C2004  C1850   1.391   1_655 S
H2005  O2032   1.014   .     S
H2008  C625    1.108   1_556 S
H2016  O2034   1.013   .     S
H2022  O2036   1.011   .     S
H2023  O2038   1.007   .     S
N2029  Zn2051  2.031   .     S
N2030  Zn2052  2.031   .     S
O2031  Zn2051  1.993   .     S
O2042  Zn2052  1.993   .     S
O2044  Zn2051  2.001   .     S
O2045  Zn2052  2.001   .     S
O2046  Zn2051  1.959   .     S
O2047  Zn2052  1.959   .     S
O2048  Zn2051  1.951   .     S
O2049  Zn2052  1.951   .     S
