data_str_m3_o1_o17_pcu_sym.11
_audit_creation_date              2020-01-03
_audit_creation_method            'Materials Studio'
_symmetry_space_group_name_H-M    'P1'
_symmetry_Int_Tables_number       1
_symmetry_cell_setting            triclinic
loop_
_symmetry_equiv_pos_as_xyz
  x,y,z
_cell_length_a                    32.1601
_cell_length_b                    29.4868
_cell_length_c                    30.0488
_cell_angle_alpha                 90.4242
_cell_angle_beta                  90.2254
_cell_angle_gamma                 90.0026
loop_
_atom_site_label
_atom_site_type_symbol
_atom_site_fract_x
_atom_site_fract_y
_atom_site_fract_z
_atom_site_U_iso_or_equiv
_atom_site_adp_type
_atom_site_occupancy
C1     C     0.08661   0.16667   0.24996   0.00000  Uiso   1.00
C2     C     0.04247   0.16667   0.24995   0.00000  Uiso   1.00
C3     C     0.19250   0.02421   0.27781   0.00000  Uiso   1.00
C4     C     0.14084   0.30913   0.22219   0.00000  Uiso   1.00
C5     C     0.14085   0.02379   0.22218   0.00000  Uiso   1.00
C6     C     0.19249   0.30954   0.27782   0.00000  Uiso   1.00
C7     C     0.16698   0.16645   0.16327   0.00000  Uiso   1.00
C8     C     0.16636   0.16688   0.33673   0.00000  Uiso   1.00
C9     C     0.17713   0.12776   0.40712   0.00000  Uiso   1.00
C10    C     0.15621   0.20557   0.09288   0.00000  Uiso   1.00
C11    C     0.16603   0.16732   0.38467   0.00000  Uiso   1.00
C12    C     0.24672   0.16667   0.25004   0.00000  Uiso   1.00
C13    C     0.16730   0.16602   0.11533   0.00000  Uiso   1.00
C14    C     0.15484   0.20684   0.40803   0.00000  Uiso   1.00
C15    C     0.17850   0.12649   0.09197   0.00000  Uiso   1.00
C16    C     0.15516   0.20685   0.45422   0.00000  Uiso   1.00
C17    C     0.17818   0.12648   0.04578   0.00000  Uiso   1.00
C18    C     0.16648   0.16685   0.47682   0.00000  Uiso   1.00
C19    C     0.16685   0.16648   0.02318   0.00000  Uiso   1.00
C20    C     0.17742   0.12721   0.45310   0.00000  Uiso   1.00
C21    C     0.15592   0.20613   0.04690   0.00000  Uiso   1.00
C22    C     0.14435   0.24605   0.47819   0.00000  Uiso   1.00
C23    C     0.14475   0.24567   0.02438   0.00000  Uiso   1.00
C24    C     0.18898   0.08728   0.02181   0.00000  Uiso   1.00
C25    C     0.18858   0.08766   0.47562   0.00000  Uiso   1.00
C26    C     0.02126   0.12594   0.24251   0.00000  Uiso   1.00
C27    C     0.31207   0.20739   0.25749   0.00000  Uiso   1.00
C28    C     0.31200   0.12594   0.24257   0.00000  Uiso   1.00
C29    C     0.02133   0.20740   0.25743   0.00000  Uiso   1.00
C30    C     0.29086   0.16666   0.25005   0.00000  Uiso   1.00
F31    F     0.14304   0.24496   0.38607   0.00000  Uiso   1.00
F32    F     0.19030   0.08837   0.11393   0.00000  Uiso   1.00
F33    F     0.21839   0.04717   0.30562   0.00000  Uiso   1.00
F34    F     0.11494   0.28616   0.19438   0.00000  Uiso   1.00
F35    F     0.11501   0.04635   0.19432   0.00000  Uiso   1.00
F36    F     0.21832   0.28699   0.30568   0.00000  Uiso   1.00
H37    H     0.18592   0.09741   0.38882   0.00000  Uiso   1.00
H38    H     0.03756   0.23907   0.26346   0.00000  Uiso   1.00
H39    H     0.14741   0.23592   0.11118   0.00000  Uiso   1.00
H40    H     0.13564   0.27703   0.46138   0.00000  Uiso   1.00
H41    H     0.19770   0.05630   0.03862   0.00000  Uiso   1.00
H42    H     0.13635   0.27624   0.04247   0.00000  Uiso   1.00
H43    H     0.19698   0.05709   0.45753   0.00000  Uiso   1.00
H44    H     0.03744   0.09427   0.23644   0.00000  Uiso   1.00
H45    H     0.29589   0.23906   0.26356   0.00000  Uiso   1.00
H46    H     0.29577   0.09427   0.23654   0.00000  Uiso   1.00
N47    N     0.16667   0.28573   0.25000   0.00000  Uiso   1.00
N48    N     0.16667   0.04760   0.25000   0.00000  Uiso   1.00
O49    O     0.10559   0.20487   0.24999   0.00000  Uiso   1.00
O50    O     0.22774   0.12846   0.25001   0.00000  Uiso   1.00
O51    O     0.22774   0.20487   0.25000   0.00000  Uiso   1.00
O52    O     0.10559   0.12846   0.24999   0.00000  Uiso   1.00
O53    O     0.16666   0.20489   0.18392   0.00000  Uiso   1.00
O54    O     0.16667   0.12844   0.31608   0.00000  Uiso   1.00
O55    O     0.16667   0.20489   0.31607   0.00000  Uiso   1.00
O56    O     0.16666   0.12844   0.18393   0.00000  Uiso   1.00
Zn57   Zn    0.16667   0.21771   0.25000   0.00000  Uiso   1.00
Zn58   Zn    0.16667   0.11563   0.25000   0.00000  Uiso   1.00
C59    C     0.41994   0.16667   0.24996   0.00000  Uiso   1.00
C60    C     0.37580   0.16667   0.24995   0.00000  Uiso   1.00
C61    C     0.52583   0.02421   0.27781   0.00000  Uiso   1.00
C62    C     0.47417   0.30913   0.22219   0.00000  Uiso   1.00
C63    C     0.47418   0.02379   0.22218   0.00000  Uiso   1.00
C64    C     0.52582   0.30954   0.27782   0.00000  Uiso   1.00
C65    C     0.50031   0.16645   0.16327   0.00000  Uiso   1.00
C66    C     0.49969   0.16688   0.33673   0.00000  Uiso   1.00
C67    C     0.51046   0.12776   0.40712   0.00000  Uiso   1.00
C68    C     0.48954   0.20557   0.09288   0.00000  Uiso   1.00
C69    C     0.49937   0.16732   0.38467   0.00000  Uiso   1.00
C70    C     0.58006   0.16667   0.25004   0.00000  Uiso   1.00
C71    C     0.50063   0.16602   0.11533   0.00000  Uiso   1.00
C72    C     0.48817   0.20684   0.40803   0.00000  Uiso   1.00
C73    C     0.51183   0.12649   0.09197   0.00000  Uiso   1.00
C74    C     0.48849   0.20685   0.45422   0.00000  Uiso   1.00
C75    C     0.51151   0.12648   0.04578   0.00000  Uiso   1.00
C76    C     0.49982   0.16685   0.47682   0.00000  Uiso   1.00
C77    C     0.50018   0.16648   0.02318   0.00000  Uiso   1.00
C78    C     0.51075   0.12721   0.45310   0.00000  Uiso   1.00
C79    C     0.48925   0.20613   0.04690   0.00000  Uiso   1.00
C80    C     0.47768   0.24605   0.47819   0.00000  Uiso   1.00
C81    C     0.47809   0.24567   0.02438   0.00000  Uiso   1.00
C82    C     0.52232   0.08728   0.02181   0.00000  Uiso   1.00
C83    C     0.52191   0.08766   0.47562   0.00000  Uiso   1.00
C84    C     0.35460   0.12594   0.24251   0.00000  Uiso   1.00
C85    C     0.64540   0.20739   0.25749   0.00000  Uiso   1.00
C86    C     0.64534   0.12594   0.24257   0.00000  Uiso   1.00
C87    C     0.35466   0.20740   0.25743   0.00000  Uiso   1.00
C88    C     0.62420   0.16666   0.25005   0.00000  Uiso   1.00
F89    F     0.47637   0.24496   0.38607   0.00000  Uiso   1.00
F90    F     0.52363   0.08837   0.11393   0.00000  Uiso   1.00
F91    F     0.55172   0.04717   0.30562   0.00000  Uiso   1.00
F92    F     0.44828   0.28616   0.19438   0.00000  Uiso   1.00
F93    F     0.44834   0.04635   0.19432   0.00000  Uiso   1.00
F94    F     0.55166   0.28699   0.30568   0.00000  Uiso   1.00
H95    H     0.51925   0.09741   0.38882   0.00000  Uiso   1.00
H96    H     0.37089   0.23907   0.26346   0.00000  Uiso   1.00
H97    H     0.48075   0.23592   0.11118   0.00000  Uiso   1.00
H98    H     0.46897   0.27703   0.46138   0.00000  Uiso   1.00
H99    H     0.53103   0.05630   0.03862   0.00000  Uiso   1.00
H100   H     0.46968   0.27624   0.04247   0.00000  Uiso   1.00
H101   H     0.53032   0.05709   0.45753   0.00000  Uiso   1.00
H102   H     0.37078   0.09427   0.23644   0.00000  Uiso   1.00
H103   H     0.62922   0.23906   0.26356   0.00000  Uiso   1.00
H104   H     0.62910   0.09427   0.23654   0.00000  Uiso   1.00
N105   N     0.50000   0.28573   0.25000   0.00000  Uiso   1.00
N106   N     0.50000   0.04760   0.25000   0.00000  Uiso   1.00
O107   O     0.43892   0.20487   0.24999   0.00000  Uiso   1.00
O108   O     0.56108   0.12846   0.25001   0.00000  Uiso   1.00
O109   O     0.56108   0.20487   0.25000   0.00000  Uiso   1.00
O110   O     0.43892   0.12846   0.24999   0.00000  Uiso   1.00
O111   O     0.49999   0.20489   0.18392   0.00000  Uiso   1.00
O112   O     0.50001   0.12844   0.31608   0.00000  Uiso   1.00
O113   O     0.50001   0.20489   0.31607   0.00000  Uiso   1.00
O114   O     0.49999   0.12844   0.18393   0.00000  Uiso   1.00
Zn115  Zn    0.50000   0.21771   0.25000   0.00000  Uiso   1.00
Zn116  Zn    0.50000   0.11563   0.25000   0.00000  Uiso   1.00
C117   C     0.75328   0.16667   0.24996   0.00000  Uiso   1.00
C118   C     0.70914   0.16667   0.24995   0.00000  Uiso   1.00
C119   C     0.85916   0.02421   0.27781   0.00000  Uiso   1.00
C120   C     0.80750   0.30913   0.22219   0.00000  Uiso   1.00
C121   C     0.80751   0.02379   0.22218   0.00000  Uiso   1.00
C122   C     0.85915   0.30954   0.27782   0.00000  Uiso   1.00
C123   C     0.83364   0.16645   0.16327   0.00000  Uiso   1.00
C124   C     0.83302   0.16688   0.33673   0.00000  Uiso   1.00
C125   C     0.84379   0.12776   0.40712   0.00000  Uiso   1.00
C126   C     0.82287   0.20557   0.09288   0.00000  Uiso   1.00
C127   C     0.83270   0.16732   0.38467   0.00000  Uiso   1.00
C128   C     0.91339   0.16667   0.25004   0.00000  Uiso   1.00
C129   C     0.83397   0.16602   0.11533   0.00000  Uiso   1.00
C130   C     0.82150   0.20684   0.40803   0.00000  Uiso   1.00
C131   C     0.84516   0.12649   0.09197   0.00000  Uiso   1.00
C132   C     0.82182   0.20685   0.45422   0.00000  Uiso   1.00
C133   C     0.84484   0.12648   0.04578   0.00000  Uiso   1.00
C134   C     0.83315   0.16685   0.47682   0.00000  Uiso   1.00
C135   C     0.83352   0.16648   0.02318   0.00000  Uiso   1.00
C136   C     0.84408   0.12721   0.45310   0.00000  Uiso   1.00
C137   C     0.82258   0.20613   0.04690   0.00000  Uiso   1.00
C138   C     0.81102   0.24605   0.47819   0.00000  Uiso   1.00
C139   C     0.81142   0.24567   0.02438   0.00000  Uiso   1.00
C140   C     0.85565   0.08728   0.02181   0.00000  Uiso   1.00
C141   C     0.85525   0.08766   0.47562   0.00000  Uiso   1.00
C142   C     0.68793   0.12594   0.24251   0.00000  Uiso   1.00
C143   C     0.97874   0.20739   0.25749   0.00000  Uiso   1.00
C144   C     0.97867   0.12594   0.24257   0.00000  Uiso   1.00
C145   C     0.68800   0.20740   0.25743   0.00000  Uiso   1.00
C146   C     0.95753   0.16666   0.25005   0.00000  Uiso   1.00
F147   F     0.80970   0.24496   0.38607   0.00000  Uiso   1.00
F148   F     0.85696   0.08837   0.11393   0.00000  Uiso   1.00
F149   F     0.88506   0.04717   0.30562   0.00000  Uiso   1.00
F150   F     0.78161   0.28616   0.19438   0.00000  Uiso   1.00
F151   F     0.78168   0.04635   0.19432   0.00000  Uiso   1.00
F152   F     0.88499   0.28699   0.30568   0.00000  Uiso   1.00
H153   H     0.85259   0.09741   0.38882   0.00000  Uiso   1.00
H154   H     0.70423   0.23907   0.26346   0.00000  Uiso   1.00
H155   H     0.81408   0.23592   0.11118   0.00000  Uiso   1.00
H156   H     0.80230   0.27703   0.46138   0.00000  Uiso   1.00
H157   H     0.86436   0.05630   0.03862   0.00000  Uiso   1.00
H158   H     0.80302   0.27624   0.04247   0.00000  Uiso   1.00
H159   H     0.86365   0.05709   0.45753   0.00000  Uiso   1.00
H160   H     0.70411   0.09427   0.23644   0.00000  Uiso   1.00
H161   H     0.96256   0.23906   0.26356   0.00000  Uiso   1.00
H162   H     0.96244   0.09427   0.23654   0.00000  Uiso   1.00
N163   N     0.83333   0.28573   0.25000   0.00000  Uiso   1.00
N164   N     0.83333   0.04760   0.25000   0.00000  Uiso   1.00
O165   O     0.77226   0.20487   0.24999   0.00000  Uiso   1.00
O166   O     0.89441   0.12846   0.25001   0.00000  Uiso   1.00
O167   O     0.89441   0.20487   0.25000   0.00000  Uiso   1.00
O168   O     0.77226   0.12846   0.24999   0.00000  Uiso   1.00
O169   O     0.83333   0.20489   0.18392   0.00000  Uiso   1.00
O170   O     0.83334   0.12844   0.31608   0.00000  Uiso   1.00
O171   O     0.83334   0.20489   0.31607   0.00000  Uiso   1.00
O172   O     0.83333   0.12844   0.18393   0.00000  Uiso   1.00
Zn173  Zn    0.83333   0.21771   0.25000   0.00000  Uiso   1.00
Zn174  Zn    0.83333   0.11563   0.25000   0.00000  Uiso   1.00
C175   C     0.08661   0.50000   0.24996   0.00000  Uiso   1.00
C176   C     0.04247   0.50000   0.24995   0.00000  Uiso   1.00
C177   C     0.19250   0.35754   0.27781   0.00000  Uiso   1.00
C178   C     0.14084   0.64246   0.22219   0.00000  Uiso   1.00
C179   C     0.14085   0.35713   0.22218   0.00000  Uiso   1.00
C180   C     0.19249   0.64287   0.27782   0.00000  Uiso   1.00
C181   C     0.16698   0.49979   0.16327   0.00000  Uiso   1.00
C182   C     0.16636   0.50021   0.33673   0.00000  Uiso   1.00
C183   C     0.17713   0.46109   0.40712   0.00000  Uiso   1.00
C184   C     0.15621   0.53891   0.09288   0.00000  Uiso   1.00
C185   C     0.16603   0.50065   0.38467   0.00000  Uiso   1.00
C186   C     0.24672   0.50000   0.25004   0.00000  Uiso   1.00
C187   C     0.16730   0.49935   0.11533   0.00000  Uiso   1.00
C188   C     0.15484   0.54017   0.40803   0.00000  Uiso   1.00
C189   C     0.17850   0.45983   0.09197   0.00000  Uiso   1.00
C190   C     0.15516   0.54018   0.45422   0.00000  Uiso   1.00
C191   C     0.17818   0.45982   0.04578   0.00000  Uiso   1.00
C192   C     0.16648   0.50019   0.47682   0.00000  Uiso   1.00
C193   C     0.16685   0.49981   0.02318   0.00000  Uiso   1.00
C194   C     0.17742   0.46054   0.45310   0.00000  Uiso   1.00
C195   C     0.15592   0.53946   0.04690   0.00000  Uiso   1.00
C196   C     0.14435   0.57939   0.47819   0.00000  Uiso   1.00
C197   C     0.14475   0.57900   0.02438   0.00000  Uiso   1.00
C198   C     0.18898   0.42061   0.02181   0.00000  Uiso   1.00
C199   C     0.18858   0.42100   0.47562   0.00000  Uiso   1.00
C200   C     0.02126   0.45928   0.24251   0.00000  Uiso   1.00
C201   C     0.31207   0.54072   0.25749   0.00000  Uiso   1.00
C202   C     0.31200   0.45927   0.24257   0.00000  Uiso   1.00
C203   C     0.02133   0.54073   0.25743   0.00000  Uiso   1.00
C204   C     0.29086   0.50000   0.25005   0.00000  Uiso   1.00
F205   F     0.14304   0.57829   0.38607   0.00000  Uiso   1.00
F206   F     0.19030   0.42171   0.11393   0.00000  Uiso   1.00
F207   F     0.21839   0.38050   0.30562   0.00000  Uiso   1.00
F208   F     0.11494   0.61950   0.19438   0.00000  Uiso   1.00
F209   F     0.11501   0.37968   0.19432   0.00000  Uiso   1.00
F210   F     0.21832   0.62032   0.30568   0.00000  Uiso   1.00
H211   H     0.18592   0.43074   0.38882   0.00000  Uiso   1.00
H212   H     0.03756   0.57240   0.26346   0.00000  Uiso   1.00
H213   H     0.14741   0.56926   0.11118   0.00000  Uiso   1.00
H214   H     0.13564   0.61036   0.46138   0.00000  Uiso   1.00
H215   H     0.19770   0.38964   0.03862   0.00000  Uiso   1.00
H216   H     0.13635   0.60957   0.04247   0.00000  Uiso   1.00
H217   H     0.19698   0.39043   0.45753   0.00000  Uiso   1.00
H218   H     0.03744   0.42761   0.23644   0.00000  Uiso   1.00
H219   H     0.29589   0.57239   0.26356   0.00000  Uiso   1.00
H220   H     0.29577   0.42760   0.23654   0.00000  Uiso   1.00
N221   N     0.16667   0.61907   0.25000   0.00000  Uiso   1.00
N222   N     0.16667   0.38093   0.25000   0.00000  Uiso   1.00
O223   O     0.10559   0.53821   0.24999   0.00000  Uiso   1.00
O224   O     0.22774   0.46179   0.25001   0.00000  Uiso   1.00
O225   O     0.22774   0.53821   0.25000   0.00000  Uiso   1.00
O226   O     0.10559   0.46179   0.24999   0.00000  Uiso   1.00
O227   O     0.16666   0.53823   0.18392   0.00000  Uiso   1.00
O228   O     0.16667   0.46177   0.31608   0.00000  Uiso   1.00
O229   O     0.16667   0.53823   0.31607   0.00000  Uiso   1.00
O230   O     0.16666   0.46177   0.18393   0.00000  Uiso   1.00
Zn231  Zn    0.16667   0.55104   0.25000   0.00000  Uiso   1.00
Zn232  Zn    0.16667   0.44896   0.25000   0.00000  Uiso   1.00
C233   C     0.41994   0.50000   0.24996   0.00000  Uiso   1.00
C234   C     0.37580   0.50000   0.24995   0.00000  Uiso   1.00
C235   C     0.52583   0.35754   0.27781   0.00000  Uiso   1.00
C236   C     0.47417   0.64246   0.22219   0.00000  Uiso   1.00
C237   C     0.47418   0.35713   0.22218   0.00000  Uiso   1.00
C238   C     0.52582   0.64287   0.27782   0.00000  Uiso   1.00
C239   C     0.50031   0.49979   0.16327   0.00000  Uiso   1.00
C240   C     0.49969   0.50021   0.33673   0.00000  Uiso   1.00
C241   C     0.51046   0.46109   0.40712   0.00000  Uiso   1.00
C242   C     0.48954   0.53891   0.09288   0.00000  Uiso   1.00
C243   C     0.49937   0.50065   0.38467   0.00000  Uiso   1.00
C244   C     0.58006   0.50000   0.25004   0.00000  Uiso   1.00
C245   C     0.50063   0.49935   0.11533   0.00000  Uiso   1.00
C246   C     0.48817   0.54017   0.40803   0.00000  Uiso   1.00
C247   C     0.51183   0.45983   0.09197   0.00000  Uiso   1.00
C248   C     0.48849   0.54018   0.45422   0.00000  Uiso   1.00
C249   C     0.51151   0.45982   0.04578   0.00000  Uiso   1.00
C250   C     0.49982   0.50019   0.47682   0.00000  Uiso   1.00
C251   C     0.50018   0.49981   0.02318   0.00000  Uiso   1.00
C252   C     0.51075   0.46054   0.45310   0.00000  Uiso   1.00
C253   C     0.48925   0.53946   0.04690   0.00000  Uiso   1.00
C254   C     0.47768   0.57939   0.47819   0.00000  Uiso   1.00
C255   C     0.47809   0.57900   0.02438   0.00000  Uiso   1.00
C256   C     0.52232   0.42061   0.02181   0.00000  Uiso   1.00
C257   C     0.52191   0.42100   0.47562   0.00000  Uiso   1.00
C258   C     0.35460   0.45928   0.24251   0.00000  Uiso   1.00
C259   C     0.64540   0.54072   0.25749   0.00000  Uiso   1.00
C260   C     0.64534   0.45927   0.24257   0.00000  Uiso   1.00
C261   C     0.35466   0.54073   0.25743   0.00000  Uiso   1.00
C262   C     0.62420   0.50000   0.25005   0.00000  Uiso   1.00
F263   F     0.47637   0.57829   0.38607   0.00000  Uiso   1.00
F264   F     0.52363   0.42171   0.11393   0.00000  Uiso   1.00
F265   F     0.55172   0.38050   0.30562   0.00000  Uiso   1.00
F266   F     0.44828   0.61950   0.19438   0.00000  Uiso   1.00
F267   F     0.44834   0.37968   0.19432   0.00000  Uiso   1.00
F268   F     0.55166   0.62032   0.30568   0.00000  Uiso   1.00
H269   H     0.51925   0.43074   0.38882   0.00000  Uiso   1.00
H270   H     0.37089   0.57240   0.26346   0.00000  Uiso   1.00
H271   H     0.48075   0.56926   0.11118   0.00000  Uiso   1.00
H272   H     0.46897   0.61036   0.46138   0.00000  Uiso   1.00
H273   H     0.53103   0.38964   0.03862   0.00000  Uiso   1.00
H274   H     0.46968   0.60957   0.04247   0.00000  Uiso   1.00
H275   H     0.53032   0.39043   0.45753   0.00000  Uiso   1.00
H276   H     0.37078   0.42761   0.23644   0.00000  Uiso   1.00
H277   H     0.62922   0.57239   0.26356   0.00000  Uiso   1.00
H278   H     0.62910   0.42760   0.23654   0.00000  Uiso   1.00
N279   N     0.50000   0.61907   0.25000   0.00000  Uiso   1.00
N280   N     0.50000   0.38093   0.25000   0.00000  Uiso   1.00
O281   O     0.43892   0.53821   0.24999   0.00000  Uiso   1.00
O282   O     0.56108   0.46179   0.25001   0.00000  Uiso   1.00
O283   O     0.56108   0.53821   0.25000   0.00000  Uiso   1.00
O284   O     0.43892   0.46179   0.24999   0.00000  Uiso   1.00
O285   O     0.49999   0.53823   0.18392   0.00000  Uiso   1.00
O286   O     0.50001   0.46177   0.31608   0.00000  Uiso   1.00
O287   O     0.50001   0.53823   0.31607   0.00000  Uiso   1.00
O288   O     0.49999   0.46177   0.18393   0.00000  Uiso   1.00
Zn289  Zn    0.50000   0.55104   0.25000   0.00000  Uiso   1.00
Zn290  Zn    0.50000   0.44896   0.25000   0.00000  Uiso   1.00
C291   C     0.75328   0.50000   0.24996   0.00000  Uiso   1.00
C292   C     0.70914   0.50000   0.24995   0.00000  Uiso   1.00
C293   C     0.85916   0.35754   0.27781   0.00000  Uiso   1.00
C294   C     0.80750   0.64246   0.22219   0.00000  Uiso   1.00
C295   C     0.80751   0.35713   0.22218   0.00000  Uiso   1.00
C296   C     0.85915   0.64287   0.27782   0.00000  Uiso   1.00
C297   C     0.83364   0.49979   0.16327   0.00000  Uiso   1.00
C298   C     0.83302   0.50021   0.33673   0.00000  Uiso   1.00
C299   C     0.84379   0.46109   0.40712   0.00000  Uiso   1.00
C300   C     0.82287   0.53891   0.09288   0.00000  Uiso   1.00
C301   C     0.83270   0.50065   0.38467   0.00000  Uiso   1.00
C302   C     0.91339   0.50000   0.25004   0.00000  Uiso   1.00
C303   C     0.83397   0.49935   0.11533   0.00000  Uiso   1.00
C304   C     0.82150   0.54017   0.40803   0.00000  Uiso   1.00
C305   C     0.84516   0.45983   0.09197   0.00000  Uiso   1.00
C306   C     0.82182   0.54018   0.45422   0.00000  Uiso   1.00
C307   C     0.84484   0.45982   0.04578   0.00000  Uiso   1.00
C308   C     0.83315   0.50019   0.47682   0.00000  Uiso   1.00
C309   C     0.83352   0.49981   0.02318   0.00000  Uiso   1.00
C310   C     0.84408   0.46054   0.45310   0.00000  Uiso   1.00
C311   C     0.82258   0.53946   0.04690   0.00000  Uiso   1.00
C312   C     0.81102   0.57939   0.47819   0.00000  Uiso   1.00
C313   C     0.81142   0.57900   0.02438   0.00000  Uiso   1.00
C314   C     0.85565   0.42061   0.02181   0.00000  Uiso   1.00
C315   C     0.85525   0.42100   0.47562   0.00000  Uiso   1.00
C316   C     0.68793   0.45928   0.24251   0.00000  Uiso   1.00
C317   C     0.97874   0.54072   0.25749   0.00000  Uiso   1.00
C318   C     0.97867   0.45927   0.24257   0.00000  Uiso   1.00
C319   C     0.68800   0.54073   0.25743   0.00000  Uiso   1.00
C320   C     0.95753   0.50000   0.25005   0.00000  Uiso   1.00
F321   F     0.80970   0.57829   0.38607   0.00000  Uiso   1.00
F322   F     0.85696   0.42171   0.11393   0.00000  Uiso   1.00
F323   F     0.88506   0.38050   0.30562   0.00000  Uiso   1.00
F324   F     0.78161   0.61950   0.19438   0.00000  Uiso   1.00
F325   F     0.78168   0.37968   0.19432   0.00000  Uiso   1.00
F326   F     0.88499   0.62032   0.30568   0.00000  Uiso   1.00
H327   H     0.85259   0.43074   0.38882   0.00000  Uiso   1.00
H328   H     0.70423   0.57240   0.26346   0.00000  Uiso   1.00
H329   H     0.81408   0.56926   0.11118   0.00000  Uiso   1.00
H330   H     0.80230   0.61036   0.46138   0.00000  Uiso   1.00
H331   H     0.86436   0.38964   0.03862   0.00000  Uiso   1.00
H332   H     0.80302   0.60957   0.04247   0.00000  Uiso   1.00
H333   H     0.86365   0.39043   0.45753   0.00000  Uiso   1.00
H334   H     0.70411   0.42761   0.23644   0.00000  Uiso   1.00
H335   H     0.96256   0.57239   0.26356   0.00000  Uiso   1.00
H336   H     0.96244   0.42760   0.23654   0.00000  Uiso   1.00
N337   N     0.83333   0.61907   0.25000   0.00000  Uiso   1.00
N338   N     0.83333   0.38093   0.25000   0.00000  Uiso   1.00
O339   O     0.77226   0.53821   0.24999   0.00000  Uiso   1.00
O340   O     0.89441   0.46179   0.25001   0.00000  Uiso   1.00
O341   O     0.89441   0.53821   0.25000   0.00000  Uiso   1.00
O342   O     0.77226   0.46179   0.24999   0.00000  Uiso   1.00
O343   O     0.83333   0.53823   0.18392   0.00000  Uiso   1.00
O344   O     0.83334   0.46177   0.31608   0.00000  Uiso   1.00
O345   O     0.83334   0.53823   0.31607   0.00000  Uiso   1.00
O346   O     0.83333   0.46177   0.18393   0.00000  Uiso   1.00
Zn347  Zn    0.83333   0.55104   0.25000   0.00000  Uiso   1.00
Zn348  Zn    0.83333   0.44896   0.25000   0.00000  Uiso   1.00
C349   C     0.08661   0.83333   0.24996   0.00000  Uiso   1.00
C350   C     0.04247   0.83334   0.24995   0.00000  Uiso   1.00
C351   C     0.19250   0.69087   0.27781   0.00000  Uiso   1.00
C352   C     0.14084   0.97579   0.22219   0.00000  Uiso   1.00
C353   C     0.14085   0.69046   0.22218   0.00000  Uiso   1.00
C354   C     0.19249   0.97621   0.27782   0.00000  Uiso   1.00
C355   C     0.16698   0.83312   0.16327   0.00000  Uiso   1.00
C356   C     0.16636   0.83355   0.33673   0.00000  Uiso   1.00
C357   C     0.17713   0.79443   0.40712   0.00000  Uiso   1.00
C358   C     0.15621   0.87224   0.09288   0.00000  Uiso   1.00
C359   C     0.16603   0.83398   0.38467   0.00000  Uiso   1.00
C360   C     0.24672   0.83333   0.25004   0.00000  Uiso   1.00
C361   C     0.16730   0.83268   0.11533   0.00000  Uiso   1.00
C362   C     0.15484   0.87351   0.40803   0.00000  Uiso   1.00
C363   C     0.17850   0.79316   0.09197   0.00000  Uiso   1.00
C364   C     0.15516   0.87352   0.45422   0.00000  Uiso   1.00
C365   C     0.17818   0.79315   0.04578   0.00000  Uiso   1.00
C366   C     0.16648   0.83352   0.47682   0.00000  Uiso   1.00
C367   C     0.16685   0.83315   0.02318   0.00000  Uiso   1.00
C368   C     0.17742   0.79387   0.45310   0.00000  Uiso   1.00
C369   C     0.15592   0.87279   0.04690   0.00000  Uiso   1.00
C370   C     0.14435   0.91272   0.47819   0.00000  Uiso   1.00
C371   C     0.14475   0.91234   0.02438   0.00000  Uiso   1.00
C372   C     0.18898   0.75395   0.02181   0.00000  Uiso   1.00
C373   C     0.18858   0.75433   0.47562   0.00000  Uiso   1.00
C374   C     0.02126   0.79261   0.24251   0.00000  Uiso   1.00
C375   C     0.31207   0.87406   0.25749   0.00000  Uiso   1.00
C376   C     0.31200   0.79260   0.24257   0.00000  Uiso   1.00
C377   C     0.02133   0.87406   0.25743   0.00000  Uiso   1.00
C378   C     0.29086   0.83333   0.25005   0.00000  Uiso   1.00
F379   F     0.14304   0.91163   0.38607   0.00000  Uiso   1.00
F380   F     0.19030   0.75504   0.11393   0.00000  Uiso   1.00
F381   F     0.21839   0.71384   0.30562   0.00000  Uiso   1.00
F382   F     0.11494   0.95283   0.19438   0.00000  Uiso   1.00
F383   F     0.11501   0.71301   0.19432   0.00000  Uiso   1.00
F384   F     0.21832   0.95365   0.30568   0.00000  Uiso   1.00
H385   H     0.18592   0.76408   0.38882   0.00000  Uiso   1.00
H386   H     0.03756   0.90573   0.26346   0.00000  Uiso   1.00
H387   H     0.14741   0.90259   0.11118   0.00000  Uiso   1.00
H388   H     0.13564   0.94370   0.46138   0.00000  Uiso   1.00
H389   H     0.19770   0.72297   0.03862   0.00000  Uiso   1.00
H390   H     0.13635   0.94291   0.04247   0.00000  Uiso   1.00
H391   H     0.19698   0.72376   0.45753   0.00000  Uiso   1.00
H392   H     0.03744   0.76094   0.23644   0.00000  Uiso   1.00
H393   H     0.29589   0.90573   0.26356   0.00000  Uiso   1.00
H394   H     0.29577   0.76093   0.23654   0.00000  Uiso   1.00
N395   N     0.16667   0.95240   0.25000   0.00000  Uiso   1.00
N396   N     0.16667   0.71427   0.25000   0.00000  Uiso   1.00
O397   O     0.10559   0.87154   0.24999   0.00000  Uiso   1.00
O398   O     0.22774   0.79513   0.25001   0.00000  Uiso   1.00
O399   O     0.22774   0.87154   0.25000   0.00000  Uiso   1.00
O400   O     0.10559   0.79513   0.24999   0.00000  Uiso   1.00
O401   O     0.16666   0.87156   0.18392   0.00000  Uiso   1.00
O402   O     0.16667   0.79511   0.31608   0.00000  Uiso   1.00
O403   O     0.16667   0.87156   0.31607   0.00000  Uiso   1.00
O404   O     0.16666   0.79511   0.18393   0.00000  Uiso   1.00
Zn405  Zn    0.16667   0.88437   0.25000   0.00000  Uiso   1.00
Zn406  Zn    0.16667   0.78229   0.25000   0.00000  Uiso   1.00
C407   C     0.41994   0.83333   0.24996   0.00000  Uiso   1.00
C408   C     0.37580   0.83334   0.24995   0.00000  Uiso   1.00
C409   C     0.52583   0.69087   0.27781   0.00000  Uiso   1.00
C410   C     0.47417   0.97579   0.22219   0.00000  Uiso   1.00
C411   C     0.47418   0.69046   0.22218   0.00000  Uiso   1.00
C412   C     0.52582   0.97621   0.27782   0.00000  Uiso   1.00
C413   C     0.50031   0.83312   0.16327   0.00000  Uiso   1.00
C414   C     0.49969   0.83355   0.33673   0.00000  Uiso   1.00
C415   C     0.51046   0.79443   0.40712   0.00000  Uiso   1.00
C416   C     0.48954   0.87224   0.09288   0.00000  Uiso   1.00
C417   C     0.49937   0.83398   0.38467   0.00000  Uiso   1.00
C418   C     0.58006   0.83333   0.25004   0.00000  Uiso   1.00
C419   C     0.50063   0.83268   0.11533   0.00000  Uiso   1.00
C420   C     0.48817   0.87351   0.40803   0.00000  Uiso   1.00
C421   C     0.51183   0.79316   0.09197   0.00000  Uiso   1.00
C422   C     0.48849   0.87352   0.45422   0.00000  Uiso   1.00
C423   C     0.51151   0.79315   0.04578   0.00000  Uiso   1.00
C424   C     0.49982   0.83352   0.47682   0.00000  Uiso   1.00
C425   C     0.50018   0.83315   0.02318   0.00000  Uiso   1.00
C426   C     0.51075   0.79387   0.45310   0.00000  Uiso   1.00
C427   C     0.48925   0.87279   0.04690   0.00000  Uiso   1.00
C428   C     0.47768   0.91272   0.47819   0.00000  Uiso   1.00
C429   C     0.47809   0.91234   0.02438   0.00000  Uiso   1.00
C430   C     0.52232   0.75395   0.02181   0.00000  Uiso   1.00
C431   C     0.52191   0.75433   0.47562   0.00000  Uiso   1.00
C432   C     0.35460   0.79261   0.24251   0.00000  Uiso   1.00
C433   C     0.64540   0.87406   0.25749   0.00000  Uiso   1.00
C434   C     0.64534   0.79260   0.24257   0.00000  Uiso   1.00
C435   C     0.35466   0.87406   0.25743   0.00000  Uiso   1.00
C436   C     0.62420   0.83333   0.25005   0.00000  Uiso   1.00
F437   F     0.47637   0.91163   0.38607   0.00000  Uiso   1.00
F438   F     0.52363   0.75504   0.11393   0.00000  Uiso   1.00
F439   F     0.55172   0.71384   0.30562   0.00000  Uiso   1.00
F440   F     0.44828   0.95283   0.19438   0.00000  Uiso   1.00
F441   F     0.44834   0.71301   0.19432   0.00000  Uiso   1.00
F442   F     0.55166   0.95365   0.30568   0.00000  Uiso   1.00
H443   H     0.51925   0.76408   0.38882   0.00000  Uiso   1.00
H444   H     0.37089   0.90573   0.26346   0.00000  Uiso   1.00
H445   H     0.48075   0.90259   0.11118   0.00000  Uiso   1.00
H446   H     0.46897   0.94370   0.46138   0.00000  Uiso   1.00
H447   H     0.53103   0.72297   0.03862   0.00000  Uiso   1.00
H448   H     0.46968   0.94291   0.04247   0.00000  Uiso   1.00
H449   H     0.53032   0.72376   0.45753   0.00000  Uiso   1.00
H450   H     0.37078   0.76094   0.23644   0.00000  Uiso   1.00
H451   H     0.62922   0.90573   0.26356   0.00000  Uiso   1.00
H452   H     0.62910   0.76093   0.23654   0.00000  Uiso   1.00
N453   N     0.50000   0.95240   0.25000   0.00000  Uiso   1.00
N454   N     0.50000   0.71427   0.25000   0.00000  Uiso   1.00
O455   O     0.43892   0.87154   0.24999   0.00000  Uiso   1.00
O456   O     0.56108   0.79513   0.25001   0.00000  Uiso   1.00
O457   O     0.56108   0.87154   0.25000   0.00000  Uiso   1.00
O458   O     0.43892   0.79513   0.24999   0.00000  Uiso   1.00
O459   O     0.49999   0.87156   0.18392   0.00000  Uiso   1.00
O460   O     0.50001   0.79511   0.31608   0.00000  Uiso   1.00
O461   O     0.50001   0.87156   0.31607   0.00000  Uiso   1.00
O462   O     0.49999   0.79511   0.18393   0.00000  Uiso   1.00
Zn463  Zn    0.50000   0.88437   0.25000   0.00000  Uiso   1.00
Zn464  Zn    0.50000   0.78229   0.25000   0.00000  Uiso   1.00
C465   C     0.75328   0.83333   0.24996   0.00000  Uiso   1.00
C466   C     0.70914   0.83334   0.24995   0.00000  Uiso   1.00
C467   C     0.85916   0.69087   0.27781   0.00000  Uiso   1.00
C468   C     0.80750   0.97579   0.22219   0.00000  Uiso   1.00
C469   C     0.80751   0.69046   0.22218   0.00000  Uiso   1.00
C470   C     0.85915   0.97621   0.27782   0.00000  Uiso   1.00
C471   C     0.83364   0.83312   0.16327   0.00000  Uiso   1.00
C472   C     0.83302   0.83355   0.33673   0.00000  Uiso   1.00
C473   C     0.84379   0.79443   0.40712   0.00000  Uiso   1.00
C474   C     0.82287   0.87224   0.09288   0.00000  Uiso   1.00
C475   C     0.83270   0.83398   0.38467   0.00000  Uiso   1.00
C476   C     0.91339   0.83333   0.25004   0.00000  Uiso   1.00
C477   C     0.83397   0.83268   0.11533   0.00000  Uiso   1.00
C478   C     0.82150   0.87351   0.40803   0.00000  Uiso   1.00
C479   C     0.84516   0.79316   0.09197   0.00000  Uiso   1.00
C480   C     0.82182   0.87352   0.45422   0.00000  Uiso   1.00
C481   C     0.84484   0.79315   0.04578   0.00000  Uiso   1.00
C482   C     0.83315   0.83352   0.47682   0.00000  Uiso   1.00
C483   C     0.83352   0.83315   0.02318   0.00000  Uiso   1.00
C484   C     0.84408   0.79387   0.45310   0.00000  Uiso   1.00
C485   C     0.82258   0.87279   0.04690   0.00000  Uiso   1.00
C486   C     0.81102   0.91272   0.47819   0.00000  Uiso   1.00
C487   C     0.81142   0.91234   0.02438   0.00000  Uiso   1.00
C488   C     0.85565   0.75395   0.02181   0.00000  Uiso   1.00
C489   C     0.85525   0.75433   0.47562   0.00000  Uiso   1.00
C490   C     0.68793   0.79261   0.24251   0.00000  Uiso   1.00
C491   C     0.97874   0.87406   0.25749   0.00000  Uiso   1.00
C492   C     0.97867   0.79260   0.24257   0.00000  Uiso   1.00
C493   C     0.68800   0.87406   0.25743   0.00000  Uiso   1.00
C494   C     0.95753   0.83333   0.25005   0.00000  Uiso   1.00
F495   F     0.80970   0.91163   0.38607   0.00000  Uiso   1.00
F496   F     0.85696   0.75504   0.11393   0.00000  Uiso   1.00
F497   F     0.88506   0.71384   0.30562   0.00000  Uiso   1.00
F498   F     0.78161   0.95283   0.19438   0.00000  Uiso   1.00
F499   F     0.78168   0.71301   0.19432   0.00000  Uiso   1.00
F500   F     0.88499   0.95365   0.30568   0.00000  Uiso   1.00
H501   H     0.85259   0.76408   0.38882   0.00000  Uiso   1.00
H502   H     0.70423   0.90573   0.26346   0.00000  Uiso   1.00
H503   H     0.81408   0.90259   0.11118   0.00000  Uiso   1.00
H504   H     0.80230   0.94370   0.46138   0.00000  Uiso   1.00
H505   H     0.86436   0.72297   0.03862   0.00000  Uiso   1.00
H506   H     0.80302   0.94291   0.04247   0.00000  Uiso   1.00
H507   H     0.86365   0.72376   0.45753   0.00000  Uiso   1.00
H508   H     0.70411   0.76094   0.23644   0.00000  Uiso   1.00
H509   H     0.96256   0.90573   0.26356   0.00000  Uiso   1.00
H510   H     0.96244   0.76093   0.23654   0.00000  Uiso   1.00
N511   N     0.83333   0.95240   0.25000   0.00000  Uiso   1.00
N512   N     0.83333   0.71427   0.25000   0.00000  Uiso   1.00
O513   O     0.77226   0.87154   0.24999   0.00000  Uiso   1.00
O514   O     0.89441   0.79513   0.25001   0.00000  Uiso   1.00
O515   O     0.89441   0.87154   0.25000   0.00000  Uiso   1.00
O516   O     0.77226   0.79513   0.24999   0.00000  Uiso   1.00
O517   O     0.83333   0.87156   0.18392   0.00000  Uiso   1.00
O518   O     0.83334   0.79511   0.31608   0.00000  Uiso   1.00
O519   O     0.83334   0.87156   0.31607   0.00000  Uiso   1.00
O520   O     0.83333   0.79511   0.18393   0.00000  Uiso   1.00
Zn521  Zn    0.83333   0.88437   0.25000   0.00000  Uiso   1.00
Zn522  Zn    0.83333   0.78229   0.25000   0.00000  Uiso   1.00
C523   C     0.08661   0.16667   0.74996   0.00000  Uiso   1.00
C524   C     0.04247   0.16667   0.74995   0.00000  Uiso   1.00
C525   C     0.19250   0.02421   0.77781   0.00000  Uiso   1.00
C526   C     0.14084   0.30913   0.72219   0.00000  Uiso   1.00
C527   C     0.14085   0.02379   0.72218   0.00000  Uiso   1.00
C528   C     0.19249   0.30954   0.77782   0.00000  Uiso   1.00
C529   C     0.16698   0.16645   0.66327   0.00000  Uiso   1.00
C530   C     0.16636   0.16688   0.83673   0.00000  Uiso   1.00
C531   C     0.17713   0.12776   0.90712   0.00000  Uiso   1.00
C532   C     0.15621   0.20557   0.59288   0.00000  Uiso   1.00
C533   C     0.16603   0.16732   0.88467   0.00000  Uiso   1.00
C534   C     0.24672   0.16667   0.75004   0.00000  Uiso   1.00
C535   C     0.16730   0.16602   0.61533   0.00000  Uiso   1.00
C536   C     0.15484   0.20684   0.90803   0.00000  Uiso   1.00
C537   C     0.17850   0.12649   0.59197   0.00000  Uiso   1.00
C538   C     0.15516   0.20685   0.95422   0.00000  Uiso   1.00
C539   C     0.17818   0.12648   0.54578   0.00000  Uiso   1.00
C540   C     0.16648   0.16685   0.97682   0.00000  Uiso   1.00
C541   C     0.16685   0.16648   0.52318   0.00000  Uiso   1.00
C542   C     0.17742   0.12721   0.95310   0.00000  Uiso   1.00
C543   C     0.15592   0.20613   0.54690   0.00000  Uiso   1.00
C544   C     0.14435   0.24605   0.97819   0.00000  Uiso   1.00
C545   C     0.14475   0.24567   0.52438   0.00000  Uiso   1.00
C546   C     0.18898   0.08728   0.52181   0.00000  Uiso   1.00
C547   C     0.18858   0.08766   0.97562   0.00000  Uiso   1.00
C548   C     0.02126   0.12594   0.74251   0.00000  Uiso   1.00
C549   C     0.31207   0.20739   0.75749   0.00000  Uiso   1.00
C550   C     0.31200   0.12594   0.74257   0.00000  Uiso   1.00
C551   C     0.02133   0.20740   0.75743   0.00000  Uiso   1.00
C552   C     0.29086   0.16666   0.75005   0.00000  Uiso   1.00
F553   F     0.14304   0.24496   0.88607   0.00000  Uiso   1.00
F554   F     0.19030   0.08837   0.61393   0.00000  Uiso   1.00
F555   F     0.21839   0.04717   0.80562   0.00000  Uiso   1.00
F556   F     0.11494   0.28616   0.69438   0.00000  Uiso   1.00
F557   F     0.11501   0.04635   0.69432   0.00000  Uiso   1.00
F558   F     0.21832   0.28699   0.80568   0.00000  Uiso   1.00
H559   H     0.18592   0.09741   0.88882   0.00000  Uiso   1.00
H560   H     0.03756   0.23907   0.76346   0.00000  Uiso   1.00
H561   H     0.14741   0.23592   0.61118   0.00000  Uiso   1.00
H562   H     0.13564   0.27703   0.96138   0.00000  Uiso   1.00
H563   H     0.19770   0.05630   0.53862   0.00000  Uiso   1.00
H564   H     0.13635   0.27624   0.54247   0.00000  Uiso   1.00
H565   H     0.19698   0.05709   0.95753   0.00000  Uiso   1.00
H566   H     0.03744   0.09427   0.73644   0.00000  Uiso   1.00
H567   H     0.29589   0.23906   0.76356   0.00000  Uiso   1.00
H568   H     0.29577   0.09427   0.73654   0.00000  Uiso   1.00
N569   N     0.16667   0.28573   0.75000   0.00000  Uiso   1.00
N570   N     0.16667   0.04760   0.75000   0.00000  Uiso   1.00
O571   O     0.10559   0.20487   0.74999   0.00000  Uiso   1.00
O572   O     0.22774   0.12846   0.75001   0.00000  Uiso   1.00
O573   O     0.22774   0.20487   0.75000   0.00000  Uiso   1.00
O574   O     0.10559   0.12846   0.74999   0.00000  Uiso   1.00
O575   O     0.16666   0.20489   0.68392   0.00000  Uiso   1.00
O576   O     0.16667   0.12844   0.81608   0.00000  Uiso   1.00
O577   O     0.16667   0.20489   0.81607   0.00000  Uiso   1.00
O578   O     0.16666   0.12844   0.68393   0.00000  Uiso   1.00
Zn579  Zn    0.16667   0.21771   0.75000   0.00000  Uiso   1.00
Zn580  Zn    0.16667   0.11563   0.75000   0.00000  Uiso   1.00
C581   C     0.41994   0.16667   0.74996   0.00000  Uiso   1.00
C582   C     0.37580   0.16667   0.74995   0.00000  Uiso   1.00
C583   C     0.52583   0.02421   0.77781   0.00000  Uiso   1.00
C584   C     0.47417   0.30913   0.72219   0.00000  Uiso   1.00
C585   C     0.47418   0.02379   0.72218   0.00000  Uiso   1.00
C586   C     0.52582   0.30954   0.77782   0.00000  Uiso   1.00
C587   C     0.50031   0.16645   0.66327   0.00000  Uiso   1.00
C588   C     0.49969   0.16688   0.83673   0.00000  Uiso   1.00
C589   C     0.51046   0.12776   0.90712   0.00000  Uiso   1.00
C590   C     0.48954   0.20557   0.59288   0.00000  Uiso   1.00
C591   C     0.49937   0.16732   0.88467   0.00000  Uiso   1.00
C592   C     0.58006   0.16667   0.75004   0.00000  Uiso   1.00
C593   C     0.50063   0.16602   0.61533   0.00000  Uiso   1.00
C594   C     0.48817   0.20684   0.90803   0.00000  Uiso   1.00
C595   C     0.51183   0.12649   0.59197   0.00000  Uiso   1.00
C596   C     0.48849   0.20685   0.95422   0.00000  Uiso   1.00
C597   C     0.51151   0.12648   0.54578   0.00000  Uiso   1.00
C598   C     0.49982   0.16685   0.97682   0.00000  Uiso   1.00
C599   C     0.50018   0.16648   0.52318   0.00000  Uiso   1.00
C600   C     0.51075   0.12721   0.95310   0.00000  Uiso   1.00
C601   C     0.48925   0.20613   0.54690   0.00000  Uiso   1.00
C602   C     0.47768   0.24605   0.97819   0.00000  Uiso   1.00
C603   C     0.47809   0.24567   0.52438   0.00000  Uiso   1.00
C604   C     0.52232   0.08728   0.52181   0.00000  Uiso   1.00
C605   C     0.52191   0.08766   0.97562   0.00000  Uiso   1.00
C606   C     0.35460   0.12594   0.74251   0.00000  Uiso   1.00
C607   C     0.64540   0.20739   0.75749   0.00000  Uiso   1.00
C608   C     0.64534   0.12594   0.74257   0.00000  Uiso   1.00
C609   C     0.35466   0.20740   0.75743   0.00000  Uiso   1.00
C610   C     0.62420   0.16666   0.75005   0.00000  Uiso   1.00
F611   F     0.47637   0.24496   0.88607   0.00000  Uiso   1.00
F612   F     0.52363   0.08837   0.61393   0.00000  Uiso   1.00
F613   F     0.55172   0.04717   0.80562   0.00000  Uiso   1.00
F614   F     0.44828   0.28616   0.69438   0.00000  Uiso   1.00
F615   F     0.44834   0.04635   0.69432   0.00000  Uiso   1.00
F616   F     0.55166   0.28699   0.80568   0.00000  Uiso   1.00
H617   H     0.51925   0.09741   0.88882   0.00000  Uiso   1.00
H618   H     0.37089   0.23907   0.76346   0.00000  Uiso   1.00
H619   H     0.48075   0.23592   0.61118   0.00000  Uiso   1.00
H620   H     0.46897   0.27703   0.96138   0.00000  Uiso   1.00
H621   H     0.53103   0.05630   0.53862   0.00000  Uiso   1.00
H622   H     0.46968   0.27624   0.54247   0.00000  Uiso   1.00
H623   H     0.53032   0.05709   0.95753   0.00000  Uiso   1.00
H624   H     0.37078   0.09427   0.73644   0.00000  Uiso   1.00
H625   H     0.62922   0.23906   0.76356   0.00000  Uiso   1.00
H626   H     0.62910   0.09427   0.73654   0.00000  Uiso   1.00
N627   N     0.50000   0.28573   0.75000   0.00000  Uiso   1.00
N628   N     0.50000   0.04760   0.75000   0.00000  Uiso   1.00
O629   O     0.43892   0.20487   0.74999   0.00000  Uiso   1.00
O630   O     0.56108   0.12846   0.75001   0.00000  Uiso   1.00
O631   O     0.56108   0.20487   0.75000   0.00000  Uiso   1.00
O632   O     0.43892   0.12846   0.74999   0.00000  Uiso   1.00
O633   O     0.49999   0.20489   0.68392   0.00000  Uiso   1.00
O634   O     0.50001   0.12844   0.81608   0.00000  Uiso   1.00
O635   O     0.50001   0.20489   0.81607   0.00000  Uiso   1.00
O636   O     0.49999   0.12844   0.68393   0.00000  Uiso   1.00
Zn637  Zn    0.50000   0.21771   0.75000   0.00000  Uiso   1.00
Zn638  Zn    0.50000   0.11563   0.75000   0.00000  Uiso   1.00
C639   C     0.75328   0.16667   0.74996   0.00000  Uiso   1.00
C640   C     0.70914   0.16667   0.74995   0.00000  Uiso   1.00
C641   C     0.85916   0.02421   0.77781   0.00000  Uiso   1.00
C642   C     0.80750   0.30913   0.72219   0.00000  Uiso   1.00
C643   C     0.80751   0.02379   0.72218   0.00000  Uiso   1.00
C644   C     0.85915   0.30954   0.77782   0.00000  Uiso   1.00
C645   C     0.83364   0.16645   0.66327   0.00000  Uiso   1.00
C646   C     0.83302   0.16688   0.83673   0.00000  Uiso   1.00
C647   C     0.84379   0.12776   0.90712   0.00000  Uiso   1.00
C648   C     0.82287   0.20557   0.59288   0.00000  Uiso   1.00
C649   C     0.83270   0.16732   0.88467   0.00000  Uiso   1.00
C650   C     0.91339   0.16667   0.75004   0.00000  Uiso   1.00
C651   C     0.83397   0.16602   0.61533   0.00000  Uiso   1.00
C652   C     0.82150   0.20684   0.90803   0.00000  Uiso   1.00
C653   C     0.84516   0.12649   0.59197   0.00000  Uiso   1.00
C654   C     0.82182   0.20685   0.95422   0.00000  Uiso   1.00
C655   C     0.84484   0.12648   0.54578   0.00000  Uiso   1.00
C656   C     0.83315   0.16685   0.97682   0.00000  Uiso   1.00
C657   C     0.83352   0.16648   0.52318   0.00000  Uiso   1.00
C658   C     0.84408   0.12721   0.95310   0.00000  Uiso   1.00
C659   C     0.82258   0.20613   0.54690   0.00000  Uiso   1.00
C660   C     0.81102   0.24605   0.97819   0.00000  Uiso   1.00
C661   C     0.81142   0.24567   0.52438   0.00000  Uiso   1.00
C662   C     0.85565   0.08728   0.52181   0.00000  Uiso   1.00
C663   C     0.85525   0.08766   0.97562   0.00000  Uiso   1.00
C664   C     0.68793   0.12594   0.74251   0.00000  Uiso   1.00
C665   C     0.97874   0.20739   0.75749   0.00000  Uiso   1.00
C666   C     0.97867   0.12594   0.74257   0.00000  Uiso   1.00
C667   C     0.68800   0.20740   0.75743   0.00000  Uiso   1.00
C668   C     0.95753   0.16666   0.75005   0.00000  Uiso   1.00
F669   F     0.80970   0.24496   0.88607   0.00000  Uiso   1.00
F670   F     0.85696   0.08837   0.61393   0.00000  Uiso   1.00
F671   F     0.88506   0.04717   0.80562   0.00000  Uiso   1.00
F672   F     0.78161   0.28616   0.69438   0.00000  Uiso   1.00
F673   F     0.78168   0.04635   0.69432   0.00000  Uiso   1.00
F674   F     0.88499   0.28699   0.80568   0.00000  Uiso   1.00
H675   H     0.85259   0.09741   0.88882   0.00000  Uiso   1.00
H676   H     0.70423   0.23907   0.76346   0.00000  Uiso   1.00
H677   H     0.81408   0.23592   0.61118   0.00000  Uiso   1.00
H678   H     0.80230   0.27703   0.96138   0.00000  Uiso   1.00
H679   H     0.86436   0.05630   0.53862   0.00000  Uiso   1.00
H680   H     0.80302   0.27624   0.54247   0.00000  Uiso   1.00
H681   H     0.86365   0.05709   0.95753   0.00000  Uiso   1.00
H682   H     0.70411   0.09427   0.73644   0.00000  Uiso   1.00
H683   H     0.96256   0.23906   0.76356   0.00000  Uiso   1.00
H684   H     0.96244   0.09427   0.73654   0.00000  Uiso   1.00
N685   N     0.83333   0.28573   0.75000   0.00000  Uiso   1.00
N686   N     0.83333   0.04760   0.75000   0.00000  Uiso   1.00
O687   O     0.77226   0.20487   0.74999   0.00000  Uiso   1.00
O688   O     0.89441   0.12846   0.75001   0.00000  Uiso   1.00
O689   O     0.89441   0.20487   0.75000   0.00000  Uiso   1.00
O690   O     0.77226   0.12846   0.74999   0.00000  Uiso   1.00
O691   O     0.83333   0.20489   0.68392   0.00000  Uiso   1.00
O692   O     0.83334   0.12844   0.81608   0.00000  Uiso   1.00
O693   O     0.83334   0.20489   0.81607   0.00000  Uiso   1.00
O694   O     0.83333   0.12844   0.68393   0.00000  Uiso   1.00
Zn695  Zn    0.83333   0.21771   0.75000   0.00000  Uiso   1.00
Zn696  Zn    0.83333   0.11563   0.75000   0.00000  Uiso   1.00
C697   C     0.08661   0.50000   0.74996   0.00000  Uiso   1.00
C698   C     0.04247   0.50000   0.74995   0.00000  Uiso   1.00
C699   C     0.19250   0.35754   0.77781   0.00000  Uiso   1.00
C700   C     0.14084   0.64246   0.72219   0.00000  Uiso   1.00
C701   C     0.14085   0.35713   0.72218   0.00000  Uiso   1.00
C702   C     0.19249   0.64287   0.77782   0.00000  Uiso   1.00
C703   C     0.16698   0.49979   0.66327   0.00000  Uiso   1.00
C704   C     0.16636   0.50021   0.83673   0.00000  Uiso   1.00
C705   C     0.17713   0.46109   0.90712   0.00000  Uiso   1.00
C706   C     0.15621   0.53891   0.59288   0.00000  Uiso   1.00
C707   C     0.16603   0.50065   0.88467   0.00000  Uiso   1.00
C708   C     0.24672   0.50000   0.75004   0.00000  Uiso   1.00
C709   C     0.16730   0.49935   0.61533   0.00000  Uiso   1.00
C710   C     0.15484   0.54017   0.90803   0.00000  Uiso   1.00
C711   C     0.17850   0.45983   0.59197   0.00000  Uiso   1.00
C712   C     0.15516   0.54018   0.95422   0.00000  Uiso   1.00
C713   C     0.17818   0.45982   0.54578   0.00000  Uiso   1.00
C714   C     0.16648   0.50019   0.97682   0.00000  Uiso   1.00
C715   C     0.16685   0.49981   0.52318   0.00000  Uiso   1.00
C716   C     0.17742   0.46054   0.95310   0.00000  Uiso   1.00
C717   C     0.15592   0.53946   0.54690   0.00000  Uiso   1.00
C718   C     0.14435   0.57939   0.97819   0.00000  Uiso   1.00
C719   C     0.14475   0.57900   0.52438   0.00000  Uiso   1.00
C720   C     0.18898   0.42061   0.52181   0.00000  Uiso   1.00
C721   C     0.18858   0.42100   0.97562   0.00000  Uiso   1.00
C722   C     0.02126   0.45928   0.74251   0.00000  Uiso   1.00
C723   C     0.31207   0.54072   0.75749   0.00000  Uiso   1.00
C724   C     0.31200   0.45927   0.74257   0.00000  Uiso   1.00
C725   C     0.02133   0.54073   0.75743   0.00000  Uiso   1.00
C726   C     0.29086   0.50000   0.75005   0.00000  Uiso   1.00
F727   F     0.14304   0.57829   0.88607   0.00000  Uiso   1.00
F728   F     0.19030   0.42171   0.61393   0.00000  Uiso   1.00
F729   F     0.21839   0.38050   0.80562   0.00000  Uiso   1.00
F730   F     0.11494   0.61950   0.69438   0.00000  Uiso   1.00
F731   F     0.11501   0.37968   0.69432   0.00000  Uiso   1.00
F732   F     0.21832   0.62032   0.80568   0.00000  Uiso   1.00
H733   H     0.18592   0.43074   0.88882   0.00000  Uiso   1.00
H734   H     0.03756   0.57240   0.76346   0.00000  Uiso   1.00
H735   H     0.14741   0.56926   0.61118   0.00000  Uiso   1.00
H736   H     0.13564   0.61036   0.96138   0.00000  Uiso   1.00
H737   H     0.19770   0.38964   0.53862   0.00000  Uiso   1.00
H738   H     0.13635   0.60957   0.54247   0.00000  Uiso   1.00
H739   H     0.19698   0.39043   0.95753   0.00000  Uiso   1.00
H740   H     0.03744   0.42761   0.73644   0.00000  Uiso   1.00
H741   H     0.29589   0.57239   0.76356   0.00000  Uiso   1.00
H742   H     0.29577   0.42760   0.73654   0.00000  Uiso   1.00
N743   N     0.16667   0.61907   0.75000   0.00000  Uiso   1.00
N744   N     0.16667   0.38093   0.75000   0.00000  Uiso   1.00
O745   O     0.10559   0.53821   0.74999   0.00000  Uiso   1.00
O746   O     0.22774   0.46179   0.75001   0.00000  Uiso   1.00
O747   O     0.22774   0.53821   0.75000   0.00000  Uiso   1.00
O748   O     0.10559   0.46179   0.74999   0.00000  Uiso   1.00
O749   O     0.16666   0.53823   0.68392   0.00000  Uiso   1.00
O750   O     0.16667   0.46177   0.81608   0.00000  Uiso   1.00
O751   O     0.16667   0.53823   0.81607   0.00000  Uiso   1.00
O752   O     0.16666   0.46177   0.68393   0.00000  Uiso   1.00
Zn753  Zn    0.16667   0.55104   0.75000   0.00000  Uiso   1.00
Zn754  Zn    0.16667   0.44896   0.75000   0.00000  Uiso   1.00
C755   C     0.41994   0.50000   0.74996   0.00000  Uiso   1.00
C756   C     0.37580   0.50000   0.74995   0.00000  Uiso   1.00
C757   C     0.52583   0.35754   0.77781   0.00000  Uiso   1.00
C758   C     0.47417   0.64246   0.72219   0.00000  Uiso   1.00
C759   C     0.47418   0.35713   0.72218   0.00000  Uiso   1.00
C760   C     0.52582   0.64287   0.77782   0.00000  Uiso   1.00
C761   C     0.50031   0.49979   0.66327   0.00000  Uiso   1.00
C762   C     0.49969   0.50021   0.83673   0.00000  Uiso   1.00
C763   C     0.51046   0.46109   0.90712   0.00000  Uiso   1.00
C764   C     0.48954   0.53891   0.59288   0.00000  Uiso   1.00
C765   C     0.49937   0.50065   0.88467   0.00000  Uiso   1.00
C766   C     0.58006   0.50000   0.75004   0.00000  Uiso   1.00
C767   C     0.50063   0.49935   0.61533   0.00000  Uiso   1.00
C768   C     0.48817   0.54017   0.90803   0.00000  Uiso   1.00
C769   C     0.51183   0.45983   0.59197   0.00000  Uiso   1.00
C770   C     0.48849   0.54018   0.95422   0.00000  Uiso   1.00
C771   C     0.51151   0.45982   0.54578   0.00000  Uiso   1.00
C772   C     0.49982   0.50019   0.97682   0.00000  Uiso   1.00
C773   C     0.50018   0.49981   0.52318   0.00000  Uiso   1.00
C774   C     0.51075   0.46054   0.95310   0.00000  Uiso   1.00
C775   C     0.48925   0.53946   0.54690   0.00000  Uiso   1.00
C776   C     0.47768   0.57939   0.97819   0.00000  Uiso   1.00
C777   C     0.47809   0.57900   0.52438   0.00000  Uiso   1.00
C778   C     0.52232   0.42061   0.52181   0.00000  Uiso   1.00
C779   C     0.52191   0.42100   0.97562   0.00000  Uiso   1.00
C780   C     0.35460   0.45928   0.74251   0.00000  Uiso   1.00
C781   C     0.64540   0.54072   0.75749   0.00000  Uiso   1.00
C782   C     0.64534   0.45927   0.74257   0.00000  Uiso   1.00
C783   C     0.35466   0.54073   0.75743   0.00000  Uiso   1.00
C784   C     0.62420   0.50000   0.75005   0.00000  Uiso   1.00
F785   F     0.47637   0.57829   0.88607   0.00000  Uiso   1.00
F786   F     0.52363   0.42171   0.61393   0.00000  Uiso   1.00
F787   F     0.55172   0.38050   0.80562   0.00000  Uiso   1.00
F788   F     0.44828   0.61950   0.69438   0.00000  Uiso   1.00
F789   F     0.44834   0.37968   0.69432   0.00000  Uiso   1.00
F790   F     0.55166   0.62032   0.80568   0.00000  Uiso   1.00
H791   H     0.51925   0.43074   0.88882   0.00000  Uiso   1.00
H792   H     0.37089   0.57240   0.76346   0.00000  Uiso   1.00
H793   H     0.48075   0.56926   0.61118   0.00000  Uiso   1.00
H794   H     0.46897   0.61036   0.96138   0.00000  Uiso   1.00
H795   H     0.53103   0.38964   0.53862   0.00000  Uiso   1.00
H796   H     0.46968   0.60957   0.54247   0.00000  Uiso   1.00
H797   H     0.53032   0.39043   0.95753   0.00000  Uiso   1.00
H798   H     0.37078   0.42761   0.73644   0.00000  Uiso   1.00
H799   H     0.62922   0.57239   0.76356   0.00000  Uiso   1.00
H800   H     0.62910   0.42760   0.73654   0.00000  Uiso   1.00
N801   N     0.50000   0.61907   0.75000   0.00000  Uiso   1.00
N802   N     0.50000   0.38093   0.75000   0.00000  Uiso   1.00
O803   O     0.43892   0.53821   0.74999   0.00000  Uiso   1.00
O804   O     0.56108   0.46179   0.75001   0.00000  Uiso   1.00
O805   O     0.56108   0.53821   0.75000   0.00000  Uiso   1.00
O806   O     0.43892   0.46179   0.74999   0.00000  Uiso   1.00
O807   O     0.49999   0.53823   0.68392   0.00000  Uiso   1.00
O808   O     0.50001   0.46177   0.81608   0.00000  Uiso   1.00
O809   O     0.50001   0.53823   0.81607   0.00000  Uiso   1.00
O810   O     0.49999   0.46177   0.68393   0.00000  Uiso   1.00
Zn811  Zn    0.50000   0.55104   0.75000   0.00000  Uiso   1.00
Zn812  Zn    0.50000   0.44896   0.75000   0.00000  Uiso   1.00
C813   C     0.75328   0.50000   0.74996   0.00000  Uiso   1.00
C814   C     0.70914   0.50000   0.74995   0.00000  Uiso   1.00
C815   C     0.85916   0.35754   0.77781   0.00000  Uiso   1.00
C816   C     0.80750   0.64246   0.72219   0.00000  Uiso   1.00
C817   C     0.80751   0.35713   0.72218   0.00000  Uiso   1.00
C818   C     0.85915   0.64287   0.77782   0.00000  Uiso   1.00
C819   C     0.83364   0.49979   0.66327   0.00000  Uiso   1.00
C820   C     0.83302   0.50021   0.83673   0.00000  Uiso   1.00
C821   C     0.84379   0.46109   0.90712   0.00000  Uiso   1.00
C822   C     0.82287   0.53891   0.59288   0.00000  Uiso   1.00
C823   C     0.83270   0.50065   0.88467   0.00000  Uiso   1.00
C824   C     0.91339   0.50000   0.75004   0.00000  Uiso   1.00
C825   C     0.83397   0.49935   0.61533   0.00000  Uiso   1.00
C826   C     0.82150   0.54017   0.90803   0.00000  Uiso   1.00
C827   C     0.84516   0.45983   0.59197   0.00000  Uiso   1.00
C828   C     0.82182   0.54018   0.95422   0.00000  Uiso   1.00
C829   C     0.84484   0.45982   0.54578   0.00000  Uiso   1.00
C830   C     0.83315   0.50019   0.97682   0.00000  Uiso   1.00
C831   C     0.83352   0.49981   0.52318   0.00000  Uiso   1.00
C832   C     0.84408   0.46054   0.95310   0.00000  Uiso   1.00
C833   C     0.82258   0.53946   0.54690   0.00000  Uiso   1.00
C834   C     0.81102   0.57939   0.97819   0.00000  Uiso   1.00
C835   C     0.81142   0.57900   0.52438   0.00000  Uiso   1.00
C836   C     0.85565   0.42061   0.52181   0.00000  Uiso   1.00
C837   C     0.85525   0.42100   0.97562   0.00000  Uiso   1.00
C838   C     0.68793   0.45928   0.74251   0.00000  Uiso   1.00
C839   C     0.97874   0.54072   0.75749   0.00000  Uiso   1.00
C840   C     0.97867   0.45927   0.74257   0.00000  Uiso   1.00
C841   C     0.68800   0.54073   0.75743   0.00000  Uiso   1.00
C842   C     0.95753   0.50000   0.75005   0.00000  Uiso   1.00
F843   F     0.80970   0.57829   0.88607   0.00000  Uiso   1.00
F844   F     0.85696   0.42171   0.61393   0.00000  Uiso   1.00
F845   F     0.88506   0.38050   0.80562   0.00000  Uiso   1.00
F846   F     0.78161   0.61950   0.69438   0.00000  Uiso   1.00
F847   F     0.78168   0.37968   0.69432   0.00000  Uiso   1.00
F848   F     0.88499   0.62032   0.80568   0.00000  Uiso   1.00
H849   H     0.85259   0.43074   0.88882   0.00000  Uiso   1.00
H850   H     0.70423   0.57240   0.76346   0.00000  Uiso   1.00
H851   H     0.81408   0.56926   0.61118   0.00000  Uiso   1.00
H852   H     0.80230   0.61036   0.96138   0.00000  Uiso   1.00
H853   H     0.86436   0.38964   0.53862   0.00000  Uiso   1.00
H854   H     0.80302   0.60957   0.54247   0.00000  Uiso   1.00
H855   H     0.86365   0.39043   0.95753   0.00000  Uiso   1.00
H856   H     0.70411   0.42761   0.73644   0.00000  Uiso   1.00
H857   H     0.96256   0.57239   0.76356   0.00000  Uiso   1.00
H858   H     0.96244   0.42760   0.73654   0.00000  Uiso   1.00
N859   N     0.83333   0.61907   0.75000   0.00000  Uiso   1.00
N860   N     0.83333   0.38093   0.75000   0.00000  Uiso   1.00
O861   O     0.77226   0.53821   0.74999   0.00000  Uiso   1.00
O862   O     0.89441   0.46179   0.75001   0.00000  Uiso   1.00
O863   O     0.89441   0.53821   0.75000   0.00000  Uiso   1.00
O864   O     0.77226   0.46179   0.74999   0.00000  Uiso   1.00
O865   O     0.83333   0.53823   0.68392   0.00000  Uiso   1.00
O866   O     0.83334   0.46177   0.81608   0.00000  Uiso   1.00
O867   O     0.83334   0.53823   0.81607   0.00000  Uiso   1.00
O868   O     0.83333   0.46177   0.68393   0.00000  Uiso   1.00
Zn869  Zn    0.83333   0.55104   0.75000   0.00000  Uiso   1.00
Zn870  Zn    0.83333   0.44896   0.75000   0.00000  Uiso   1.00
C871   C     0.08661   0.83333   0.74996   0.00000  Uiso   1.00
C872   C     0.04247   0.83334   0.74995   0.00000  Uiso   1.00
C873   C     0.19250   0.69087   0.77781   0.00000  Uiso   1.00
C874   C     0.14084   0.97579   0.72219   0.00000  Uiso   1.00
C875   C     0.14085   0.69046   0.72218   0.00000  Uiso   1.00
C876   C     0.19249   0.97621   0.77782   0.00000  Uiso   1.00
C877   C     0.16698   0.83312   0.66327   0.00000  Uiso   1.00
C878   C     0.16636   0.83355   0.83673   0.00000  Uiso   1.00
C879   C     0.17713   0.79443   0.90712   0.00000  Uiso   1.00
C880   C     0.15621   0.87224   0.59288   0.00000  Uiso   1.00
C881   C     0.16603   0.83398   0.88467   0.00000  Uiso   1.00
C882   C     0.24672   0.83333   0.75004   0.00000  Uiso   1.00
C883   C     0.16730   0.83268   0.61533   0.00000  Uiso   1.00
C884   C     0.15484   0.87351   0.90803   0.00000  Uiso   1.00
C885   C     0.17850   0.79316   0.59197   0.00000  Uiso   1.00
C886   C     0.15516   0.87352   0.95422   0.00000  Uiso   1.00
C887   C     0.17818   0.79315   0.54578   0.00000  Uiso   1.00
C888   C     0.16648   0.83352   0.97682   0.00000  Uiso   1.00
C889   C     0.16685   0.83315   0.52318   0.00000  Uiso   1.00
C890   C     0.17742   0.79387   0.95310   0.00000  Uiso   1.00
C891   C     0.15592   0.87279   0.54690   0.00000  Uiso   1.00
C892   C     0.14435   0.91272   0.97819   0.00000  Uiso   1.00
C893   C     0.14475   0.91234   0.52438   0.00000  Uiso   1.00
C894   C     0.18898   0.75395   0.52181   0.00000  Uiso   1.00
C895   C     0.18858   0.75433   0.97562   0.00000  Uiso   1.00
C896   C     0.02126   0.79261   0.74251   0.00000  Uiso   1.00
C897   C     0.31207   0.87406   0.75749   0.00000  Uiso   1.00
C898   C     0.31200   0.79260   0.74257   0.00000  Uiso   1.00
C899   C     0.02133   0.87406   0.75743   0.00000  Uiso   1.00
C900   C     0.29086   0.83333   0.75005   0.00000  Uiso   1.00
F901   F     0.14304   0.91163   0.88607   0.00000  Uiso   1.00
F902   F     0.19030   0.75504   0.61393   0.00000  Uiso   1.00
F903   F     0.21839   0.71384   0.80562   0.00000  Uiso   1.00
F904   F     0.11494   0.95283   0.69438   0.00000  Uiso   1.00
F905   F     0.11501   0.71301   0.69432   0.00000  Uiso   1.00
F906   F     0.21832   0.95365   0.80568   0.00000  Uiso   1.00
H907   H     0.18592   0.76408   0.88882   0.00000  Uiso   1.00
H908   H     0.03756   0.90573   0.76346   0.00000  Uiso   1.00
H909   H     0.14741   0.90259   0.61118   0.00000  Uiso   1.00
H910   H     0.13564   0.94370   0.96138   0.00000  Uiso   1.00
H911   H     0.19770   0.72297   0.53862   0.00000  Uiso   1.00
H912   H     0.13635   0.94291   0.54247   0.00000  Uiso   1.00
H913   H     0.19698   0.72376   0.95753   0.00000  Uiso   1.00
H914   H     0.03744   0.76094   0.73644   0.00000  Uiso   1.00
H915   H     0.29589   0.90573   0.76356   0.00000  Uiso   1.00
H916   H     0.29577   0.76093   0.73654   0.00000  Uiso   1.00
N917   N     0.16667   0.95240   0.75000   0.00000  Uiso   1.00
N918   N     0.16667   0.71427   0.75000   0.00000  Uiso   1.00
O919   O     0.10559   0.87154   0.74999   0.00000  Uiso   1.00
O920   O     0.22774   0.79513   0.75001   0.00000  Uiso   1.00
O921   O     0.22774   0.87154   0.75000   0.00000  Uiso   1.00
O922   O     0.10559   0.79513   0.74999   0.00000  Uiso   1.00
O923   O     0.16666   0.87156   0.68392   0.00000  Uiso   1.00
O924   O     0.16667   0.79511   0.81608   0.00000  Uiso   1.00
O925   O     0.16667   0.87156   0.81607   0.00000  Uiso   1.00
O926   O     0.16666   0.79511   0.68393   0.00000  Uiso   1.00
Zn927  Zn    0.16667   0.88437   0.75000   0.00000  Uiso   1.00
Zn928  Zn    0.16667   0.78229   0.75000   0.00000  Uiso   1.00
C929   C     0.41994   0.83333   0.74996   0.00000  Uiso   1.00
C930   C     0.37580   0.83334   0.74995   0.00000  Uiso   1.00
C931   C     0.52583   0.69087   0.77781   0.00000  Uiso   1.00
C932   C     0.47417   0.97579   0.72219   0.00000  Uiso   1.00
C933   C     0.47418   0.69046   0.72218   0.00000  Uiso   1.00
C934   C     0.52582   0.97621   0.77782   0.00000  Uiso   1.00
C935   C     0.50031   0.83312   0.66327   0.00000  Uiso   1.00
C936   C     0.49969   0.83355   0.83673   0.00000  Uiso   1.00
C937   C     0.51046   0.79443   0.90712   0.00000  Uiso   1.00
C938   C     0.48954   0.87224   0.59288   0.00000  Uiso   1.00
C939   C     0.49937   0.83398   0.88467   0.00000  Uiso   1.00
C940   C     0.58006   0.83333   0.75004   0.00000  Uiso   1.00
C941   C     0.50063   0.83268   0.61533   0.00000  Uiso   1.00
C942   C     0.48817   0.87351   0.90803   0.00000  Uiso   1.00
C943   C     0.51183   0.79316   0.59197   0.00000  Uiso   1.00
C944   C     0.48849   0.87352   0.95422   0.00000  Uiso   1.00
C945   C     0.51151   0.79315   0.54578   0.00000  Uiso   1.00
C946   C     0.49982   0.83352   0.97682   0.00000  Uiso   1.00
C947   C     0.50018   0.83315   0.52318   0.00000  Uiso   1.00
C948   C     0.51075   0.79387   0.95310   0.00000  Uiso   1.00
C949   C     0.48925   0.87279   0.54690   0.00000  Uiso   1.00
C950   C     0.47768   0.91272   0.97819   0.00000  Uiso   1.00
C951   C     0.47809   0.91234   0.52438   0.00000  Uiso   1.00
C952   C     0.52232   0.75395   0.52181   0.00000  Uiso   1.00
C953   C     0.52191   0.75433   0.97562   0.00000  Uiso   1.00
C954   C     0.35460   0.79261   0.74251   0.00000  Uiso   1.00
C955   C     0.64540   0.87406   0.75749   0.00000  Uiso   1.00
C956   C     0.64534   0.79260   0.74257   0.00000  Uiso   1.00
C957   C     0.35466   0.87406   0.75743   0.00000  Uiso   1.00
C958   C     0.62420   0.83333   0.75005   0.00000  Uiso   1.00
F959   F     0.47637   0.91163   0.88607   0.00000  Uiso   1.00
F960   F     0.52363   0.75504   0.61393   0.00000  Uiso   1.00
F961   F     0.55172   0.71384   0.80562   0.00000  Uiso   1.00
F962   F     0.44828   0.95283   0.69438   0.00000  Uiso   1.00
F963   F     0.44834   0.71301   0.69432   0.00000  Uiso   1.00
F964   F     0.55166   0.95365   0.80568   0.00000  Uiso   1.00
H965   H     0.51925   0.76408   0.88882   0.00000  Uiso   1.00
H966   H     0.37089   0.90573   0.76346   0.00000  Uiso   1.00
H967   H     0.48075   0.90259   0.61118   0.00000  Uiso   1.00
H968   H     0.46897   0.94370   0.96138   0.00000  Uiso   1.00
H969   H     0.53103   0.72297   0.53862   0.00000  Uiso   1.00
H970   H     0.46968   0.94291   0.54247   0.00000  Uiso   1.00
H971   H     0.53032   0.72376   0.95753   0.00000  Uiso   1.00
H972   H     0.37078   0.76094   0.73644   0.00000  Uiso   1.00
H973   H     0.62922   0.90573   0.76356   0.00000  Uiso   1.00
H974   H     0.62910   0.76093   0.73654   0.00000  Uiso   1.00
N975   N     0.50000   0.95240   0.75000   0.00000  Uiso   1.00
N976   N     0.50000   0.71427   0.75000   0.00000  Uiso   1.00
O977   O     0.43892   0.87154   0.74999   0.00000  Uiso   1.00
O978   O     0.56108   0.79513   0.75001   0.00000  Uiso   1.00
O979   O     0.56108   0.87154   0.75000   0.00000  Uiso   1.00
O980   O     0.43892   0.79513   0.74999   0.00000  Uiso   1.00
O981   O     0.49999   0.87156   0.68392   0.00000  Uiso   1.00
O982   O     0.50001   0.79511   0.81608   0.00000  Uiso   1.00
O983   O     0.50001   0.87156   0.81607   0.00000  Uiso   1.00
O984   O     0.49999   0.79511   0.68393   0.00000  Uiso   1.00
Zn985  Zn    0.50000   0.88437   0.75000   0.00000  Uiso   1.00
Zn986  Zn    0.50000   0.78229   0.75000   0.00000  Uiso   1.00
C987   C     0.75328   0.83333   0.74996   0.00000  Uiso   1.00
C988   C     0.70914   0.83334   0.74995   0.00000  Uiso   1.00
C989   C     0.85916   0.69087   0.77781   0.00000  Uiso   1.00
C990   C     0.80750   0.97579   0.72219   0.00000  Uiso   1.00
C991   C     0.80751   0.69046   0.72218   0.00000  Uiso   1.00
C992   C     0.85915   0.97621   0.77782   0.00000  Uiso   1.00
C993   C     0.83364   0.83312   0.66327   0.00000  Uiso   1.00
C994   C     0.83302   0.83355   0.83673   0.00000  Uiso   1.00
C995   C     0.84379   0.79443   0.90712   0.00000  Uiso   1.00
C996   C     0.82287   0.87224   0.59288   0.00000  Uiso   1.00
C997   C     0.83270   0.83398   0.88467   0.00000  Uiso   1.00
C998   C     0.91339   0.83333   0.75004   0.00000  Uiso   1.00
C999   C     0.83397   0.83268   0.61533   0.00000  Uiso   1.00
C1000  C     0.82150   0.87351   0.90803   0.00000  Uiso   1.00
C1001  C     0.84516   0.79316   0.59197   0.00000  Uiso   1.00
C1002  C     0.82182   0.87352   0.95422   0.00000  Uiso   1.00
C1003  C     0.84484   0.79315   0.54578   0.00000  Uiso   1.00
C1004  C     0.83315   0.83352   0.97682   0.00000  Uiso   1.00
C1005  C     0.83352   0.83315   0.52318   0.00000  Uiso   1.00
C1006  C     0.84408   0.79387   0.95310   0.00000  Uiso   1.00
C1007  C     0.82258   0.87279   0.54690   0.00000  Uiso   1.00
C1008  C     0.81102   0.91272   0.97819   0.00000  Uiso   1.00
C1009  C     0.81142   0.91234   0.52438   0.00000  Uiso   1.00
C1010  C     0.85565   0.75395   0.52181   0.00000  Uiso   1.00
C1011  C     0.85525   0.75433   0.97562   0.00000  Uiso   1.00
C1012  C     0.68793   0.79261   0.74251   0.00000  Uiso   1.00
C1013  C     0.97874   0.87406   0.75749   0.00000  Uiso   1.00
C1014  C     0.97867   0.79260   0.74257   0.00000  Uiso   1.00
C1015  C     0.68800   0.87406   0.75743   0.00000  Uiso   1.00
C1016  C     0.95753   0.83333   0.75005   0.00000  Uiso   1.00
F1017  F     0.80970   0.91163   0.88607   0.00000  Uiso   1.00
F1018  F     0.85696   0.75504   0.61393   0.00000  Uiso   1.00
F1019  F     0.88506   0.71384   0.80562   0.00000  Uiso   1.00
F1020  F     0.78161   0.95283   0.69438   0.00000  Uiso   1.00
F1021  F     0.78168   0.71301   0.69432   0.00000  Uiso   1.00
F1022  F     0.88499   0.95365   0.80568   0.00000  Uiso   1.00
H1023  H     0.85259   0.76408   0.88882   0.00000  Uiso   1.00
H1024  H     0.70423   0.90573   0.76346   0.00000  Uiso   1.00
H1025  H     0.81408   0.90259   0.61118   0.00000  Uiso   1.00
H1026  H     0.80230   0.94370   0.96138   0.00000  Uiso   1.00
H1027  H     0.86436   0.72297   0.53862   0.00000  Uiso   1.00
H1028  H     0.80302   0.94291   0.54247   0.00000  Uiso   1.00
H1029  H     0.86365   0.72376   0.95753   0.00000  Uiso   1.00
H1030  H     0.70411   0.76094   0.73644   0.00000  Uiso   1.00
H1031  H     0.96256   0.90573   0.76356   0.00000  Uiso   1.00
H1032  H     0.96244   0.76093   0.73654   0.00000  Uiso   1.00
N1033  N     0.83333   0.95240   0.75000   0.00000  Uiso   1.00
N1034  N     0.83333   0.71427   0.75000   0.00000  Uiso   1.00
O1035  O     0.77226   0.87154   0.74999   0.00000  Uiso   1.00
O1036  O     0.89441   0.79513   0.75001   0.00000  Uiso   1.00
O1037  O     0.89441   0.87154   0.75000   0.00000  Uiso   1.00
O1038  O     0.77226   0.79513   0.74999   0.00000  Uiso   1.00
O1039  O     0.83333   0.87156   0.68392   0.00000  Uiso   1.00
O1040  O     0.83334   0.79511   0.81608   0.00000  Uiso   1.00
O1041  O     0.83334   0.87156   0.81607   0.00000  Uiso   1.00
O1042  O     0.83333   0.79511   0.68393   0.00000  Uiso   1.00
Zn1043 Zn    0.83333   0.88437   0.75000   0.00000  Uiso   1.00
Zn1044 Zn    0.83333   0.78229   0.75000   0.00000  Uiso   1.00
loop_
_geom_bond_atom_site_label_1
_geom_bond_atom_site_label_2
_geom_bond_distance
_geom_bond_site_symmetry_2
_ccdc_geom_bond_type
C1     O49     1.281   .     A
C1     C2      1.420   .     S
C1     O52     1.281   .     A
C2     C26     1.397   .     A
C2     C29     1.397   .     A
C3     N48     1.366   .     A
C3     F33     1.355   .     S
C3     C354    1.415   1_545 S
C4     F34     1.355   .     S
C4     N47     1.366   .     A
C4     C179    1.415   .     S
C5     F35     1.355   .     S
C5     N48     1.366   .     A
C5     C352    1.415   1_545 S
C6     F36     1.355   .     S
C6     N47     1.366   .     A
C6     C177    1.415   .     S
C7     O56     1.285   .     A
C7     O53     1.288   .     A
C7     C13     1.441   .     S
C8     C11     1.441   .     S
C8     O55     1.285   .     A
C8     O54     1.288   .     A
C9     C20     1.382   .     A
C9     H37     1.085   .     S
C9     C11     1.397   .     A
C10    H39     1.085   .     S
C10    C21     1.382   .     A
C10    C13     1.397   .     A
C11    C14     1.404   .     A
C12    O50     1.281   .     A
C12    O51     1.281   .     A
C12    C30     1.420   .     S
C13    C15     1.404   .     A
C14    F31     1.361   .     S
C14    C16     1.388   .     A
C15    F32     1.361   .     S
C15    C17     1.388   .     A
C16    C18     1.412   .     A
C16    C22     1.402   .     A
C17    C24     1.402   .     A
C17    C19     1.412   .     A
C18    C20     1.410   .     A
C18    C541    1.393   .     S
C19    C21     1.410   .     A
C19    C540    1.393   1_554 S
C20    C25     1.399   .     A
C21    C23     1.399   .     A
C22    H40     1.083   .     S
C22    C545    1.388   .     S
C23    H42     1.084   .     S
C23    C544    1.388   1_554 S
C24    H41     1.083   .     S
C24    C547    1.388   1_554 S
C25    H43     1.084   .     S
C25    C546    1.388   .     S
C26    H44     1.084   .     S
C26    C144    1.370   1_455 S
C27    C30     1.397   .     A
C27    H45     1.084   .     S
C27    C87     1.370   .     S
C28    H46     1.084   .     S
C28    C30     1.397   .     A
C28    C84     1.370   .     S
C29    H38     1.084   .     S
C29    C143    1.370   1_455 S
N47    Zn57    2.006   .     S
N48    Zn58    2.006   .     S
O49    Zn57    2.000   .     S
O50    Zn58    2.000   .     S
O51    Zn57    2.000   .     S
O52    Zn58    2.000   .     S
O53    Zn57    2.018   .     S
O54    Zn58    2.018   .     S
O55    Zn57    2.024   .     S
O56    Zn58    2.024   .     S
C59    O107    1.281   .     A
C59    C60     1.420   .     S
C59    O110    1.281   .     A
C60    C84     1.397   .     A
C60    C87     1.397   .     A
C61    N106    1.366   .     A
C61    F91     1.355   .     S
C61    C412    1.415   1_545 S
C62    F92     1.355   .     S
C62    N105    1.366   .     A
C62    C237    1.415   .     S
C63    F93     1.355   .     S
C63    N106    1.366   .     A
C63    C410    1.415   1_545 S
C64    F94     1.355   .     S
C64    N105    1.366   .     A
C64    C235    1.415   .     S
C65    O114    1.285   .     A
C65    O111    1.288   .     A
C65    C71     1.441   .     S
C66    C69     1.441   .     S
C66    O113    1.285   .     A
C66    O112    1.288   .     A
C67    C78     1.382   .     A
C67    H95     1.085   .     S
C67    C69     1.397   .     A
C68    H97     1.085   .     S
C68    C79     1.382   .     A
C68    C71     1.397   .     A
C69    C72     1.404   .     A
C70    O108    1.281   .     A
C70    O109    1.281   .     A
C70    C88     1.420   .     S
C71    C73     1.404   .     A
C72    F89     1.361   .     S
C72    C74     1.388   .     A
C73    F90     1.361   .     S
C73    C75     1.388   .     A
C74    C76     1.412   .     A
C74    C80     1.402   .     A
C75    C82     1.402   .     A
C75    C77     1.412   .     A
C76    C78     1.410   .     A
C76    C599    1.393   .     S
C77    C79     1.410   .     A
C77    C598    1.393   1_554 S
C78    C83     1.399   .     A
C79    C81     1.399   .     A
C80    H98     1.083   .     S
C80    C603    1.388   .     S
C81    H100    1.084   .     S
C81    C602    1.388   1_554 S
C82    H99     1.083   .     S
C82    C605    1.388   1_554 S
C83    H101    1.084   .     S
C83    C604    1.388   .     S
C84    H102    1.084   .     S
C85    C88     1.397   .     A
C85    H103    1.084   .     S
C85    C145    1.370   .     S
C86    H104    1.084   .     S
C86    C88     1.397   .     A
C86    C142    1.370   .     S
C87    H96     1.084   .     S
N105   Zn115   2.006   .     S
N106   Zn116   2.006   .     S
O107   Zn115   2.000   .     S
O108   Zn116   2.000   .     S
O109   Zn115   2.000   .     S
O110   Zn116   2.000   .     S
O111   Zn115   2.018   .     S
O112   Zn116   2.018   .     S
O113   Zn115   2.024   .     S
O114   Zn116   2.024   .     S
C117   O165    1.281   .     A
C117   C118    1.420   .     S
C117   O168    1.281   .     A
C118   C142    1.397   .     A
C118   C145    1.397   .     A
C119   N164    1.366   .     A
C119   F149    1.355   .     S
C119   C470    1.415   1_545 S
C120   F150    1.355   .     S
C120   N163    1.366   .     A
C120   C295    1.415   .     S
C121   F151    1.355   .     S
C121   N164    1.366   .     A
C121   C468    1.415   1_545 S
C122   F152    1.355   .     S
C122   N163    1.366   .     A
C122   C293    1.415   .     S
C123   O172    1.285   .     A
C123   O169    1.288   .     A
C123   C129    1.441   .     S
C124   C127    1.441   .     S
C124   O171    1.285   .     A
C124   O170    1.288   .     A
C125   C136    1.382   .     A
C125   H153    1.085   .     S
C125   C127    1.397   .     A
C126   H155    1.085   .     S
C126   C137    1.382   .     A
C126   C129    1.397   .     A
C127   C130    1.404   .     A
C128   O166    1.281   .     A
C128   O167    1.281   .     A
C128   C146    1.420   .     S
C129   C131    1.404   .     A
C130   F147    1.361   .     S
C130   C132    1.388   .     A
C131   F148    1.361   .     S
C131   C133    1.388   .     A
C132   C134    1.412   .     A
C132   C138    1.402   .     A
C133   C140    1.402   .     A
C133   C135    1.412   .     A
C134   C136    1.410   .     A
C134   C657    1.393   .     S
C135   C137    1.410   .     A
C135   C656    1.393   1_554 S
C136   C141    1.399   .     A
C137   C139    1.399   .     A
C138   H156    1.083   .     S
C138   C661    1.388   .     S
C139   H158    1.084   .     S
C139   C660    1.388   1_554 S
C140   H157    1.083   .     S
C140   C663    1.388   1_554 S
C141   H159    1.084   .     S
C141   C662    1.388   .     S
C142   H160    1.084   .     S
C143   C146    1.397   .     A
C143   H161    1.084   .     S
C143   C29     1.370   1_655 S
C144   H162    1.084   .     S
C144   C146    1.397   .     A
C144   C26     1.370   1_655 S
C145   H154    1.084   .     S
N163   Zn173   2.006   .     S
N164   Zn174   2.006   .     S
O165   Zn173   2.000   .     S
O166   Zn174   2.000   .     S
O167   Zn173   2.000   .     S
O168   Zn174   2.000   .     S
O169   Zn173   2.018   .     S
O170   Zn174   2.018   .     S
O171   Zn173   2.024   .     S
O172   Zn174   2.024   .     S
C175   O223    1.281   .     A
C175   C176    1.420   .     S
C175   O226    1.281   .     A
C176   C200    1.397   .     A
C176   C203    1.397   .     A
C177   N222    1.366   .     A
C177   F207    1.355   .     S
C178   F208    1.355   .     S
C178   N221    1.366   .     A
C178   C353    1.415   .     S
C179   F209    1.355   .     S
C179   N222    1.366   .     A
C180   F210    1.355   .     S
C180   N221    1.366   .     A
C180   C351    1.415   .     S
C181   O230    1.285   .     A
C181   O227    1.288   .     A
C181   C187    1.441   .     S
C182   C185    1.441   .     S
C182   O229    1.285   .     A
C182   O228    1.288   .     A
C183   C194    1.382   .     A
C183   H211    1.085   .     S
C183   C185    1.397   .     A
C184   H213    1.085   .     S
C184   C195    1.382   .     A
C184   C187    1.397   .     A
C185   C188    1.404   .     A
C186   O224    1.281   .     A
C186   O225    1.281   .     A
C186   C204    1.420   .     S
C187   C189    1.404   .     A
C188   F205    1.361   .     S
C188   C190    1.388   .     A
C189   F206    1.361   .     S
C189   C191    1.388   .     A
C190   C192    1.412   .     A
C190   C196    1.402   .     A
C191   C198    1.402   .     A
C191   C193    1.412   .     A
C192   C194    1.410   .     A
C192   C715    1.393   .     S
C193   C195    1.410   .     A
C193   C714    1.393   1_554 S
C194   C199    1.399   .     A
C195   C197    1.399   .     A
C196   H214    1.083   .     S
C196   C719    1.388   .     S
C197   H216    1.084   .     S
C197   C718    1.388   1_554 S
C198   H215    1.083   .     S
C198   C721    1.388   1_554 S
C199   H217    1.084   .     S
C199   C720    1.388   .     S
C200   H218    1.084   .     S
C200   C318    1.370   1_455 S
C201   C204    1.397   .     A
C201   H219    1.084   .     S
C201   C261    1.370   .     S
C202   H220    1.084   .     S
C202   C204    1.397   .     A
C202   C258    1.370   .     S
C203   H212    1.084   .     S
C203   C317    1.370   1_455 S
N221   Zn231   2.006   .     S
N222   Zn232   2.006   .     S
O223   Zn231   2.000   .     S
O224   Zn232   2.000   .     S
O225   Zn231   2.000   .     S
O226   Zn232   2.000   .     S
O227   Zn231   2.018   .     S
O228   Zn232   2.018   .     S
O229   Zn231   2.024   .     S
O230   Zn232   2.024   .     S
C233   O281    1.281   .     A
C233   C234    1.420   .     S
C233   O284    1.281   .     A
C234   C258    1.397   .     A
C234   C261    1.397   .     A
C235   N280    1.366   .     A
C235   F265    1.355   .     S
C236   F266    1.355   .     S
C236   N279    1.366   .     A
C236   C411    1.415   .     S
C237   F267    1.355   .     S
C237   N280    1.366   .     A
C238   F268    1.355   .     S
C238   N279    1.366   .     A
C238   C409    1.415   .     S
C239   O288    1.285   .     A
C239   O285    1.288   .     A
C239   C245    1.441   .     S
C240   C243    1.441   .     S
C240   O287    1.285   .     A
C240   O286    1.288   .     A
C241   C252    1.382   .     A
C241   H269    1.085   .     S
C241   C243    1.397   .     A
C242   H271    1.085   .     S
C242   C253    1.382   .     A
C242   C245    1.397   .     A
C243   C246    1.404   .     A
C244   O282    1.281   .     A
C244   O283    1.281   .     A
C244   C262    1.420   .     S
C245   C247    1.404   .     A
C246   F263    1.361   .     S
C246   C248    1.388   .     A
C247   F264    1.361   .     S
C247   C249    1.388   .     A
C248   C250    1.412   .     A
C248   C254    1.402   .     A
C249   C256    1.402   .     A
C249   C251    1.412   .     A
C250   C252    1.410   .     A
C250   C773    1.393   .     S
C251   C253    1.410   .     A
C251   C772    1.393   1_554 S
C252   C257    1.399   .     A
C253   C255    1.399   .     A
C254   H272    1.083   .     S
C254   C777    1.388   .     S
C255   H274    1.084   .     S
C255   C776    1.388   1_554 S
C256   H273    1.083   .     S
C256   C779    1.388   1_554 S
C257   H275    1.084   .     S
C257   C778    1.388   .     S
C258   H276    1.084   .     S
C259   C262    1.397   .     A
C259   H277    1.084   .     S
C259   C319    1.370   .     S
C260   H278    1.084   .     S
C260   C262    1.397   .     A
C260   C316    1.370   .     S
C261   H270    1.084   .     S
N279   Zn289   2.006   .     S
N280   Zn290   2.006   .     S
O281   Zn289   2.000   .     S
O282   Zn290   2.000   .     S
O283   Zn289   2.000   .     S
O284   Zn290   2.000   .     S
O285   Zn289   2.018   .     S
O286   Zn290   2.018   .     S
O287   Zn289   2.024   .     S
O288   Zn290   2.024   .     S
C291   O339    1.281   .     A
C291   C292    1.420   .     S
C291   O342    1.281   .     A
C292   C316    1.397   .     A
C292   C319    1.397   .     A
C293   N338    1.366   .     A
C293   F323    1.355   .     S
C294   F324    1.355   .     S
C294   N337    1.366   .     A
C294   C469    1.415   .     S
C295   F325    1.355   .     S
C295   N338    1.366   .     A
C296   F326    1.355   .     S
C296   N337    1.366   .     A
C296   C467    1.415   .     S
C297   O346    1.285   .     A
C297   O343    1.288   .     A
C297   C303    1.441   .     S
C298   C301    1.441   .     S
C298   O345    1.285   .     A
C298   O344    1.288   .     A
C299   C310    1.382   .     A
C299   H327    1.085   .     S
C299   C301    1.397   .     A
C300   H329    1.085   .     S
C300   C311    1.382   .     A
C300   C303    1.397   .     A
C301   C304    1.404   .     A
C302   O340    1.281   .     A
C302   O341    1.281   .     A
C302   C320    1.420   .     S
C303   C305    1.404   .     A
C304   F321    1.361   .     S
C304   C306    1.388   .     A
C305   F322    1.361   .     S
C305   C307    1.388   .     A
C306   C308    1.412   .     A
C306   C312    1.402   .     A
C307   C314    1.402   .     A
C307   C309    1.412   .     A
C308   C310    1.410   .     A
C308   C831    1.393   .     S
C309   C311    1.410   .     A
C309   C830    1.393   1_554 S
C310   C315    1.399   .     A
C311   C313    1.399   .     A
C312   H330    1.083   .     S
C312   C835    1.388   .     S
C313   H332    1.084   .     S
C313   C834    1.388   1_554 S
C314   H331    1.083   .     S
C314   C837    1.388   1_554 S
C315   H333    1.084   .     S
C315   C836    1.388   .     S
C316   H334    1.084   .     S
C317   C320    1.397   .     A
C317   H335    1.084   .     S
C317   C203    1.370   1_655 S
C318   H336    1.084   .     S
C318   C320    1.397   .     A
C318   C200    1.370   1_655 S
C319   H328    1.084   .     S
N337   Zn347   2.006   .     S
N338   Zn348   2.006   .     S
O339   Zn347   2.000   .     S
O340   Zn348   2.000   .     S
O341   Zn347   2.000   .     S
O342   Zn348   2.000   .     S
O343   Zn347   2.018   .     S
O344   Zn348   2.018   .     S
O345   Zn347   2.024   .     S
O346   Zn348   2.024   .     S
C349   O397    1.281   .     A
C349   C350    1.420   .     S
C349   O400    1.281   .     A
C350   C374    1.397   .     A
C350   C377    1.397   .     A
C351   N396    1.366   .     A
C351   F381    1.355   .     S
C352   F382    1.355   .     S
C352   N395    1.366   .     A
C352   C5      1.415   1_565 S
C353   F383    1.355   .     S
C353   N396    1.366   .     A
C354   F384    1.355   .     S
C354   N395    1.366   .     A
C354   C3      1.415   1_565 S
C355   O404    1.285   .     A
C355   O401    1.288   .     A
C355   C361    1.441   .     S
C356   C359    1.441   .     S
C356   O403    1.285   .     A
C356   O402    1.288   .     A
C357   C368    1.382   .     A
C357   H385    1.085   .     S
C357   C359    1.397   .     A
C358   H387    1.085   .     S
C358   C369    1.382   .     A
C358   C361    1.397   .     A
C359   C362    1.404   .     A
C360   O398    1.281   .     A
C360   O399    1.281   .     A
C360   C378    1.420   .     S
C361   C363    1.404   .     A
C362   F379    1.361   .     S
C362   C364    1.388   .     A
C363   F380    1.361   .     S
C363   C365    1.388   .     A
C364   C366    1.412   .     A
C364   C370    1.402   .     A
C365   C372    1.402   .     A
C365   C367    1.412   .     A
C366   C368    1.410   .     A
C366   C889    1.393   .     S
C367   C369    1.410   .     A
C367   C888    1.393   1_554 S
C368   C373    1.399   .     A
C369   C371    1.399   .     A
C370   H388    1.083   .     S
C370   C893    1.388   .     S
C371   H390    1.084   .     S
C371   C892    1.388   1_554 S
C372   H389    1.083   .     S
C372   C895    1.388   1_554 S
C373   H391    1.084   .     S
C373   C894    1.388   .     S
C374   H392    1.084   .     S
C374   C492    1.370   1_455 S
C375   C378    1.397   .     A
C375   H393    1.084   .     S
C375   C435    1.370   .     S
C376   H394    1.084   .     S
C376   C378    1.397   .     A
C376   C432    1.370   .     S
C377   H386    1.084   .     S
C377   C491    1.370   1_455 S
N395   Zn405   2.006   .     S
N396   Zn406   2.006   .     S
O397   Zn405   2.000   .     S
O398   Zn406   2.000   .     S
O399   Zn405   2.000   .     S
O400   Zn406   2.000   .     S
O401   Zn405   2.018   .     S
O402   Zn406   2.018   .     S
O403   Zn405   2.024   .     S
O404   Zn406   2.024   .     S
C407   O455    1.281   .     A
C407   C408    1.420   .     S
C407   O458    1.281   .     A
C408   C432    1.397   .     A
C408   C435    1.397   .     A
C409   N454    1.366   .     A
C409   F439    1.355   .     S
C410   F440    1.355   .     S
C410   N453    1.366   .     A
C410   C63     1.415   1_565 S
C411   F441    1.355   .     S
C411   N454    1.366   .     A
C412   F442    1.355   .     S
C412   N453    1.366   .     A
C412   C61     1.415   1_565 S
C413   O462    1.285   .     A
C413   O459    1.288   .     A
C413   C419    1.441   .     S
C414   C417    1.441   .     S
C414   O461    1.285   .     A
C414   O460    1.288   .     A
C415   C426    1.382   .     A
C415   H443    1.085   .     S
C415   C417    1.397   .     A
C416   H445    1.085   .     S
C416   C427    1.382   .     A
C416   C419    1.397   .     A
C417   C420    1.404   .     A
C418   O456    1.281   .     A
C418   O457    1.281   .     A
C418   C436    1.420   .     S
C419   C421    1.404   .     A
C420   F437    1.361   .     S
C420   C422    1.388   .     A
C421   F438    1.361   .     S
C421   C423    1.388   .     A
C422   C424    1.412   .     A
C422   C428    1.402   .     A
C423   C430    1.402   .     A
C423   C425    1.412   .     A
C424   C426    1.410   .     A
C424   C947    1.393   .     S
C425   C427    1.410   .     A
C425   C946    1.393   1_554 S
C426   C431    1.399   .     A
C427   C429    1.399   .     A
C428   H446    1.083   .     S
C428   C951    1.388   .     S
C429   H448    1.084   .     S
C429   C950    1.388   1_554 S
C430   H447    1.083   .     S
C430   C953    1.388   1_554 S
C431   H449    1.084   .     S
C431   C952    1.388   .     S
C432   H450    1.084   .     S
C433   C436    1.397   .     A
C433   H451    1.084   .     S
C433   C493    1.370   .     S
C434   H452    1.084   .     S
C434   C436    1.397   .     A
C434   C490    1.370   .     S
C435   H444    1.084   .     S
N453   Zn463   2.006   .     S
N454   Zn464   2.006   .     S
O455   Zn463   2.000   .     S
O456   Zn464   2.000   .     S
O457   Zn463   2.000   .     S
O458   Zn464   2.000   .     S
O459   Zn463   2.018   .     S
O460   Zn464   2.018   .     S
O461   Zn463   2.024   .     S
O462   Zn464   2.024   .     S
C465   O513    1.281   .     A
C465   C466    1.420   .     S
C465   O516    1.281   .     A
C466   C490    1.397   .     A
C466   C493    1.397   .     A
C467   N512    1.366   .     A
C467   F497    1.355   .     S
C468   F498    1.355   .     S
C468   N511    1.366   .     A
C468   C121    1.415   1_565 S
C469   F499    1.355   .     S
C469   N512    1.366   .     A
C470   F500    1.355   .     S
C470   N511    1.366   .     A
C470   C119    1.415   1_565 S
C471   O520    1.285   .     A
C471   O517    1.288   .     A
C471   C477    1.441   .     S
C472   C475    1.441   .     S
C472   O519    1.285   .     A
C472   O518    1.288   .     A
C473   C484    1.382   .     A
C473   H501    1.085   .     S
C473   C475    1.397   .     A
C474   H503    1.085   .     S
C474   C485    1.382   .     A
C474   C477    1.397   .     A
C475   C478    1.404   .     A
C476   O514    1.281   .     A
C476   O515    1.281   .     A
C476   C494    1.420   .     S
C477   C479    1.404   .     A
C478   F495    1.361   .     S
C478   C480    1.388   .     A
C479   F496    1.361   .     S
C479   C481    1.388   .     A
C480   C482    1.412   .     A
C480   C486    1.402   .     A
C481   C488    1.402   .     A
C481   C483    1.412   .     A
C482   C484    1.410   .     A
C482   C1005   1.393   .     S
C483   C485    1.410   .     A
C483   C1004   1.393   1_554 S
C484   C489    1.399   .     A
C485   C487    1.399   .     A
C486   H504    1.083   .     S
C486   C1009   1.388   .     S
C487   H506    1.084   .     S
C487   C1008   1.388   1_554 S
C488   H505    1.083   .     S
C488   C1011   1.388   1_554 S
C489   H507    1.084   .     S
C489   C1010   1.388   .     S
C490   H508    1.084   .     S
C491   C494    1.397   .     A
C491   H509    1.084   .     S
C491   C377    1.370   1_655 S
C492   H510    1.084   .     S
C492   C494    1.397   .     A
C492   C374    1.370   1_655 S
C493   H502    1.084   .     S
N511   Zn521   2.006   .     S
N512   Zn522   2.006   .     S
O513   Zn521   2.000   .     S
O514   Zn522   2.000   .     S
O515   Zn521   2.000   .     S
O516   Zn522   2.000   .     S
O517   Zn521   2.018   .     S
O518   Zn522   2.018   .     S
O519   Zn521   2.024   .     S
O520   Zn522   2.024   .     S
C523   O571    1.281   .     A
C523   C524    1.420   .     S
C523   O574    1.281   .     A
C524   C548    1.397   .     A
C524   C551    1.397   .     A
C525   N570    1.366   .     A
C525   F555    1.355   .     S
C525   C876    1.415   1_545 S
C526   F556    1.355   .     S
C526   N569    1.366   .     A
C526   C701    1.415   .     S
C527   F557    1.355   .     S
C527   N570    1.366   .     A
C527   C874    1.415   1_545 S
C528   F558    1.355   .     S
C528   N569    1.366   .     A
C528   C699    1.415   .     S
C529   O578    1.285   .     A
C529   O575    1.288   .     A
C529   C535    1.441   .     S
C530   C533    1.441   .     S
C530   O577    1.285   .     A
C530   O576    1.288   .     A
C531   C542    1.382   .     A
C531   H559    1.085   .     S
C531   C533    1.397   .     A
C532   H561    1.085   .     S
C532   C543    1.382   .     A
C532   C535    1.397   .     A
C533   C536    1.404   .     A
C534   O572    1.281   .     A
C534   O573    1.281   .     A
C534   C552    1.420   .     S
C535   C537    1.404   .     A
C536   F553    1.361   .     S
C536   C538    1.388   .     A
C537   F554    1.361   .     S
C537   C539    1.388   .     A
C538   C540    1.412   .     A
C538   C544    1.402   .     A
C539   C546    1.402   .     A
C539   C541    1.412   .     A
C540   C542    1.410   .     A
C540   C19     1.393   1_556 S
C541   C543    1.410   .     A
C542   C547    1.399   .     A
C543   C545    1.399   .     A
C544   H562    1.083   .     S
C544   C23     1.388   1_556 S
C545   H564    1.084   .     S
C546   H563    1.083   .     S
C547   H565    1.084   .     S
C547   C24     1.388   1_556 S
C548   H566    1.084   .     S
C548   C666    1.370   1_455 S
C549   C552    1.397   .     A
C549   H567    1.084   .     S
C549   C609    1.370   .     S
C550   H568    1.084   .     S
C550   C552    1.397   .     A
C550   C606    1.370   .     S
C551   H560    1.084   .     S
C551   C665    1.370   1_455 S
N569   Zn579   2.006   .     S
N570   Zn580   2.006   .     S
O571   Zn579   2.000   .     S
O572   Zn580   2.000   .     S
O573   Zn579   2.000   .     S
O574   Zn580   2.000   .     S
O575   Zn579   2.018   .     S
O576   Zn580   2.018   .     S
O577   Zn579   2.024   .     S
O578   Zn580   2.024   .     S
C581   O629    1.281   .     A
C581   C582    1.420   .     S
C581   O632    1.281   .     A
C582   C606    1.397   .     A
C582   C609    1.397   .     A
C583   N628    1.366   .     A
C583   F613    1.355   .     S
C583   C934    1.415   1_545 S
C584   F614    1.355   .     S
C584   N627    1.366   .     A
C584   C759    1.415   .     S
C585   F615    1.355   .     S
C585   N628    1.366   .     A
C585   C932    1.415   1_545 S
C586   F616    1.355   .     S
C586   N627    1.366   .     A
C586   C757    1.415   .     S
C587   O636    1.285   .     A
C587   O633    1.288   .     A
C587   C593    1.441   .     S
C588   C591    1.441   .     S
C588   O635    1.285   .     A
C588   O634    1.288   .     A
C589   C600    1.382   .     A
C589   H617    1.085   .     S
C589   C591    1.397   .     A
C590   H619    1.085   .     S
C590   C601    1.382   .     A
C590   C593    1.397   .     A
C591   C594    1.404   .     A
C592   O630    1.281   .     A
C592   O631    1.281   .     A
C592   C610    1.420   .     S
C593   C595    1.404   .     A
C594   F611    1.361   .     S
C594   C596    1.388   .     A
C595   F612    1.361   .     S
C595   C597    1.388   .     A
C596   C598    1.412   .     A
C596   C602    1.402   .     A
C597   C604    1.402   .     A
C597   C599    1.412   .     A
C598   C600    1.410   .     A
C598   C77     1.393   1_556 S
C599   C601    1.410   .     A
C600   C605    1.399   .     A
C601   C603    1.399   .     A
C602   H620    1.083   .     S
C602   C81     1.388   1_556 S
C603   H622    1.084   .     S
C604   H621    1.083   .     S
C605   H623    1.084   .     S
C605   C82     1.388   1_556 S
C606   H624    1.084   .     S
C607   C610    1.397   .     A
C607   H625    1.084   .     S
C607   C667    1.370   .     S
C608   H626    1.084   .     S
C608   C610    1.397   .     A
C608   C664    1.370   .     S
C609   H618    1.084   .     S
N627   Zn637   2.006   .     S
N628   Zn638   2.006   .     S
O629   Zn637   2.000   .     S
O630   Zn638   2.000   .     S
O631   Zn637   2.000   .     S
O632   Zn638   2.000   .     S
O633   Zn637   2.018   .     S
O634   Zn638   2.018   .     S
O635   Zn637   2.024   .     S
O636   Zn638   2.024   .     S
C639   O687    1.281   .     A
C639   C640    1.420   .     S
C639   O690    1.281   .     A
C640   C664    1.397   .     A
C640   C667    1.397   .     A
C641   N686    1.366   .     A
C641   F671    1.355   .     S
C641   C992    1.415   1_545 S
C642   F672    1.355   .     S
C642   N685    1.366   .     A
C642   C817    1.415   .     S
C643   F673    1.355   .     S
C643   N686    1.366   .     A
C643   C990    1.415   1_545 S
C644   F674    1.355   .     S
C644   N685    1.366   .     A
C644   C815    1.415   .     S
C645   O694    1.285   .     A
C645   O691    1.288   .     A
C645   C651    1.441   .     S
C646   C649    1.441   .     S
C646   O693    1.285   .     A
C646   O692    1.288   .     A
C647   C658    1.382   .     A
C647   H675    1.085   .     S
C647   C649    1.397   .     A
C648   H677    1.085   .     S
C648   C659    1.382   .     A
C648   C651    1.397   .     A
C649   C652    1.404   .     A
C650   O688    1.281   .     A
C650   O689    1.281   .     A
C650   C668    1.420   .     S
C651   C653    1.404   .     A
C652   F669    1.361   .     S
C652   C654    1.388   .     A
C653   F670    1.361   .     S
C653   C655    1.388   .     A
C654   C656    1.412   .     A
C654   C660    1.402   .     A
C655   C662    1.402   .     A
C655   C657    1.412   .     A
C656   C658    1.410   .     A
C656   C135    1.393   1_556 S
C657   C659    1.410   .     A
C658   C663    1.399   .     A
C659   C661    1.399   .     A
C660   H678    1.083   .     S
C660   C139    1.388   1_556 S
C661   H680    1.084   .     S
C662   H679    1.083   .     S
C663   H681    1.084   .     S
C663   C140    1.388   1_556 S
C664   H682    1.084   .     S
C665   C668    1.397   .     A
C665   H683    1.084   .     S
C665   C551    1.370   1_655 S
C666   H684    1.084   .     S
C666   C668    1.397   .     A
C666   C548    1.370   1_655 S
C667   H676    1.084   .     S
N685   Zn695   2.006   .     S
N686   Zn696   2.006   .     S
O687   Zn695   2.000   .     S
O688   Zn696   2.000   .     S
O689   Zn695   2.000   .     S
O690   Zn696   2.000   .     S
O691   Zn695   2.018   .     S
O692   Zn696   2.018   .     S
O693   Zn695   2.024   .     S
O694   Zn696   2.024   .     S
C697   O745    1.281   .     A
C697   C698    1.420   .     S
C697   O748    1.281   .     A
C698   C722    1.397   .     A
C698   C725    1.397   .     A
C699   N744    1.366   .     A
C699   F729    1.355   .     S
C700   F730    1.355   .     S
C700   N743    1.366   .     A
C700   C875    1.415   .     S
C701   F731    1.355   .     S
C701   N744    1.366   .     A
C702   F732    1.355   .     S
C702   N743    1.366   .     A
C702   C873    1.415   .     S
C703   O752    1.285   .     A
C703   O749    1.288   .     A
C703   C709    1.441   .     S
C704   C707    1.441   .     S
C704   O751    1.285   .     A
C704   O750    1.288   .     A
C705   C716    1.382   .     A
C705   H733    1.085   .     S
C705   C707    1.397   .     A
C706   H735    1.085   .     S
C706   C717    1.382   .     A
C706   C709    1.397   .     A
C707   C710    1.404   .     A
C708   O746    1.281   .     A
C708   O747    1.281   .     A
C708   C726    1.420   .     S
C709   C711    1.404   .     A
C710   F727    1.361   .     S
C710   C712    1.388   .     A
C711   F728    1.361   .     S
C711   C713    1.388   .     A
C712   C714    1.412   .     A
C712   C718    1.402   .     A
C713   C720    1.402   .     A
C713   C715    1.412   .     A
C714   C716    1.410   .     A
C714   C193    1.393   1_556 S
C715   C717    1.410   .     A
C716   C721    1.399   .     A
C717   C719    1.399   .     A
C718   H736    1.083   .     S
C718   C197    1.388   1_556 S
C719   H738    1.084   .     S
C720   H737    1.083   .     S
C721   H739    1.084   .     S
C721   C198    1.388   1_556 S
C722   H740    1.084   .     S
C722   C840    1.370   1_455 S
C723   C726    1.397   .     A
C723   H741    1.084   .     S
C723   C783    1.370   .     S
C724   H742    1.084   .     S
C724   C726    1.397   .     A
C724   C780    1.370   .     S
C725   H734    1.084   .     S
C725   C839    1.370   1_455 S
N743   Zn753   2.006   .     S
N744   Zn754   2.006   .     S
O745   Zn753   2.000   .     S
O746   Zn754   2.000   .     S
O747   Zn753   2.000   .     S
O748   Zn754   2.000   .     S
O749   Zn753   2.018   .     S
O750   Zn754   2.018   .     S
O751   Zn753   2.024   .     S
O752   Zn754   2.024   .     S
C755   O803    1.281   .     A
C755   C756    1.420   .     S
C755   O806    1.281   .     A
C756   C780    1.397   .     A
C756   C783    1.397   .     A
C757   N802    1.366   .     A
C757   F787    1.355   .     S
C758   F788    1.355   .     S
C758   N801    1.366   .     A
C758   C933    1.415   .     S
C759   F789    1.355   .     S
C759   N802    1.366   .     A
C760   F790    1.355   .     S
C760   N801    1.366   .     A
C760   C931    1.415   .     S
C761   O810    1.285   .     A
C761   O807    1.288   .     A
C761   C767    1.441   .     S
C762   C765    1.441   .     S
C762   O809    1.285   .     A
C762   O808    1.288   .     A
C763   C774    1.382   .     A
C763   H791    1.085   .     S
C763   C765    1.397   .     A
C764   H793    1.085   .     S
C764   C775    1.382   .     A
C764   C767    1.397   .     A
C765   C768    1.404   .     A
C766   O804    1.281   .     A
C766   O805    1.281   .     A
C766   C784    1.420   .     S
C767   C769    1.404   .     A
C768   F785    1.361   .     S
C768   C770    1.388   .     A
C769   F786    1.361   .     S
C769   C771    1.388   .     A
C770   C772    1.412   .     A
C770   C776    1.402   .     A
C771   C778    1.402   .     A
C771   C773    1.412   .     A
C772   C774    1.410   .     A
C772   C251    1.393   1_556 S
C773   C775    1.410   .     A
C774   C779    1.399   .     A
C775   C777    1.399   .     A
C776   H794    1.083   .     S
C776   C255    1.388   1_556 S
C777   H796    1.084   .     S
C778   H795    1.083   .     S
C779   H797    1.084   .     S
C779   C256    1.388   1_556 S
C780   H798    1.084   .     S
C781   C784    1.397   .     A
C781   H799    1.084   .     S
C781   C841    1.370   .     S
C782   H800    1.084   .     S
C782   C784    1.397   .     A
C782   C838    1.370   .     S
C783   H792    1.084   .     S
N801   Zn811   2.006   .     S
N802   Zn812   2.006   .     S
O803   Zn811   2.000   .     S
O804   Zn812   2.000   .     S
O805   Zn811   2.000   .     S
O806   Zn812   2.000   .     S
O807   Zn811   2.018   .     S
O808   Zn812   2.018   .     S
O809   Zn811   2.024   .     S
O810   Zn812   2.024   .     S
C813   O861    1.281   .     A
C813   C814    1.420   .     S
C813   O864    1.281   .     A
C814   C838    1.397   .     A
C814   C841    1.397   .     A
C815   N860    1.366   .     A
C815   F845    1.355   .     S
C816   F846    1.355   .     S
C816   N859    1.366   .     A
C816   C991    1.415   .     S
C817   F847    1.355   .     S
C817   N860    1.366   .     A
C818   F848    1.355   .     S
C818   N859    1.366   .     A
C818   C989    1.415   .     S
C819   O868    1.285   .     A
C819   O865    1.288   .     A
C819   C825    1.441   .     S
C820   C823    1.441   .     S
C820   O867    1.285   .     A
C820   O866    1.288   .     A
C821   C832    1.382   .     A
C821   H849    1.085   .     S
C821   C823    1.397   .     A
C822   H851    1.085   .     S
C822   C833    1.382   .     A
C822   C825    1.397   .     A
C823   C826    1.404   .     A
C824   O862    1.281   .     A
C824   O863    1.281   .     A
C824   C842    1.420   .     S
C825   C827    1.404   .     A
C826   F843    1.361   .     S
C826   C828    1.388   .     A
C827   F844    1.361   .     S
C827   C829    1.388   .     A
C828   C830    1.412   .     A
C828   C834    1.402   .     A
C829   C836    1.402   .     A
C829   C831    1.412   .     A
C830   C832    1.410   .     A
C830   C309    1.393   1_556 S
C831   C833    1.410   .     A
C832   C837    1.399   .     A
C833   C835    1.399   .     A
C834   H852    1.083   .     S
C834   C313    1.388   1_556 S
C835   H854    1.084   .     S
C836   H853    1.083   .     S
C837   H855    1.084   .     S
C837   C314    1.388   1_556 S
C838   H856    1.084   .     S
C839   C842    1.397   .     A
C839   H857    1.084   .     S
C839   C725    1.370   1_655 S
C840   H858    1.084   .     S
C840   C842    1.397   .     A
C840   C722    1.370   1_655 S
C841   H850    1.084   .     S
N859   Zn869   2.006   .     S
N860   Zn870   2.006   .     S
O861   Zn869   2.000   .     S
O862   Zn870   2.000   .     S
O863   Zn869   2.000   .     S
O864   Zn870   2.000   .     S
O865   Zn869   2.018   .     S
O866   Zn870   2.018   .     S
O867   Zn869   2.024   .     S
O868   Zn870   2.024   .     S
C871   O919    1.281   .     A
C871   C872    1.420   .     S
C871   O922    1.281   .     A
C872   C896    1.397   .     A
C872   C899    1.397   .     A
C873   N918    1.366   .     A
C873   F903    1.355   .     S
C874   F904    1.355   .     S
C874   N917    1.366   .     A
C874   C527    1.415   1_565 S
C875   F905    1.355   .     S
C875   N918    1.366   .     A
C876   F906    1.355   .     S
C876   N917    1.366   .     A
C876   C525    1.415   1_565 S
C877   O926    1.285   .     A
C877   O923    1.288   .     A
C877   C883    1.441   .     S
C878   C881    1.441   .     S
C878   O925    1.285   .     A
C878   O924    1.288   .     A
C879   C890    1.382   .     A
C879   H907    1.085   .     S
C879   C881    1.397   .     A
C880   H909    1.085   .     S
C880   C891    1.382   .     A
C880   C883    1.397   .     A
C881   C884    1.404   .     A
C882   O920    1.281   .     A
C882   O921    1.281   .     A
C882   C900    1.420   .     S
C883   C885    1.404   .     A
C884   F901    1.361   .     S
C884   C886    1.388   .     A
C885   F902    1.361   .     S
C885   C887    1.388   .     A
C886   C888    1.412   .     A
C886   C892    1.402   .     A
C887   C894    1.402   .     A
C887   C889    1.412   .     A
C888   C890    1.410   .     A
C888   C367    1.393   1_556 S
C889   C891    1.410   .     A
C890   C895    1.399   .     A
C891   C893    1.399   .     A
C892   H910    1.083   .     S
C892   C371    1.388   1_556 S
C893   H912    1.084   .     S
C894   H911    1.083   .     S
C895   H913    1.084   .     S
C895   C372    1.388   1_556 S
C896   H914    1.084   .     S
C896   C1014   1.370   1_455 S
C897   C900    1.397   .     A
C897   H915    1.084   .     S
C897   C957    1.370   .     S
C898   H916    1.084   .     S
C898   C900    1.397   .     A
C898   C954    1.370   .     S
C899   H908    1.084   .     S
C899   C1013   1.370   1_455 S
N917   Zn927   2.006   .     S
N918   Zn928   2.006   .     S
O919   Zn927   2.000   .     S
O920   Zn928   2.000   .     S
O921   Zn927   2.000   .     S
O922   Zn928   2.000   .     S
O923   Zn927   2.018   .     S
O924   Zn928   2.018   .     S
O925   Zn927   2.024   .     S
O926   Zn928   2.024   .     S
C929   O977    1.281   .     A
C929   C930    1.420   .     S
C929   O980    1.281   .     A
C930   C954    1.397   .     A
C930   C957    1.397   .     A
C931   N976    1.366   .     A
C931   F961    1.355   .     S
C932   F962    1.355   .     S
C932   N975    1.366   .     A
C932   C585    1.415   1_565 S
C933   F963    1.355   .     S
C933   N976    1.366   .     A
C934   F964    1.355   .     S
C934   N975    1.366   .     A
C934   C583    1.415   1_565 S
C935   O984    1.285   .     A
C935   O981    1.288   .     A
C935   C941    1.441   .     S
C936   C939    1.441   .     S
C936   O983    1.285   .     A
C936   O982    1.288   .     A
C937   C948    1.382   .     A
C937   H965    1.085   .     S
C937   C939    1.397   .     A
C938   H967    1.085   .     S
C938   C949    1.382   .     A
C938   C941    1.397   .     A
C939   C942    1.404   .     A
C940   O978    1.281   .     A
C940   O979    1.281   .     A
C940   C958    1.420   .     S
C941   C943    1.404   .     A
C942   F959    1.361   .     S
C942   C944    1.388   .     A
C943   F960    1.361   .     S
C943   C945    1.388   .     A
C944   C946    1.412   .     A
C944   C950    1.402   .     A
C945   C952    1.402   .     A
C945   C947    1.412   .     A
C946   C948    1.410   .     A
C946   C425    1.393   1_556 S
C947   C949    1.410   .     A
C948   C953    1.399   .     A
C949   C951    1.399   .     A
C950   H968    1.083   .     S
C950   C429    1.388   1_556 S
C951   H970    1.084   .     S
C952   H969    1.083   .     S
C953   H971    1.084   .     S
C953   C430    1.388   1_556 S
C954   H972    1.084   .     S
C955   C958    1.397   .     A
C955   H973    1.084   .     S
C955   C1015   1.370   .     S
C956   H974    1.084   .     S
C956   C958    1.397   .     A
C956   C1012   1.370   .     S
C957   H966    1.084   .     S
N975   Zn985   2.006   .     S
N976   Zn986   2.006   .     S
O977   Zn985   2.000   .     S
O978   Zn986   2.000   .     S
O979   Zn985   2.000   .     S
O980   Zn986   2.000   .     S
O981   Zn985   2.018   .     S
O982   Zn986   2.018   .     S
O983   Zn985   2.024   .     S
O984   Zn986   2.024   .     S
C987   O1035   1.281   .     A
C987   C988    1.420   .     S
C987   O1038   1.281   .     A
C988   C1012   1.397   .     A
C988   C1015   1.397   .     A
C989   N1034   1.366   .     A
C989   F1019   1.355   .     S
C990   F1020   1.355   .     S
C990   N1033   1.366   .     A
C990   C643    1.415   1_565 S
C991   F1021   1.355   .     S
C991   N1034   1.366   .     A
C992   F1022   1.355   .     S
C992   N1033   1.366   .     A
C992   C641    1.415   1_565 S
C993   O1042   1.285   .     A
C993   O1039   1.288   .     A
C993   C999    1.441   .     S
C994   C997    1.441   .     S
C994   O1041   1.285   .     A
C994   O1040   1.288   .     A
C995   C1006   1.382   .     A
C995   H1023   1.085   .     S
C995   C997    1.397   .     A
C996   H1025   1.085   .     S
C996   C1007   1.382   .     A
C996   C999    1.397   .     A
C997   C1000   1.404   .     A
C998   O1036   1.281   .     A
C998   O1037   1.281   .     A
C998   C1016   1.420   .     S
C999   C1001   1.404   .     A
C1000  F1017   1.361   .     S
C1000  C1002   1.388   .     A
C1001  F1018   1.361   .     S
C1001  C1003   1.388   .     A
C1002  C1004   1.412   .     A
C1002  C1008   1.402   .     A
C1003  C1010   1.402   .     A
C1003  C1005   1.412   .     A
C1004  C1006   1.410   .     A
C1004  C483    1.393   1_556 S
C1005  C1007   1.410   .     A
C1006  C1011   1.399   .     A
C1007  C1009   1.399   .     A
C1008  H1026   1.083   .     S
C1008  C487    1.388   1_556 S
C1009  H1028   1.084   .     S
C1010  H1027   1.083   .     S
C1011  H1029   1.084   .     S
C1011  C488    1.388   1_556 S
C1012  H1030   1.084   .     S
C1013  C1016   1.397   .     A
C1013  H1031   1.084   .     S
C1013  C899    1.370   1_655 S
C1014  H1032   1.084   .     S
C1014  C1016   1.397   .     A
C1014  C896    1.370   1_655 S
C1015  H1024   1.084   .     S
N1033  Zn1043  2.006   .     S
N1034  Zn1044  2.006   .     S
O1035  Zn1043  2.000   .     S
O1036  Zn1044  2.000   .     S
O1037  Zn1043  2.000   .     S
O1038  Zn1044  2.000   .     S
O1039  Zn1043  2.018   .     S
O1040  Zn1044  2.018   .     S
O1041  Zn1043  2.024   .     S
O1042  Zn1044  2.024   .     S
