data_str_m3_o1_o16_pcu_sym.155
_audit_creation_date              2020-01-03
_audit_creation_method            'Materials Studio'
_symmetry_space_group_name_H-M    'P1'
_symmetry_Int_Tables_number       1
_symmetry_cell_setting            triclinic
loop_
_symmetry_equiv_pos_as_xyz
  x,y,z
_cell_length_a                    29.6396
_cell_length_b                    32.1106
_cell_length_c                    26.1329
_cell_angle_alpha                 90.4393
_cell_angle_beta                  71.0625
_cell_angle_gamma                 89.7565
loop_
_atom_site_label
_atom_site_type_symbol
_atom_site_fract_x
_atom_site_fract_y
_atom_site_fract_z
_atom_site_U_iso_or_equiv
_atom_site_adp_type
_atom_site_occupancy
C1     C     0.16661   0.24666   0.25005   0.00000  Uiso   1.00
C2     C     0.14772   0.13452   0.48822   0.00000  Uiso   1.00
C3     C     0.16130   0.13442   0.43143   0.00000  Uiso   1.00
C4     C     0.18380   0.13977   0.01223   0.00000  Uiso   1.00
C5     C     0.23244   0.13797   0.47988   0.00000  Uiso   1.00
C6     C     0.24460   0.12683   0.42549   0.00000  Uiso   1.00
C7     C     0.20919   0.12423   0.40160   0.00000  Uiso   1.00
C8     C     0.17262   0.15061   0.06650   0.00000  Uiso   1.00
C9     C     0.25623   0.16110   0.05597   0.00000  Uiso   1.00
C10    C     0.12668   0.14566   0.40700   0.00000  Uiso   1.00
C11    C     0.20242   0.31196   0.26340   0.00000  Uiso   1.00
C12    C     0.14105   0.16073   0.35104   0.00000  Uiso   1.00
C13    C     0.20253   0.02129   0.26327   0.00000  Uiso   1.00
C14    C     0.16687   0.04251   0.24967   0.00000  Uiso   1.00
C15    C     0.13115   0.02139   0.23610   0.00000  Uiso   1.00
C16    C     0.13101   0.31206   0.23630   0.00000  Uiso   1.00
C17    C     0.16663   0.29084   0.24997   0.00000  Uiso   1.00
C18    C     0.31977   0.14062   0.21611   0.00000  Uiso   1.00
C19    C     0.03408   0.14086   0.21626   0.00000  Uiso   1.00
C20    C     0.01405   0.19247   0.28397   0.00000  Uiso   1.00
C21    C     0.29951   0.19249   0.28393   0.00000  Uiso   1.00
C22    C     0.16676   0.08667   0.24983   0.00000  Uiso   1.00
C23    C     0.19285   0.16634   0.14773   0.00000  Uiso   1.00
C24    C     0.26811   0.14843   0.00191   0.00000  Uiso   1.00
C25    C     0.20811   0.16014   0.08909   0.00000  Uiso   1.00
C26    C     0.07819   0.14379   0.43758   0.00000  Uiso   1.00
C27    C     0.06461   0.13399   0.49224   0.00000  Uiso   1.00
C28    C     0.09870   0.13126   0.01813   0.00000  Uiso   1.00
H29    H     0.23008   0.03754   0.27424   0.00000  Uiso   1.00
H30    H     0.10364   0.03772   0.22506   0.00000  Uiso   1.00
H31    H     0.10342   0.29582   0.22540   0.00000  Uiso   1.00
H32    H     0.06031   0.12024   0.18935   0.00000  Uiso   1.00
H33    H     0.02420   0.21314   0.31119   0.00000  Uiso   1.00
H34    H     0.27357   0.21316   0.31111   0.00000  Uiso   1.00
H35    H     0.28153   0.12211   0.40086   0.00000  Uiso   1.00
H36    H     0.30494   0.14838   0.47643   0.00000  Uiso   1.00
H37    H     0.13587   0.15304   0.09160   0.00000  Uiso   1.00
H38    H     0.05100   0.14971   0.41913   0.00000  Uiso   1.00
H39    H     0.08592   0.12558   0.06110   0.00000  Uiso   1.00
H40    H     0.02753   0.13025   0.01544   0.00000  Uiso   1.00
H41    H     0.21999   0.11449   0.35967   0.00000  Uiso   1.00
H42    H     0.22996   0.29564   0.27441   0.00000  Uiso   1.00
N43    N     0.04760   0.16668   0.25001   0.00000  Uiso   1.00
N44    N     0.28573   0.16665   0.25000   0.00000  Uiso   1.00
O45    O     0.12846   0.22775   0.25000   0.00000  Uiso   1.00
O46    O     0.20490   0.22774   0.25000   0.00000  Uiso   1.00
O47    O     0.10947   0.16666   0.32681   0.00000  Uiso   1.00
O48    O     0.18591   0.16665   0.32681   0.00000  Uiso   1.00
O49    O     0.12843   0.10559   0.24999   0.00000  Uiso   1.00
O50    O     0.20488   0.10558   0.24999   0.00000  Uiso   1.00
O51    O     0.14742   0.16668   0.17319   0.00000  Uiso   1.00
O52    O     0.22387   0.16667   0.17319   0.00000  Uiso   1.00
Zn53   Zn    0.11562   0.16667   0.25000   0.00000  Uiso   1.00
Zn54   Zn    0.21771   0.16666   0.25000   0.00000  Uiso   1.00
O55    O     0.29212   0.17242   0.07628   0.00000  Uiso   1.00
C56    C     0.29416   0.21637   0.07980   0.00000  Uiso   1.00
H57    H     0.30448   0.22408   0.11601   0.00000  Uiso   1.00
H58    H     0.25921   0.23233   0.08585   0.00000  Uiso   1.00
C59    C     0.33222   0.23345   0.02971   0.00000  Uiso   1.00
H60    H     0.03389   0.21874   0.02567   0.00000  Uiso   1.00
H61    H     0.32276   0.22579   0.49294   0.00000  Uiso   1.00
C62    C     0.00335   0.28059   0.03367   0.00000  Uiso   1.00
H63    H     0.30231   0.29610   0.03675   0.00000  Uiso   1.00
H64    H     0.03124   0.29199   0.49689   0.00000  Uiso   1.00
H65    H     0.01366   0.28903   0.06965   0.00000  Uiso   1.00
I66    I     0.30489   0.09802   0.16170   0.00000  Uiso   1.00
C67    C     0.49995   0.24666   0.25005   0.00000  Uiso   1.00
C68    C     0.48106   0.13452   0.48822   0.00000  Uiso   1.00
C69    C     0.49464   0.13442   0.43143   0.00000  Uiso   1.00
C70    C     0.51713   0.13977   0.01223   0.00000  Uiso   1.00
C71    C     0.56577   0.13797   0.47988   0.00000  Uiso   1.00
C72    C     0.57793   0.12683   0.42549   0.00000  Uiso   1.00
C73    C     0.54252   0.12423   0.40160   0.00000  Uiso   1.00
C74    C     0.50596   0.15061   0.06650   0.00000  Uiso   1.00
C75    C     0.58956   0.16110   0.05597   0.00000  Uiso   1.00
C76    C     0.46001   0.14566   0.40700   0.00000  Uiso   1.00
C77    C     0.53576   0.31196   0.26340   0.00000  Uiso   1.00
C78    C     0.47438   0.16073   0.35104   0.00000  Uiso   1.00
C79    C     0.53586   0.02129   0.26327   0.00000  Uiso   1.00
C80    C     0.50020   0.04251   0.24967   0.00000  Uiso   1.00
C81    C     0.46448   0.02139   0.23610   0.00000  Uiso   1.00
C82    C     0.46434   0.31206   0.23630   0.00000  Uiso   1.00
C83    C     0.49996   0.29084   0.24997   0.00000  Uiso   1.00
C84    C     0.65310   0.14062   0.21611   0.00000  Uiso   1.00
C85    C     0.36741   0.14086   0.21626   0.00000  Uiso   1.00
C86    C     0.34738   0.19247   0.28397   0.00000  Uiso   1.00
C87    C     0.63284   0.19249   0.28393   0.00000  Uiso   1.00
C88    C     0.50010   0.08667   0.24983   0.00000  Uiso   1.00
C89    C     0.52618   0.16634   0.14773   0.00000  Uiso   1.00
C90    C     0.60144   0.14843   0.00191   0.00000  Uiso   1.00
C91    C     0.54144   0.16014   0.08909   0.00000  Uiso   1.00
C92    C     0.41153   0.14379   0.43758   0.00000  Uiso   1.00
C93    C     0.39794   0.13399   0.49224   0.00000  Uiso   1.00
C94    C     0.43204   0.13126   0.01813   0.00000  Uiso   1.00
H95    H     0.56341   0.03754   0.27424   0.00000  Uiso   1.00
H96    H     0.43697   0.03772   0.22506   0.00000  Uiso   1.00
H97    H     0.43675   0.29582   0.22540   0.00000  Uiso   1.00
H98    H     0.39365   0.12024   0.18935   0.00000  Uiso   1.00
H99    H     0.35753   0.21314   0.31119   0.00000  Uiso   1.00
H100   H     0.60690   0.21316   0.31111   0.00000  Uiso   1.00
H101   H     0.61486   0.12211   0.40086   0.00000  Uiso   1.00
H102   H     0.63827   0.14838   0.47643   0.00000  Uiso   1.00
H103   H     0.46920   0.15304   0.09160   0.00000  Uiso   1.00
H104   H     0.38433   0.14971   0.41913   0.00000  Uiso   1.00
H105   H     0.41926   0.12558   0.06110   0.00000  Uiso   1.00
H106   H     0.36086   0.13025   0.01544   0.00000  Uiso   1.00
H107   H     0.55332   0.11449   0.35967   0.00000  Uiso   1.00
H108   H     0.56329   0.29564   0.27441   0.00000  Uiso   1.00
N109   N     0.38093   0.16668   0.25001   0.00000  Uiso   1.00
N110   N     0.61906   0.16665   0.25000   0.00000  Uiso   1.00
O111   O     0.46179   0.22775   0.25000   0.00000  Uiso   1.00
O112   O     0.53823   0.22774   0.25000   0.00000  Uiso   1.00
O113   O     0.44280   0.16666   0.32681   0.00000  Uiso   1.00
O114   O     0.51924   0.16665   0.32681   0.00000  Uiso   1.00
O115   O     0.46177   0.10559   0.24999   0.00000  Uiso   1.00
O116   O     0.53821   0.10558   0.24999   0.00000  Uiso   1.00
O117   O     0.48076   0.16668   0.17319   0.00000  Uiso   1.00
O118   O     0.55720   0.16667   0.17319   0.00000  Uiso   1.00
Zn119  Zn    0.44896   0.16667   0.25000   0.00000  Uiso   1.00
Zn120  Zn    0.55104   0.16666   0.25000   0.00000  Uiso   1.00
O121   O     0.62545   0.17242   0.07628   0.00000  Uiso   1.00
C122   C     0.62749   0.21637   0.07980   0.00000  Uiso   1.00
H123   H     0.63782   0.22408   0.11601   0.00000  Uiso   1.00
H124   H     0.59255   0.23233   0.08585   0.00000  Uiso   1.00
C125   C     0.66555   0.23345   0.02971   0.00000  Uiso   1.00
H126   H     0.36722   0.21874   0.02567   0.00000  Uiso   1.00
H127   H     0.65609   0.22579   0.49294   0.00000  Uiso   1.00
C128   C     0.33669   0.28059   0.03367   0.00000  Uiso   1.00
H129   H     0.63565   0.29610   0.03675   0.00000  Uiso   1.00
H130   H     0.36457   0.29199   0.49689   0.00000  Uiso   1.00
H131   H     0.34699   0.28903   0.06965   0.00000  Uiso   1.00
I132   I     0.63822   0.09802   0.16170   0.00000  Uiso   1.00
C133   C     0.83328   0.24666   0.25005   0.00000  Uiso   1.00
C134   C     0.81439   0.13452   0.48822   0.00000  Uiso   1.00
C135   C     0.82797   0.13442   0.43143   0.00000  Uiso   1.00
C136   C     0.85046   0.13977   0.01223   0.00000  Uiso   1.00
C137   C     0.89911   0.13797   0.47988   0.00000  Uiso   1.00
C138   C     0.91126   0.12683   0.42549   0.00000  Uiso   1.00
C139   C     0.87585   0.12423   0.40160   0.00000  Uiso   1.00
C140   C     0.83929   0.15061   0.06650   0.00000  Uiso   1.00
C141   C     0.92290   0.16110   0.05597   0.00000  Uiso   1.00
C142   C     0.79334   0.14566   0.40700   0.00000  Uiso   1.00
C143   C     0.86909   0.31196   0.26340   0.00000  Uiso   1.00
C144   C     0.80771   0.16073   0.35104   0.00000  Uiso   1.00
C145   C     0.86920   0.02129   0.26327   0.00000  Uiso   1.00
C146   C     0.83354   0.04251   0.24967   0.00000  Uiso   1.00
C147   C     0.79782   0.02139   0.23610   0.00000  Uiso   1.00
C148   C     0.79767   0.31206   0.23630   0.00000  Uiso   1.00
C149   C     0.83330   0.29084   0.24997   0.00000  Uiso   1.00
C150   C     0.98643   0.14062   0.21611   0.00000  Uiso   1.00
C151   C     0.70075   0.14086   0.21626   0.00000  Uiso   1.00
C152   C     0.68071   0.19247   0.28397   0.00000  Uiso   1.00
C153   C     0.96618   0.19249   0.28393   0.00000  Uiso   1.00
C154   C     0.83343   0.08667   0.24983   0.00000  Uiso   1.00
C155   C     0.85952   0.16634   0.14773   0.00000  Uiso   1.00
C156   C     0.93477   0.14843   0.00191   0.00000  Uiso   1.00
C157   C     0.87477   0.16014   0.08909   0.00000  Uiso   1.00
C158   C     0.74486   0.14379   0.43758   0.00000  Uiso   1.00
C159   C     0.73128   0.13399   0.49224   0.00000  Uiso   1.00
C160   C     0.76537   0.13126   0.01813   0.00000  Uiso   1.00
H161   H     0.89675   0.03754   0.27424   0.00000  Uiso   1.00
H162   H     0.77030   0.03772   0.22506   0.00000  Uiso   1.00
H163   H     0.77009   0.29582   0.22540   0.00000  Uiso   1.00
H164   H     0.72698   0.12024   0.18935   0.00000  Uiso   1.00
H165   H     0.69087   0.21314   0.31119   0.00000  Uiso   1.00
H166   H     0.94024   0.21316   0.31111   0.00000  Uiso   1.00
H167   H     0.94820   0.12211   0.40086   0.00000  Uiso   1.00
H168   H     0.97160   0.14838   0.47643   0.00000  Uiso   1.00
H169   H     0.80253   0.15304   0.09160   0.00000  Uiso   1.00
H170   H     0.71767   0.14971   0.41913   0.00000  Uiso   1.00
H171   H     0.75259   0.12558   0.06110   0.00000  Uiso   1.00
H172   H     0.69420   0.13025   0.01544   0.00000  Uiso   1.00
H173   H     0.88666   0.11449   0.35967   0.00000  Uiso   1.00
H174   H     0.89662   0.29564   0.27441   0.00000  Uiso   1.00
N175   N     0.71426   0.16668   0.25001   0.00000  Uiso   1.00
N176   N     0.95239   0.16665   0.25000   0.00000  Uiso   1.00
O177   O     0.79512   0.22775   0.25000   0.00000  Uiso   1.00
O178   O     0.87157   0.22774   0.25000   0.00000  Uiso   1.00
O179   O     0.77613   0.16666   0.32681   0.00000  Uiso   1.00
O180   O     0.85258   0.16665   0.32681   0.00000  Uiso   1.00
O181   O     0.79510   0.10559   0.24999   0.00000  Uiso   1.00
O182   O     0.87154   0.10558   0.24999   0.00000  Uiso   1.00
O183   O     0.81409   0.16668   0.17319   0.00000  Uiso   1.00
O184   O     0.89053   0.16667   0.17319   0.00000  Uiso   1.00
Zn185  Zn    0.78229   0.16667   0.25000   0.00000  Uiso   1.00
Zn186  Zn    0.88438   0.16666   0.25000   0.00000  Uiso   1.00
O187   O     0.95879   0.17242   0.07628   0.00000  Uiso   1.00
C188   C     0.96083   0.21637   0.07980   0.00000  Uiso   1.00
H189   H     0.97115   0.22408   0.11601   0.00000  Uiso   1.00
H190   H     0.92588   0.23233   0.08585   0.00000  Uiso   1.00
C191   C     0.99889   0.23345   0.02971   0.00000  Uiso   1.00
H192   H     0.70055   0.21874   0.02567   0.00000  Uiso   1.00
H193   H     0.98943   0.22579   0.49294   0.00000  Uiso   1.00
C194   C     0.67002   0.28059   0.03367   0.00000  Uiso   1.00
H195   H     0.96898   0.29610   0.03675   0.00000  Uiso   1.00
H196   H     0.69791   0.29199   0.49689   0.00000  Uiso   1.00
H197   H     0.68033   0.28903   0.06965   0.00000  Uiso   1.00
I198   I     0.97155   0.09802   0.16170   0.00000  Uiso   1.00
C199   C     0.16661   0.58000   0.25005   0.00000  Uiso   1.00
C200   C     0.14772   0.46786   0.48822   0.00000  Uiso   1.00
C201   C     0.16130   0.46775   0.43143   0.00000  Uiso   1.00
C202   C     0.18380   0.47311   0.01223   0.00000  Uiso   1.00
C203   C     0.23244   0.47130   0.47988   0.00000  Uiso   1.00
C204   C     0.24460   0.46016   0.42549   0.00000  Uiso   1.00
C205   C     0.20919   0.45756   0.40160   0.00000  Uiso   1.00
C206   C     0.17262   0.48394   0.06650   0.00000  Uiso   1.00
C207   C     0.25623   0.49443   0.05597   0.00000  Uiso   1.00
C208   C     0.12668   0.47899   0.40700   0.00000  Uiso   1.00
C209   C     0.20242   0.64529   0.26340   0.00000  Uiso   1.00
C210   C     0.14105   0.49407   0.35104   0.00000  Uiso   1.00
C211   C     0.20253   0.35462   0.26327   0.00000  Uiso   1.00
C212   C     0.16687   0.37584   0.24967   0.00000  Uiso   1.00
C213   C     0.13115   0.35473   0.23610   0.00000  Uiso   1.00
C214   C     0.13101   0.64540   0.23630   0.00000  Uiso   1.00
C215   C     0.16663   0.62417   0.24997   0.00000  Uiso   1.00
C216   C     0.31977   0.47396   0.21611   0.00000  Uiso   1.00
C217   C     0.03408   0.47419   0.21626   0.00000  Uiso   1.00
C218   C     0.01405   0.52581   0.28397   0.00000  Uiso   1.00
C219   C     0.29951   0.52582   0.28393   0.00000  Uiso   1.00
C220   C     0.16676   0.42000   0.24983   0.00000  Uiso   1.00
C221   C     0.19285   0.49967   0.14773   0.00000  Uiso   1.00
C222   C     0.26811   0.48177   0.00191   0.00000  Uiso   1.00
C223   C     0.20811   0.49347   0.08909   0.00000  Uiso   1.00
C224   C     0.07819   0.47712   0.43758   0.00000  Uiso   1.00
C225   C     0.06461   0.46732   0.49224   0.00000  Uiso   1.00
C226   C     0.09870   0.46459   0.01813   0.00000  Uiso   1.00
H227   H     0.23008   0.37087   0.27424   0.00000  Uiso   1.00
H228   H     0.10364   0.37106   0.22506   0.00000  Uiso   1.00
H229   H     0.10342   0.62915   0.22540   0.00000  Uiso   1.00
H230   H     0.06031   0.45358   0.18935   0.00000  Uiso   1.00
H231   H     0.02420   0.54647   0.31119   0.00000  Uiso   1.00
H232   H     0.27357   0.54650   0.31111   0.00000  Uiso   1.00
H233   H     0.28153   0.45544   0.40086   0.00000  Uiso   1.00
H234   H     0.30494   0.48171   0.47643   0.00000  Uiso   1.00
H235   H     0.13587   0.48637   0.09160   0.00000  Uiso   1.00
H236   H     0.05100   0.48304   0.41913   0.00000  Uiso   1.00
H237   H     0.08592   0.45891   0.06110   0.00000  Uiso   1.00
H238   H     0.02753   0.46358   0.01544   0.00000  Uiso   1.00
H239   H     0.21999   0.44783   0.35967   0.00000  Uiso   1.00
H240   H     0.22996   0.62897   0.27441   0.00000  Uiso   1.00
N241   N     0.04760   0.50001   0.25001   0.00000  Uiso   1.00
N242   N     0.28573   0.49998   0.25000   0.00000  Uiso   1.00
O243   O     0.12846   0.56108   0.25000   0.00000  Uiso   1.00
O244   O     0.20490   0.56107   0.25000   0.00000  Uiso   1.00
O245   O     0.10947   0.50000   0.32681   0.00000  Uiso   1.00
O246   O     0.18591   0.49999   0.32681   0.00000  Uiso   1.00
O247   O     0.12843   0.43893   0.24999   0.00000  Uiso   1.00
O248   O     0.20488   0.43892   0.24999   0.00000  Uiso   1.00
O249   O     0.14742   0.50001   0.17319   0.00000  Uiso   1.00
O250   O     0.22387   0.50000   0.17319   0.00000  Uiso   1.00
Zn251  Zn    0.11562   0.50001   0.25000   0.00000  Uiso   1.00
Zn252  Zn    0.21771   0.49999   0.25000   0.00000  Uiso   1.00
O253   O     0.29212   0.50575   0.07628   0.00000  Uiso   1.00
C254   C     0.29416   0.54970   0.07980   0.00000  Uiso   1.00
H255   H     0.30448   0.55741   0.11601   0.00000  Uiso   1.00
H256   H     0.25921   0.56566   0.08585   0.00000  Uiso   1.00
C257   C     0.33222   0.56678   0.02971   0.00000  Uiso   1.00
H258   H     0.03389   0.55208   0.02567   0.00000  Uiso   1.00
H259   H     0.32276   0.55913   0.49294   0.00000  Uiso   1.00
C260   C     0.00335   0.61393   0.03367   0.00000  Uiso   1.00
H261   H     0.30231   0.62943   0.03675   0.00000  Uiso   1.00
H262   H     0.03124   0.62532   0.49689   0.00000  Uiso   1.00
H263   H     0.01366   0.62236   0.06965   0.00000  Uiso   1.00
I264   I     0.30489   0.43135   0.16170   0.00000  Uiso   1.00
C265   C     0.49995   0.58000   0.25005   0.00000  Uiso   1.00
C266   C     0.48106   0.46786   0.48822   0.00000  Uiso   1.00
C267   C     0.49464   0.46775   0.43143   0.00000  Uiso   1.00
C268   C     0.51713   0.47311   0.01223   0.00000  Uiso   1.00
C269   C     0.56577   0.47130   0.47988   0.00000  Uiso   1.00
C270   C     0.57793   0.46016   0.42549   0.00000  Uiso   1.00
C271   C     0.54252   0.45756   0.40160   0.00000  Uiso   1.00
C272   C     0.50596   0.48394   0.06650   0.00000  Uiso   1.00
C273   C     0.58956   0.49443   0.05597   0.00000  Uiso   1.00
C274   C     0.46001   0.47899   0.40700   0.00000  Uiso   1.00
C275   C     0.53576   0.64529   0.26340   0.00000  Uiso   1.00
C276   C     0.47438   0.49407   0.35104   0.00000  Uiso   1.00
C277   C     0.53586   0.35462   0.26327   0.00000  Uiso   1.00
C278   C     0.50020   0.37584   0.24967   0.00000  Uiso   1.00
C279   C     0.46448   0.35473   0.23610   0.00000  Uiso   1.00
C280   C     0.46434   0.64540   0.23630   0.00000  Uiso   1.00
C281   C     0.49996   0.62417   0.24997   0.00000  Uiso   1.00
C282   C     0.65310   0.47396   0.21611   0.00000  Uiso   1.00
C283   C     0.36741   0.47419   0.21626   0.00000  Uiso   1.00
C284   C     0.34738   0.52581   0.28397   0.00000  Uiso   1.00
C285   C     0.63284   0.52582   0.28393   0.00000  Uiso   1.00
C286   C     0.50010   0.42000   0.24983   0.00000  Uiso   1.00
C287   C     0.52618   0.49967   0.14773   0.00000  Uiso   1.00
C288   C     0.60144   0.48177   0.00191   0.00000  Uiso   1.00
C289   C     0.54144   0.49347   0.08909   0.00000  Uiso   1.00
C290   C     0.41153   0.47712   0.43758   0.00000  Uiso   1.00
C291   C     0.39794   0.46732   0.49224   0.00000  Uiso   1.00
C292   C     0.43204   0.46459   0.01813   0.00000  Uiso   1.00
H293   H     0.56341   0.37087   0.27424   0.00000  Uiso   1.00
H294   H     0.43697   0.37106   0.22506   0.00000  Uiso   1.00
H295   H     0.43675   0.62915   0.22540   0.00000  Uiso   1.00
H296   H     0.39365   0.45358   0.18935   0.00000  Uiso   1.00
H297   H     0.35753   0.54647   0.31119   0.00000  Uiso   1.00
H298   H     0.60690   0.54650   0.31111   0.00000  Uiso   1.00
H299   H     0.61486   0.45544   0.40086   0.00000  Uiso   1.00
H300   H     0.63827   0.48171   0.47643   0.00000  Uiso   1.00
H301   H     0.46920   0.48637   0.09160   0.00000  Uiso   1.00
H302   H     0.38433   0.48304   0.41913   0.00000  Uiso   1.00
H303   H     0.41926   0.45891   0.06110   0.00000  Uiso   1.00
H304   H     0.36086   0.46358   0.01544   0.00000  Uiso   1.00
H305   H     0.55332   0.44783   0.35967   0.00000  Uiso   1.00
H306   H     0.56329   0.62897   0.27441   0.00000  Uiso   1.00
N307   N     0.38093   0.50001   0.25001   0.00000  Uiso   1.00
N308   N     0.61906   0.49998   0.25000   0.00000  Uiso   1.00
O309   O     0.46179   0.56108   0.25000   0.00000  Uiso   1.00
O310   O     0.53823   0.56107   0.25000   0.00000  Uiso   1.00
O311   O     0.44280   0.50000   0.32681   0.00000  Uiso   1.00
O312   O     0.51924   0.49999   0.32681   0.00000  Uiso   1.00
O313   O     0.46177   0.43893   0.24999   0.00000  Uiso   1.00
O314   O     0.53821   0.43892   0.24999   0.00000  Uiso   1.00
O315   O     0.48076   0.50001   0.17319   0.00000  Uiso   1.00
O316   O     0.55720   0.50000   0.17319   0.00000  Uiso   1.00
Zn317  Zn    0.44896   0.50001   0.25000   0.00000  Uiso   1.00
Zn318  Zn    0.55104   0.49999   0.25000   0.00000  Uiso   1.00
O319   O     0.62545   0.50575   0.07628   0.00000  Uiso   1.00
C320   C     0.62749   0.54970   0.07980   0.00000  Uiso   1.00
H321   H     0.63782   0.55741   0.11601   0.00000  Uiso   1.00
H322   H     0.59255   0.56566   0.08585   0.00000  Uiso   1.00
C323   C     0.66555   0.56678   0.02971   0.00000  Uiso   1.00
H324   H     0.36722   0.55208   0.02567   0.00000  Uiso   1.00
H325   H     0.65609   0.55913   0.49294   0.00000  Uiso   1.00
C326   C     0.33669   0.61393   0.03367   0.00000  Uiso   1.00
H327   H     0.63565   0.62943   0.03675   0.00000  Uiso   1.00
H328   H     0.36457   0.62532   0.49689   0.00000  Uiso   1.00
H329   H     0.34699   0.62236   0.06965   0.00000  Uiso   1.00
I330   I     0.63822   0.43135   0.16170   0.00000  Uiso   1.00
C331   C     0.83328   0.58000   0.25005   0.00000  Uiso   1.00
C332   C     0.81439   0.46786   0.48822   0.00000  Uiso   1.00
C333   C     0.82797   0.46775   0.43143   0.00000  Uiso   1.00
C334   C     0.85046   0.47311   0.01223   0.00000  Uiso   1.00
C335   C     0.89911   0.47130   0.47988   0.00000  Uiso   1.00
C336   C     0.91126   0.46016   0.42549   0.00000  Uiso   1.00
C337   C     0.87585   0.45756   0.40160   0.00000  Uiso   1.00
C338   C     0.83929   0.48394   0.06650   0.00000  Uiso   1.00
C339   C     0.92290   0.49443   0.05597   0.00000  Uiso   1.00
C340   C     0.79334   0.47899   0.40700   0.00000  Uiso   1.00
C341   C     0.86909   0.64529   0.26340   0.00000  Uiso   1.00
C342   C     0.80771   0.49407   0.35104   0.00000  Uiso   1.00
C343   C     0.86920   0.35462   0.26327   0.00000  Uiso   1.00
C344   C     0.83354   0.37584   0.24967   0.00000  Uiso   1.00
C345   C     0.79782   0.35473   0.23610   0.00000  Uiso   1.00
C346   C     0.79767   0.64540   0.23630   0.00000  Uiso   1.00
C347   C     0.83330   0.62417   0.24997   0.00000  Uiso   1.00
C348   C     0.98643   0.47396   0.21611   0.00000  Uiso   1.00
C349   C     0.70075   0.47419   0.21626   0.00000  Uiso   1.00
C350   C     0.68071   0.52581   0.28397   0.00000  Uiso   1.00
C351   C     0.96618   0.52582   0.28393   0.00000  Uiso   1.00
C352   C     0.83343   0.42000   0.24983   0.00000  Uiso   1.00
C353   C     0.85952   0.49967   0.14773   0.00000  Uiso   1.00
C354   C     0.93477   0.48177   0.00191   0.00000  Uiso   1.00
C355   C     0.87477   0.49347   0.08909   0.00000  Uiso   1.00
C356   C     0.74486   0.47712   0.43758   0.00000  Uiso   1.00
C357   C     0.73128   0.46732   0.49224   0.00000  Uiso   1.00
C358   C     0.76537   0.46459   0.01813   0.00000  Uiso   1.00
H359   H     0.89675   0.37087   0.27424   0.00000  Uiso   1.00
H360   H     0.77030   0.37106   0.22506   0.00000  Uiso   1.00
H361   H     0.77009   0.62915   0.22540   0.00000  Uiso   1.00
H362   H     0.72698   0.45358   0.18935   0.00000  Uiso   1.00
H363   H     0.69087   0.54647   0.31119   0.00000  Uiso   1.00
H364   H     0.94024   0.54650   0.31111   0.00000  Uiso   1.00
H365   H     0.94820   0.45544   0.40086   0.00000  Uiso   1.00
H366   H     0.97160   0.48171   0.47643   0.00000  Uiso   1.00
H367   H     0.80253   0.48637   0.09160   0.00000  Uiso   1.00
H368   H     0.71767   0.48304   0.41913   0.00000  Uiso   1.00
H369   H     0.75259   0.45891   0.06110   0.00000  Uiso   1.00
H370   H     0.69420   0.46358   0.01544   0.00000  Uiso   1.00
H371   H     0.88666   0.44783   0.35967   0.00000  Uiso   1.00
H372   H     0.89662   0.62897   0.27441   0.00000  Uiso   1.00
N373   N     0.71426   0.50001   0.25001   0.00000  Uiso   1.00
N374   N     0.95239   0.49998   0.25000   0.00000  Uiso   1.00
O375   O     0.79512   0.56108   0.25000   0.00000  Uiso   1.00
O376   O     0.87157   0.56107   0.25000   0.00000  Uiso   1.00
O377   O     0.77613   0.50000   0.32681   0.00000  Uiso   1.00
O378   O     0.85258   0.49999   0.32681   0.00000  Uiso   1.00
O379   O     0.79510   0.43893   0.24999   0.00000  Uiso   1.00
O380   O     0.87154   0.43892   0.24999   0.00000  Uiso   1.00
O381   O     0.81409   0.50001   0.17319   0.00000  Uiso   1.00
O382   O     0.89053   0.50000   0.17319   0.00000  Uiso   1.00
Zn383  Zn    0.78229   0.50001   0.25000   0.00000  Uiso   1.00
Zn384  Zn    0.88438   0.49999   0.25000   0.00000  Uiso   1.00
O385   O     0.95879   0.50575   0.07628   0.00000  Uiso   1.00
C386   C     0.96083   0.54970   0.07980   0.00000  Uiso   1.00
H387   H     0.97115   0.55741   0.11601   0.00000  Uiso   1.00
H388   H     0.92588   0.56566   0.08585   0.00000  Uiso   1.00
C389   C     0.99889   0.56678   0.02971   0.00000  Uiso   1.00
H390   H     0.70055   0.55208   0.02567   0.00000  Uiso   1.00
H391   H     0.98943   0.55913   0.49294   0.00000  Uiso   1.00
C392   C     0.67002   0.61393   0.03367   0.00000  Uiso   1.00
H393   H     0.96898   0.62943   0.03675   0.00000  Uiso   1.00
H394   H     0.69791   0.62532   0.49689   0.00000  Uiso   1.00
H395   H     0.68033   0.62236   0.06965   0.00000  Uiso   1.00
I396   I     0.97155   0.43135   0.16170   0.00000  Uiso   1.00
C397   C     0.16661   0.91333   0.25005   0.00000  Uiso   1.00
C398   C     0.14772   0.80119   0.48822   0.00000  Uiso   1.00
C399   C     0.16130   0.80109   0.43143   0.00000  Uiso   1.00
C400   C     0.18380   0.80644   0.01223   0.00000  Uiso   1.00
C401   C     0.23244   0.80464   0.47988   0.00000  Uiso   1.00
C402   C     0.24460   0.79349   0.42549   0.00000  Uiso   1.00
C403   C     0.20919   0.79089   0.40160   0.00000  Uiso   1.00
C404   C     0.17262   0.81728   0.06650   0.00000  Uiso   1.00
C405   C     0.25623   0.82776   0.05597   0.00000  Uiso   1.00
C406   C     0.12668   0.81232   0.40700   0.00000  Uiso   1.00
C407   C     0.20242   0.97863   0.26340   0.00000  Uiso   1.00
C408   C     0.14105   0.82740   0.35104   0.00000  Uiso   1.00
C409   C     0.20253   0.68796   0.26327   0.00000  Uiso   1.00
C410   C     0.16687   0.70918   0.24967   0.00000  Uiso   1.00
C411   C     0.13115   0.68806   0.23610   0.00000  Uiso   1.00
C412   C     0.13101   0.97873   0.23630   0.00000  Uiso   1.00
C413   C     0.16663   0.95750   0.24997   0.00000  Uiso   1.00
C414   C     0.31977   0.80729   0.21611   0.00000  Uiso   1.00
C415   C     0.03408   0.80753   0.21626   0.00000  Uiso   1.00
C416   C     0.01405   0.85914   0.28397   0.00000  Uiso   1.00
C417   C     0.29951   0.85916   0.28393   0.00000  Uiso   1.00
C418   C     0.16676   0.75334   0.24983   0.00000  Uiso   1.00
C419   C     0.19285   0.83301   0.14773   0.00000  Uiso   1.00
C420   C     0.26811   0.81510   0.00191   0.00000  Uiso   1.00
C421   C     0.20811   0.82680   0.08909   0.00000  Uiso   1.00
C422   C     0.07819   0.81045   0.43758   0.00000  Uiso   1.00
C423   C     0.06461   0.80066   0.49224   0.00000  Uiso   1.00
C424   C     0.09870   0.79792   0.01813   0.00000  Uiso   1.00
H425   H     0.23008   0.70420   0.27424   0.00000  Uiso   1.00
H426   H     0.10364   0.70439   0.22506   0.00000  Uiso   1.00
H427   H     0.10342   0.96248   0.22540   0.00000  Uiso   1.00
H428   H     0.06031   0.78691   0.18935   0.00000  Uiso   1.00
H429   H     0.02420   0.87980   0.31119   0.00000  Uiso   1.00
H430   H     0.27357   0.87983   0.31111   0.00000  Uiso   1.00
H431   H     0.28153   0.78877   0.40086   0.00000  Uiso   1.00
H432   H     0.30494   0.81505   0.47643   0.00000  Uiso   1.00
H433   H     0.13587   0.81971   0.09160   0.00000  Uiso   1.00
H434   H     0.05100   0.81638   0.41913   0.00000  Uiso   1.00
H435   H     0.08592   0.79224   0.06110   0.00000  Uiso   1.00
H436   H     0.02753   0.79692   0.01544   0.00000  Uiso   1.00
H437   H     0.21999   0.78116   0.35967   0.00000  Uiso   1.00
H438   H     0.22996   0.96231   0.27441   0.00000  Uiso   1.00
N439   N     0.04760   0.83334   0.25001   0.00000  Uiso   1.00
N440   N     0.28573   0.83331   0.25000   0.00000  Uiso   1.00
O441   O     0.12846   0.89442   0.25000   0.00000  Uiso   1.00
O442   O     0.20490   0.89441   0.25000   0.00000  Uiso   1.00
O443   O     0.10947   0.83333   0.32681   0.00000  Uiso   1.00
O444   O     0.18591   0.83332   0.32681   0.00000  Uiso   1.00
O445   O     0.12843   0.77226   0.24999   0.00000  Uiso   1.00
O446   O     0.20488   0.77225   0.24999   0.00000  Uiso   1.00
O447   O     0.14742   0.83335   0.17319   0.00000  Uiso   1.00
O448   O     0.22387   0.83334   0.17319   0.00000  Uiso   1.00
Zn449  Zn    0.11562   0.83334   0.25000   0.00000  Uiso   1.00
Zn450  Zn    0.21771   0.83333   0.25000   0.00000  Uiso   1.00
O451   O     0.29212   0.83909   0.07628   0.00000  Uiso   1.00
C452   C     0.29416   0.88303   0.07980   0.00000  Uiso   1.00
H453   H     0.30448   0.89074   0.11601   0.00000  Uiso   1.00
H454   H     0.25921   0.89900   0.08585   0.00000  Uiso   1.00
C455   C     0.33222   0.90012   0.02971   0.00000  Uiso   1.00
H456   H     0.03389   0.88541   0.02567   0.00000  Uiso   1.00
H457   H     0.32276   0.89246   0.49294   0.00000  Uiso   1.00
C458   C     0.00335   0.94726   0.03367   0.00000  Uiso   1.00
H459   H     0.30231   0.96276   0.03675   0.00000  Uiso   1.00
H460   H     0.03124   0.95865   0.49689   0.00000  Uiso   1.00
H461   H     0.01366   0.95570   0.06965   0.00000  Uiso   1.00
I462   I     0.30489   0.76468   0.16170   0.00000  Uiso   1.00
C463   C     0.49995   0.91333   0.25005   0.00000  Uiso   1.00
C464   C     0.48106   0.80119   0.48822   0.00000  Uiso   1.00
C465   C     0.49464   0.80109   0.43143   0.00000  Uiso   1.00
C466   C     0.51713   0.80644   0.01223   0.00000  Uiso   1.00
C467   C     0.56577   0.80464   0.47988   0.00000  Uiso   1.00
C468   C     0.57793   0.79349   0.42549   0.00000  Uiso   1.00
C469   C     0.54252   0.79089   0.40160   0.00000  Uiso   1.00
C470   C     0.50596   0.81728   0.06650   0.00000  Uiso   1.00
C471   C     0.58956   0.82776   0.05597   0.00000  Uiso   1.00
C472   C     0.46001   0.81232   0.40700   0.00000  Uiso   1.00
C473   C     0.53576   0.97863   0.26340   0.00000  Uiso   1.00
C474   C     0.47438   0.82740   0.35104   0.00000  Uiso   1.00
C475   C     0.53586   0.68796   0.26327   0.00000  Uiso   1.00
C476   C     0.50020   0.70918   0.24967   0.00000  Uiso   1.00
C477   C     0.46448   0.68806   0.23610   0.00000  Uiso   1.00
C478   C     0.46434   0.97873   0.23630   0.00000  Uiso   1.00
C479   C     0.49996   0.95750   0.24997   0.00000  Uiso   1.00
C480   C     0.65310   0.80729   0.21611   0.00000  Uiso   1.00
C481   C     0.36741   0.80753   0.21626   0.00000  Uiso   1.00
C482   C     0.34738   0.85914   0.28397   0.00000  Uiso   1.00
C483   C     0.63284   0.85916   0.28393   0.00000  Uiso   1.00
C484   C     0.50010   0.75334   0.24983   0.00000  Uiso   1.00
C485   C     0.52618   0.83301   0.14773   0.00000  Uiso   1.00
C486   C     0.60144   0.81510   0.00191   0.00000  Uiso   1.00
C487   C     0.54144   0.82680   0.08909   0.00000  Uiso   1.00
C488   C     0.41153   0.81045   0.43758   0.00000  Uiso   1.00
C489   C     0.39794   0.80066   0.49224   0.00000  Uiso   1.00
C490   C     0.43204   0.79792   0.01813   0.00000  Uiso   1.00
H491   H     0.56341   0.70420   0.27424   0.00000  Uiso   1.00
H492   H     0.43697   0.70439   0.22506   0.00000  Uiso   1.00
H493   H     0.43675   0.96248   0.22540   0.00000  Uiso   1.00
H494   H     0.39365   0.78691   0.18935   0.00000  Uiso   1.00
H495   H     0.35753   0.87980   0.31119   0.00000  Uiso   1.00
H496   H     0.60690   0.87983   0.31111   0.00000  Uiso   1.00
H497   H     0.61486   0.78877   0.40086   0.00000  Uiso   1.00
H498   H     0.63827   0.81505   0.47643   0.00000  Uiso   1.00
H499   H     0.46920   0.81971   0.09160   0.00000  Uiso   1.00
H500   H     0.38433   0.81638   0.41913   0.00000  Uiso   1.00
H501   H     0.41926   0.79224   0.06110   0.00000  Uiso   1.00
H502   H     0.36086   0.79692   0.01544   0.00000  Uiso   1.00
H503   H     0.55332   0.78116   0.35967   0.00000  Uiso   1.00
H504   H     0.56329   0.96231   0.27441   0.00000  Uiso   1.00
N505   N     0.38093   0.83334   0.25001   0.00000  Uiso   1.00
N506   N     0.61906   0.83331   0.25000   0.00000  Uiso   1.00
O507   O     0.46179   0.89442   0.25000   0.00000  Uiso   1.00
O508   O     0.53823   0.89441   0.25000   0.00000  Uiso   1.00
O509   O     0.44280   0.83333   0.32681   0.00000  Uiso   1.00
O510   O     0.51924   0.83332   0.32681   0.00000  Uiso   1.00
O511   O     0.46177   0.77226   0.24999   0.00000  Uiso   1.00
O512   O     0.53821   0.77225   0.24999   0.00000  Uiso   1.00
O513   O     0.48076   0.83335   0.17319   0.00000  Uiso   1.00
O514   O     0.55720   0.83334   0.17319   0.00000  Uiso   1.00
Zn515  Zn    0.44896   0.83334   0.25000   0.00000  Uiso   1.00
Zn516  Zn    0.55104   0.83333   0.25000   0.00000  Uiso   1.00
O517   O     0.62545   0.83909   0.07628   0.00000  Uiso   1.00
C518   C     0.62749   0.88303   0.07980   0.00000  Uiso   1.00
H519   H     0.63782   0.89074   0.11601   0.00000  Uiso   1.00
H520   H     0.59255   0.89900   0.08585   0.00000  Uiso   1.00
C521   C     0.66555   0.90012   0.02971   0.00000  Uiso   1.00
H522   H     0.36722   0.88541   0.02567   0.00000  Uiso   1.00
H523   H     0.65609   0.89246   0.49294   0.00000  Uiso   1.00
C524   C     0.33669   0.94726   0.03367   0.00000  Uiso   1.00
H525   H     0.63565   0.96276   0.03675   0.00000  Uiso   1.00
H526   H     0.36457   0.95865   0.49689   0.00000  Uiso   1.00
H527   H     0.34699   0.95570   0.06965   0.00000  Uiso   1.00
I528   I     0.63822   0.76468   0.16170   0.00000  Uiso   1.00
C529   C     0.83328   0.91333   0.25005   0.00000  Uiso   1.00
C530   C     0.81439   0.80119   0.48822   0.00000  Uiso   1.00
C531   C     0.82797   0.80109   0.43143   0.00000  Uiso   1.00
C532   C     0.85046   0.80644   0.01223   0.00000  Uiso   1.00
C533   C     0.89911   0.80464   0.47988   0.00000  Uiso   1.00
C534   C     0.91126   0.79349   0.42549   0.00000  Uiso   1.00
C535   C     0.87585   0.79089   0.40160   0.00000  Uiso   1.00
C536   C     0.83929   0.81728   0.06650   0.00000  Uiso   1.00
C537   C     0.92290   0.82776   0.05597   0.00000  Uiso   1.00
C538   C     0.79334   0.81232   0.40700   0.00000  Uiso   1.00
C539   C     0.86909   0.97863   0.26340   0.00000  Uiso   1.00
C540   C     0.80771   0.82740   0.35104   0.00000  Uiso   1.00
C541   C     0.86920   0.68796   0.26327   0.00000  Uiso   1.00
C542   C     0.83354   0.70918   0.24967   0.00000  Uiso   1.00
C543   C     0.79782   0.68806   0.23610   0.00000  Uiso   1.00
C544   C     0.79767   0.97873   0.23630   0.00000  Uiso   1.00
C545   C     0.83330   0.95750   0.24997   0.00000  Uiso   1.00
C546   C     0.98643   0.80729   0.21611   0.00000  Uiso   1.00
C547   C     0.70075   0.80753   0.21626   0.00000  Uiso   1.00
C548   C     0.68071   0.85914   0.28397   0.00000  Uiso   1.00
C549   C     0.96618   0.85916   0.28393   0.00000  Uiso   1.00
C550   C     0.83343   0.75334   0.24983   0.00000  Uiso   1.00
C551   C     0.85952   0.83301   0.14773   0.00000  Uiso   1.00
C552   C     0.93477   0.81510   0.00191   0.00000  Uiso   1.00
C553   C     0.87477   0.82680   0.08909   0.00000  Uiso   1.00
C554   C     0.74486   0.81045   0.43758   0.00000  Uiso   1.00
C555   C     0.73128   0.80066   0.49224   0.00000  Uiso   1.00
C556   C     0.76537   0.79792   0.01813   0.00000  Uiso   1.00
H557   H     0.89675   0.70420   0.27424   0.00000  Uiso   1.00
H558   H     0.77030   0.70439   0.22506   0.00000  Uiso   1.00
H559   H     0.77009   0.96248   0.22540   0.00000  Uiso   1.00
H560   H     0.72698   0.78691   0.18935   0.00000  Uiso   1.00
H561   H     0.69087   0.87980   0.31119   0.00000  Uiso   1.00
H562   H     0.94024   0.87983   0.31111   0.00000  Uiso   1.00
H563   H     0.94820   0.78877   0.40086   0.00000  Uiso   1.00
H564   H     0.97160   0.81505   0.47643   0.00000  Uiso   1.00
H565   H     0.80253   0.81971   0.09160   0.00000  Uiso   1.00
H566   H     0.71767   0.81638   0.41913   0.00000  Uiso   1.00
H567   H     0.75259   0.79224   0.06110   0.00000  Uiso   1.00
H568   H     0.69420   0.79692   0.01544   0.00000  Uiso   1.00
H569   H     0.88666   0.78116   0.35967   0.00000  Uiso   1.00
H570   H     0.89662   0.96231   0.27441   0.00000  Uiso   1.00
N571   N     0.71426   0.83334   0.25001   0.00000  Uiso   1.00
N572   N     0.95239   0.83331   0.25000   0.00000  Uiso   1.00
O573   O     0.79512   0.89442   0.25000   0.00000  Uiso   1.00
O574   O     0.87157   0.89441   0.25000   0.00000  Uiso   1.00
O575   O     0.77613   0.83333   0.32681   0.00000  Uiso   1.00
O576   O     0.85258   0.83332   0.32681   0.00000  Uiso   1.00
O577   O     0.79510   0.77226   0.24999   0.00000  Uiso   1.00
O578   O     0.87154   0.77225   0.24999   0.00000  Uiso   1.00
O579   O     0.81409   0.83335   0.17319   0.00000  Uiso   1.00
O580   O     0.89053   0.83334   0.17319   0.00000  Uiso   1.00
Zn581  Zn    0.78229   0.83334   0.25000   0.00000  Uiso   1.00
Zn582  Zn    0.88438   0.83333   0.25000   0.00000  Uiso   1.00
O583   O     0.95879   0.83909   0.07628   0.00000  Uiso   1.00
C584   C     0.96083   0.88303   0.07980   0.00000  Uiso   1.00
H585   H     0.97115   0.89074   0.11601   0.00000  Uiso   1.00
H586   H     0.92588   0.89900   0.08585   0.00000  Uiso   1.00
C587   C     0.99889   0.90012   0.02971   0.00000  Uiso   1.00
H588   H     0.70055   0.88541   0.02567   0.00000  Uiso   1.00
H589   H     0.98943   0.89246   0.49294   0.00000  Uiso   1.00
C590   C     0.67002   0.94726   0.03367   0.00000  Uiso   1.00
H591   H     0.96898   0.96276   0.03675   0.00000  Uiso   1.00
H592   H     0.69791   0.95865   0.49689   0.00000  Uiso   1.00
H593   H     0.68033   0.95570   0.06965   0.00000  Uiso   1.00
I594   I     0.97155   0.76468   0.16170   0.00000  Uiso   1.00
C595   C     0.16661   0.24666   0.75005   0.00000  Uiso   1.00
C596   C     0.14772   0.13452   0.98822   0.00000  Uiso   1.00
C597   C     0.16130   0.13442   0.93143   0.00000  Uiso   1.00
C598   C     0.18380   0.13977   0.51223   0.00000  Uiso   1.00
C599   C     0.23244   0.13797   0.97988   0.00000  Uiso   1.00
C600   C     0.24460   0.12683   0.92549   0.00000  Uiso   1.00
C601   C     0.20919   0.12423   0.90160   0.00000  Uiso   1.00
C602   C     0.17262   0.15061   0.56650   0.00000  Uiso   1.00
C603   C     0.25623   0.16110   0.55597   0.00000  Uiso   1.00
C604   C     0.12668   0.14566   0.90700   0.00000  Uiso   1.00
C605   C     0.20242   0.31196   0.76340   0.00000  Uiso   1.00
C606   C     0.14105   0.16073   0.85104   0.00000  Uiso   1.00
C607   C     0.20253   0.02129   0.76327   0.00000  Uiso   1.00
C608   C     0.16687   0.04251   0.74967   0.00000  Uiso   1.00
C609   C     0.13115   0.02139   0.73610   0.00000  Uiso   1.00
C610   C     0.13101   0.31206   0.73630   0.00000  Uiso   1.00
C611   C     0.16663   0.29084   0.74997   0.00000  Uiso   1.00
C612   C     0.31977   0.14062   0.71611   0.00000  Uiso   1.00
C613   C     0.03408   0.14086   0.71626   0.00000  Uiso   1.00
C614   C     0.01405   0.19247   0.78397   0.00000  Uiso   1.00
C615   C     0.29951   0.19249   0.78393   0.00000  Uiso   1.00
C616   C     0.16676   0.08667   0.74983   0.00000  Uiso   1.00
C617   C     0.19285   0.16634   0.64773   0.00000  Uiso   1.00
C618   C     0.26811   0.14843   0.50191   0.00000  Uiso   1.00
C619   C     0.20811   0.16014   0.58909   0.00000  Uiso   1.00
C620   C     0.07819   0.14379   0.93758   0.00000  Uiso   1.00
C621   C     0.06461   0.13399   0.99224   0.00000  Uiso   1.00
C622   C     0.09870   0.13126   0.51813   0.00000  Uiso   1.00
H623   H     0.23008   0.03754   0.77424   0.00000  Uiso   1.00
H624   H     0.10364   0.03772   0.72506   0.00000  Uiso   1.00
H625   H     0.10342   0.29582   0.72540   0.00000  Uiso   1.00
H626   H     0.06031   0.12024   0.68935   0.00000  Uiso   1.00
H627   H     0.02420   0.21314   0.81119   0.00000  Uiso   1.00
H628   H     0.27357   0.21316   0.81111   0.00000  Uiso   1.00
H629   H     0.28153   0.12211   0.90086   0.00000  Uiso   1.00
H630   H     0.30494   0.14838   0.97643   0.00000  Uiso   1.00
H631   H     0.13587   0.15304   0.59160   0.00000  Uiso   1.00
H632   H     0.05100   0.14971   0.91913   0.00000  Uiso   1.00
H633   H     0.08592   0.12558   0.56110   0.00000  Uiso   1.00
H634   H     0.02753   0.13025   0.51544   0.00000  Uiso   1.00
H635   H     0.21999   0.11449   0.85967   0.00000  Uiso   1.00
H636   H     0.22996   0.29564   0.77441   0.00000  Uiso   1.00
N637   N     0.04760   0.16668   0.75001   0.00000  Uiso   1.00
N638   N     0.28573   0.16665   0.75000   0.00000  Uiso   1.00
O639   O     0.12846   0.22775   0.75000   0.00000  Uiso   1.00
O640   O     0.20490   0.22774   0.75000   0.00000  Uiso   1.00
O641   O     0.10947   0.16666   0.82681   0.00000  Uiso   1.00
O642   O     0.18591   0.16665   0.82681   0.00000  Uiso   1.00
O643   O     0.12843   0.10559   0.74999   0.00000  Uiso   1.00
O644   O     0.20488   0.10558   0.74999   0.00000  Uiso   1.00
O645   O     0.14742   0.16668   0.67319   0.00000  Uiso   1.00
O646   O     0.22387   0.16667   0.67319   0.00000  Uiso   1.00
Zn647  Zn    0.11562   0.16667   0.75000   0.00000  Uiso   1.00
Zn648  Zn    0.21771   0.16666   0.75000   0.00000  Uiso   1.00
O649   O     0.29212   0.17242   0.57628   0.00000  Uiso   1.00
C650   C     0.29416   0.21637   0.57980   0.00000  Uiso   1.00
H651   H     0.30448   0.22408   0.61601   0.00000  Uiso   1.00
H652   H     0.25921   0.23233   0.58585   0.00000  Uiso   1.00
C653   C     0.33222   0.23345   0.52971   0.00000  Uiso   1.00
H654   H     0.03389   0.21874   0.52567   0.00000  Uiso   1.00
H655   H     0.32276   0.22579   0.99294   0.00000  Uiso   1.00
C656   C     0.00335   0.28059   0.53367   0.00000  Uiso   1.00
H657   H     0.30231   0.29610   0.53675   0.00000  Uiso   1.00
H658   H     0.03124   0.29199   0.99689   0.00000  Uiso   1.00
H659   H     0.01366   0.28903   0.56965   0.00000  Uiso   1.00
I660   I     0.30489   0.09802   0.66170   0.00000  Uiso   1.00
C661   C     0.49995   0.24666   0.75005   0.00000  Uiso   1.00
C662   C     0.48106   0.13452   0.98822   0.00000  Uiso   1.00
C663   C     0.49464   0.13442   0.93143   0.00000  Uiso   1.00
C664   C     0.51713   0.13977   0.51223   0.00000  Uiso   1.00
C665   C     0.56577   0.13797   0.97988   0.00000  Uiso   1.00
C666   C     0.57793   0.12683   0.92549   0.00000  Uiso   1.00
C667   C     0.54252   0.12423   0.90160   0.00000  Uiso   1.00
C668   C     0.50596   0.15061   0.56650   0.00000  Uiso   1.00
C669   C     0.58956   0.16110   0.55597   0.00000  Uiso   1.00
C670   C     0.46001   0.14566   0.90700   0.00000  Uiso   1.00
C671   C     0.53576   0.31196   0.76340   0.00000  Uiso   1.00
C672   C     0.47438   0.16073   0.85104   0.00000  Uiso   1.00
C673   C     0.53586   0.02129   0.76327   0.00000  Uiso   1.00
C674   C     0.50020   0.04251   0.74967   0.00000  Uiso   1.00
C675   C     0.46448   0.02139   0.73610   0.00000  Uiso   1.00
C676   C     0.46434   0.31206   0.73630   0.00000  Uiso   1.00
C677   C     0.49996   0.29084   0.74997   0.00000  Uiso   1.00
C678   C     0.65310   0.14062   0.71611   0.00000  Uiso   1.00
C679   C     0.36741   0.14086   0.71626   0.00000  Uiso   1.00
C680   C     0.34738   0.19247   0.78397   0.00000  Uiso   1.00
C681   C     0.63284   0.19249   0.78393   0.00000  Uiso   1.00
C682   C     0.50010   0.08667   0.74983   0.00000  Uiso   1.00
C683   C     0.52618   0.16634   0.64773   0.00000  Uiso   1.00
C684   C     0.60144   0.14843   0.50191   0.00000  Uiso   1.00
C685   C     0.54144   0.16014   0.58909   0.00000  Uiso   1.00
C686   C     0.41153   0.14379   0.93758   0.00000  Uiso   1.00
C687   C     0.39794   0.13399   0.99224   0.00000  Uiso   1.00
C688   C     0.43204   0.13126   0.51813   0.00000  Uiso   1.00
H689   H     0.56341   0.03754   0.77424   0.00000  Uiso   1.00
H690   H     0.43697   0.03772   0.72506   0.00000  Uiso   1.00
H691   H     0.43675   0.29582   0.72540   0.00000  Uiso   1.00
H692   H     0.39365   0.12024   0.68935   0.00000  Uiso   1.00
H693   H     0.35753   0.21314   0.81119   0.00000  Uiso   1.00
H694   H     0.60690   0.21316   0.81111   0.00000  Uiso   1.00
H695   H     0.61486   0.12211   0.90086   0.00000  Uiso   1.00
H696   H     0.63827   0.14838   0.97643   0.00000  Uiso   1.00
H697   H     0.46920   0.15304   0.59160   0.00000  Uiso   1.00
H698   H     0.38433   0.14971   0.91913   0.00000  Uiso   1.00
H699   H     0.41926   0.12558   0.56110   0.00000  Uiso   1.00
H700   H     0.36086   0.13025   0.51544   0.00000  Uiso   1.00
H701   H     0.55332   0.11449   0.85967   0.00000  Uiso   1.00
H702   H     0.56329   0.29564   0.77441   0.00000  Uiso   1.00
N703   N     0.38093   0.16668   0.75001   0.00000  Uiso   1.00
N704   N     0.61906   0.16665   0.75000   0.00000  Uiso   1.00
O705   O     0.46179   0.22775   0.75000   0.00000  Uiso   1.00
O706   O     0.53823   0.22774   0.75000   0.00000  Uiso   1.00
O707   O     0.44280   0.16666   0.82681   0.00000  Uiso   1.00
O708   O     0.51924   0.16665   0.82681   0.00000  Uiso   1.00
O709   O     0.46177   0.10559   0.74999   0.00000  Uiso   1.00
O710   O     0.53821   0.10558   0.74999   0.00000  Uiso   1.00
O711   O     0.48076   0.16668   0.67319   0.00000  Uiso   1.00
O712   O     0.55720   0.16667   0.67319   0.00000  Uiso   1.00
Zn713  Zn    0.44896   0.16667   0.75000   0.00000  Uiso   1.00
Zn714  Zn    0.55104   0.16666   0.75000   0.00000  Uiso   1.00
O715   O     0.62545   0.17242   0.57628   0.00000  Uiso   1.00
C716   C     0.62749   0.21637   0.57980   0.00000  Uiso   1.00
H717   H     0.63782   0.22408   0.61601   0.00000  Uiso   1.00
H718   H     0.59255   0.23233   0.58585   0.00000  Uiso   1.00
C719   C     0.66555   0.23345   0.52971   0.00000  Uiso   1.00
H720   H     0.36722   0.21874   0.52567   0.00000  Uiso   1.00
H721   H     0.65609   0.22579   0.99294   0.00000  Uiso   1.00
C722   C     0.33669   0.28059   0.53367   0.00000  Uiso   1.00
H723   H     0.63565   0.29610   0.53675   0.00000  Uiso   1.00
H724   H     0.36457   0.29199   0.99689   0.00000  Uiso   1.00
H725   H     0.34699   0.28903   0.56965   0.00000  Uiso   1.00
I726   I     0.63822   0.09802   0.66170   0.00000  Uiso   1.00
C727   C     0.83328   0.24666   0.75005   0.00000  Uiso   1.00
C728   C     0.81439   0.13452   0.98822   0.00000  Uiso   1.00
C729   C     0.82797   0.13442   0.93143   0.00000  Uiso   1.00
C730   C     0.85046   0.13977   0.51223   0.00000  Uiso   1.00
C731   C     0.89911   0.13797   0.97988   0.00000  Uiso   1.00
C732   C     0.91126   0.12683   0.92549   0.00000  Uiso   1.00
C733   C     0.87585   0.12423   0.90160   0.00000  Uiso   1.00
C734   C     0.83929   0.15061   0.56650   0.00000  Uiso   1.00
C735   C     0.92290   0.16110   0.55597   0.00000  Uiso   1.00
C736   C     0.79334   0.14566   0.90700   0.00000  Uiso   1.00
C737   C     0.86909   0.31196   0.76340   0.00000  Uiso   1.00
C738   C     0.80771   0.16073   0.85104   0.00000  Uiso   1.00
C739   C     0.86920   0.02129   0.76327   0.00000  Uiso   1.00
C740   C     0.83354   0.04251   0.74967   0.00000  Uiso   1.00
C741   C     0.79782   0.02139   0.73610   0.00000  Uiso   1.00
C742   C     0.79767   0.31206   0.73630   0.00000  Uiso   1.00
C743   C     0.83330   0.29084   0.74997   0.00000  Uiso   1.00
C744   C     0.98643   0.14062   0.71611   0.00000  Uiso   1.00
C745   C     0.70075   0.14086   0.71626   0.00000  Uiso   1.00
C746   C     0.68071   0.19247   0.78397   0.00000  Uiso   1.00
C747   C     0.96618   0.19249   0.78393   0.00000  Uiso   1.00
C748   C     0.83343   0.08667   0.74983   0.00000  Uiso   1.00
C749   C     0.85952   0.16634   0.64773   0.00000  Uiso   1.00
C750   C     0.93477   0.14843   0.50191   0.00000  Uiso   1.00
C751   C     0.87477   0.16014   0.58909   0.00000  Uiso   1.00
C752   C     0.74486   0.14379   0.93758   0.00000  Uiso   1.00
C753   C     0.73128   0.13399   0.99224   0.00000  Uiso   1.00
C754   C     0.76537   0.13126   0.51813   0.00000  Uiso   1.00
H755   H     0.89675   0.03754   0.77424   0.00000  Uiso   1.00
H756   H     0.77030   0.03772   0.72506   0.00000  Uiso   1.00
H757   H     0.77009   0.29582   0.72540   0.00000  Uiso   1.00
H758   H     0.72698   0.12024   0.68935   0.00000  Uiso   1.00
H759   H     0.69087   0.21314   0.81119   0.00000  Uiso   1.00
H760   H     0.94024   0.21316   0.81111   0.00000  Uiso   1.00
H761   H     0.94820   0.12211   0.90086   0.00000  Uiso   1.00
H762   H     0.97160   0.14838   0.97643   0.00000  Uiso   1.00
H763   H     0.80253   0.15304   0.59160   0.00000  Uiso   1.00
H764   H     0.71767   0.14971   0.91913   0.00000  Uiso   1.00
H765   H     0.75259   0.12558   0.56110   0.00000  Uiso   1.00
H766   H     0.69420   0.13025   0.51544   0.00000  Uiso   1.00
H767   H     0.88666   0.11449   0.85967   0.00000  Uiso   1.00
H768   H     0.89662   0.29564   0.77441   0.00000  Uiso   1.00
N769   N     0.71426   0.16668   0.75001   0.00000  Uiso   1.00
N770   N     0.95239   0.16665   0.75000   0.00000  Uiso   1.00
O771   O     0.79512   0.22775   0.75000   0.00000  Uiso   1.00
O772   O     0.87157   0.22774   0.75000   0.00000  Uiso   1.00
O773   O     0.77613   0.16666   0.82681   0.00000  Uiso   1.00
O774   O     0.85258   0.16665   0.82681   0.00000  Uiso   1.00
O775   O     0.79510   0.10559   0.74999   0.00000  Uiso   1.00
O776   O     0.87154   0.10558   0.74999   0.00000  Uiso   1.00
O777   O     0.81409   0.16668   0.67319   0.00000  Uiso   1.00
O778   O     0.89053   0.16667   0.67319   0.00000  Uiso   1.00
Zn779  Zn    0.78229   0.16667   0.75000   0.00000  Uiso   1.00
Zn780  Zn    0.88438   0.16666   0.75000   0.00000  Uiso   1.00
O781   O     0.95879   0.17242   0.57628   0.00000  Uiso   1.00
C782   C     0.96083   0.21637   0.57980   0.00000  Uiso   1.00
H783   H     0.97115   0.22408   0.61601   0.00000  Uiso   1.00
H784   H     0.92588   0.23233   0.58585   0.00000  Uiso   1.00
C785   C     0.99889   0.23345   0.52971   0.00000  Uiso   1.00
H786   H     0.70055   0.21874   0.52567   0.00000  Uiso   1.00
H787   H     0.98943   0.22579   0.99294   0.00000  Uiso   1.00
C788   C     0.67002   0.28059   0.53367   0.00000  Uiso   1.00
H789   H     0.96898   0.29610   0.53675   0.00000  Uiso   1.00
H790   H     0.69791   0.29199   0.99689   0.00000  Uiso   1.00
H791   H     0.68033   0.28903   0.56965   0.00000  Uiso   1.00
I792   I     0.97155   0.09802   0.66170   0.00000  Uiso   1.00
C793   C     0.16661   0.58000   0.75005   0.00000  Uiso   1.00
C794   C     0.14772   0.46786   0.98822   0.00000  Uiso   1.00
C795   C     0.16130   0.46775   0.93143   0.00000  Uiso   1.00
C796   C     0.18380   0.47311   0.51223   0.00000  Uiso   1.00
C797   C     0.23244   0.47130   0.97988   0.00000  Uiso   1.00
C798   C     0.24460   0.46016   0.92549   0.00000  Uiso   1.00
C799   C     0.20919   0.45756   0.90160   0.00000  Uiso   1.00
C800   C     0.17262   0.48394   0.56650   0.00000  Uiso   1.00
C801   C     0.25623   0.49443   0.55597   0.00000  Uiso   1.00
C802   C     0.12668   0.47899   0.90700   0.00000  Uiso   1.00
C803   C     0.20242   0.64529   0.76340   0.00000  Uiso   1.00
C804   C     0.14105   0.49407   0.85104   0.00000  Uiso   1.00
C805   C     0.20253   0.35462   0.76327   0.00000  Uiso   1.00
C806   C     0.16687   0.37584   0.74967   0.00000  Uiso   1.00
C807   C     0.13115   0.35473   0.73610   0.00000  Uiso   1.00
C808   C     0.13101   0.64540   0.73630   0.00000  Uiso   1.00
C809   C     0.16663   0.62417   0.74997   0.00000  Uiso   1.00
C810   C     0.31977   0.47396   0.71611   0.00000  Uiso   1.00
C811   C     0.03408   0.47419   0.71626   0.00000  Uiso   1.00
C812   C     0.01405   0.52581   0.78397   0.00000  Uiso   1.00
C813   C     0.29951   0.52582   0.78393   0.00000  Uiso   1.00
C814   C     0.16676   0.42000   0.74983   0.00000  Uiso   1.00
C815   C     0.19285   0.49967   0.64773   0.00000  Uiso   1.00
C816   C     0.26811   0.48177   0.50191   0.00000  Uiso   1.00
C817   C     0.20811   0.49347   0.58909   0.00000  Uiso   1.00
C818   C     0.07819   0.47712   0.93758   0.00000  Uiso   1.00
C819   C     0.06461   0.46732   0.99224   0.00000  Uiso   1.00
C820   C     0.09870   0.46459   0.51813   0.00000  Uiso   1.00
H821   H     0.23008   0.37087   0.77424   0.00000  Uiso   1.00
H822   H     0.10364   0.37106   0.72506   0.00000  Uiso   1.00
H823   H     0.10342   0.62915   0.72540   0.00000  Uiso   1.00
H824   H     0.06031   0.45358   0.68935   0.00000  Uiso   1.00
H825   H     0.02420   0.54647   0.81119   0.00000  Uiso   1.00
H826   H     0.27357   0.54650   0.81111   0.00000  Uiso   1.00
H827   H     0.28153   0.45544   0.90086   0.00000  Uiso   1.00
H828   H     0.30494   0.48171   0.97643   0.00000  Uiso   1.00
H829   H     0.13587   0.48637   0.59160   0.00000  Uiso   1.00
H830   H     0.05100   0.48304   0.91913   0.00000  Uiso   1.00
H831   H     0.08592   0.45891   0.56110   0.00000  Uiso   1.00
H832   H     0.02753   0.46358   0.51544   0.00000  Uiso   1.00
H833   H     0.21999   0.44783   0.85967   0.00000  Uiso   1.00
H834   H     0.22996   0.62897   0.77441   0.00000  Uiso   1.00
N835   N     0.04760   0.50001   0.75001   0.00000  Uiso   1.00
N836   N     0.28573   0.49998   0.75000   0.00000  Uiso   1.00
O837   O     0.12846   0.56108   0.75000   0.00000  Uiso   1.00
O838   O     0.20490   0.56107   0.75000   0.00000  Uiso   1.00
O839   O     0.10947   0.50000   0.82681   0.00000  Uiso   1.00
O840   O     0.18591   0.49999   0.82681   0.00000  Uiso   1.00
O841   O     0.12843   0.43893   0.74999   0.00000  Uiso   1.00
O842   O     0.20488   0.43892   0.74999   0.00000  Uiso   1.00
O843   O     0.14742   0.50001   0.67319   0.00000  Uiso   1.00
O844   O     0.22387   0.50000   0.67319   0.00000  Uiso   1.00
Zn845  Zn    0.11562   0.50001   0.75000   0.00000  Uiso   1.00
Zn846  Zn    0.21771   0.49999   0.75000   0.00000  Uiso   1.00
O847   O     0.29212   0.50575   0.57628   0.00000  Uiso   1.00
C848   C     0.29416   0.54970   0.57980   0.00000  Uiso   1.00
H849   H     0.30448   0.55741   0.61601   0.00000  Uiso   1.00
H850   H     0.25921   0.56566   0.58585   0.00000  Uiso   1.00
C851   C     0.33222   0.56678   0.52971   0.00000  Uiso   1.00
H852   H     0.03389   0.55208   0.52567   0.00000  Uiso   1.00
H853   H     0.32276   0.55913   0.99294   0.00000  Uiso   1.00
C854   C     0.00335   0.61393   0.53367   0.00000  Uiso   1.00
H855   H     0.30231   0.62943   0.53675   0.00000  Uiso   1.00
H856   H     0.03124   0.62532   0.99689   0.00000  Uiso   1.00
H857   H     0.01366   0.62236   0.56965   0.00000  Uiso   1.00
I858   I     0.30489   0.43135   0.66170   0.00000  Uiso   1.00
C859   C     0.49995   0.58000   0.75005   0.00000  Uiso   1.00
C860   C     0.48106   0.46786   0.98822   0.00000  Uiso   1.00
C861   C     0.49464   0.46775   0.93143   0.00000  Uiso   1.00
C862   C     0.51713   0.47311   0.51223   0.00000  Uiso   1.00
C863   C     0.56577   0.47130   0.97988   0.00000  Uiso   1.00
C864   C     0.57793   0.46016   0.92549   0.00000  Uiso   1.00
C865   C     0.54252   0.45756   0.90160   0.00000  Uiso   1.00
C866   C     0.50596   0.48394   0.56650   0.00000  Uiso   1.00
C867   C     0.58956   0.49443   0.55597   0.00000  Uiso   1.00
C868   C     0.46001   0.47899   0.90700   0.00000  Uiso   1.00
C869   C     0.53576   0.64529   0.76340   0.00000  Uiso   1.00
C870   C     0.47438   0.49407   0.85104   0.00000  Uiso   1.00
C871   C     0.53586   0.35462   0.76327   0.00000  Uiso   1.00
C872   C     0.50020   0.37584   0.74967   0.00000  Uiso   1.00
C873   C     0.46448   0.35473   0.73610   0.00000  Uiso   1.00
C874   C     0.46434   0.64540   0.73630   0.00000  Uiso   1.00
C875   C     0.49996   0.62417   0.74997   0.00000  Uiso   1.00
C876   C     0.65310   0.47396   0.71611   0.00000  Uiso   1.00
C877   C     0.36741   0.47419   0.71626   0.00000  Uiso   1.00
C878   C     0.34738   0.52581   0.78397   0.00000  Uiso   1.00
C879   C     0.63284   0.52582   0.78393   0.00000  Uiso   1.00
C880   C     0.50010   0.42000   0.74983   0.00000  Uiso   1.00
C881   C     0.52618   0.49967   0.64773   0.00000  Uiso   1.00
C882   C     0.60144   0.48177   0.50191   0.00000  Uiso   1.00
C883   C     0.54144   0.49347   0.58909   0.00000  Uiso   1.00
C884   C     0.41153   0.47712   0.93758   0.00000  Uiso   1.00
C885   C     0.39794   0.46732   0.99224   0.00000  Uiso   1.00
C886   C     0.43204   0.46459   0.51813   0.00000  Uiso   1.00
H887   H     0.56341   0.37087   0.77424   0.00000  Uiso   1.00
H888   H     0.43697   0.37106   0.72506   0.00000  Uiso   1.00
H889   H     0.43675   0.62915   0.72540   0.00000  Uiso   1.00
H890   H     0.39365   0.45358   0.68935   0.00000  Uiso   1.00
H891   H     0.35753   0.54647   0.81119   0.00000  Uiso   1.00
H892   H     0.60690   0.54650   0.81111   0.00000  Uiso   1.00
H893   H     0.61486   0.45544   0.90086   0.00000  Uiso   1.00
H894   H     0.63827   0.48171   0.97643   0.00000  Uiso   1.00
H895   H     0.46920   0.48637   0.59160   0.00000  Uiso   1.00
H896   H     0.38433   0.48304   0.91913   0.00000  Uiso   1.00
H897   H     0.41926   0.45891   0.56110   0.00000  Uiso   1.00
H898   H     0.36086   0.46358   0.51544   0.00000  Uiso   1.00
H899   H     0.55332   0.44783   0.85967   0.00000  Uiso   1.00
H900   H     0.56329   0.62897   0.77441   0.00000  Uiso   1.00
N901   N     0.38093   0.50001   0.75001   0.00000  Uiso   1.00
N902   N     0.61906   0.49998   0.75000   0.00000  Uiso   1.00
O903   O     0.46179   0.56108   0.75000   0.00000  Uiso   1.00
O904   O     0.53823   0.56107   0.75000   0.00000  Uiso   1.00
O905   O     0.44280   0.50000   0.82681   0.00000  Uiso   1.00
O906   O     0.51924   0.49999   0.82681   0.00000  Uiso   1.00
O907   O     0.46177   0.43893   0.74999   0.00000  Uiso   1.00
O908   O     0.53821   0.43892   0.74999   0.00000  Uiso   1.00
O909   O     0.48076   0.50001   0.67319   0.00000  Uiso   1.00
O910   O     0.55720   0.50000   0.67319   0.00000  Uiso   1.00
Zn911  Zn    0.44896   0.50001   0.75000   0.00000  Uiso   1.00
Zn912  Zn    0.55104   0.49999   0.75000   0.00000  Uiso   1.00
O913   O     0.62545   0.50575   0.57628   0.00000  Uiso   1.00
C914   C     0.62749   0.54970   0.57980   0.00000  Uiso   1.00
H915   H     0.63782   0.55741   0.61601   0.00000  Uiso   1.00
H916   H     0.59255   0.56566   0.58585   0.00000  Uiso   1.00
C917   C     0.66555   0.56678   0.52971   0.00000  Uiso   1.00
H918   H     0.36722   0.55208   0.52567   0.00000  Uiso   1.00
H919   H     0.65609   0.55913   0.99294   0.00000  Uiso   1.00
C920   C     0.33669   0.61393   0.53367   0.00000  Uiso   1.00
H921   H     0.63565   0.62943   0.53675   0.00000  Uiso   1.00
H922   H     0.36457   0.62532   0.99689   0.00000  Uiso   1.00
H923   H     0.34699   0.62236   0.56965   0.00000  Uiso   1.00
I924   I     0.63822   0.43135   0.66170   0.00000  Uiso   1.00
C925   C     0.83328   0.58000   0.75005   0.00000  Uiso   1.00
C926   C     0.81439   0.46786   0.98822   0.00000  Uiso   1.00
C927   C     0.82797   0.46775   0.93143   0.00000  Uiso   1.00
C928   C     0.85046   0.47311   0.51223   0.00000  Uiso   1.00
C929   C     0.89911   0.47130   0.97988   0.00000  Uiso   1.00
C930   C     0.91126   0.46016   0.92549   0.00000  Uiso   1.00
C931   C     0.87585   0.45756   0.90160   0.00000  Uiso   1.00
C932   C     0.83929   0.48394   0.56650   0.00000  Uiso   1.00
C933   C     0.92290   0.49443   0.55597   0.00000  Uiso   1.00
C934   C     0.79334   0.47899   0.90700   0.00000  Uiso   1.00
C935   C     0.86909   0.64529   0.76340   0.00000  Uiso   1.00
C936   C     0.80771   0.49407   0.85104   0.00000  Uiso   1.00
C937   C     0.86920   0.35462   0.76327   0.00000  Uiso   1.00
C938   C     0.83354   0.37584   0.74967   0.00000  Uiso   1.00
C939   C     0.79782   0.35473   0.73610   0.00000  Uiso   1.00
C940   C     0.79767   0.64540   0.73630   0.00000  Uiso   1.00
C941   C     0.83330   0.62417   0.74997   0.00000  Uiso   1.00
C942   C     0.98643   0.47396   0.71611   0.00000  Uiso   1.00
C943   C     0.70075   0.47419   0.71626   0.00000  Uiso   1.00
C944   C     0.68071   0.52581   0.78397   0.00000  Uiso   1.00
C945   C     0.96618   0.52582   0.78393   0.00000  Uiso   1.00
C946   C     0.83343   0.42000   0.74983   0.00000  Uiso   1.00
C947   C     0.85952   0.49967   0.64773   0.00000  Uiso   1.00
C948   C     0.93477   0.48177   0.50191   0.00000  Uiso   1.00
C949   C     0.87477   0.49347   0.58909   0.00000  Uiso   1.00
C950   C     0.74486   0.47712   0.93758   0.00000  Uiso   1.00
C951   C     0.73128   0.46732   0.99224   0.00000  Uiso   1.00
C952   C     0.76537   0.46459   0.51813   0.00000  Uiso   1.00
H953   H     0.89675   0.37087   0.77424   0.00000  Uiso   1.00
H954   H     0.77030   0.37106   0.72506   0.00000  Uiso   1.00
H955   H     0.77009   0.62915   0.72540   0.00000  Uiso   1.00
H956   H     0.72698   0.45358   0.68935   0.00000  Uiso   1.00
H957   H     0.69087   0.54647   0.81119   0.00000  Uiso   1.00
H958   H     0.94024   0.54650   0.81111   0.00000  Uiso   1.00
H959   H     0.94820   0.45544   0.90086   0.00000  Uiso   1.00
H960   H     0.97160   0.48171   0.97643   0.00000  Uiso   1.00
H961   H     0.80253   0.48637   0.59160   0.00000  Uiso   1.00
H962   H     0.71767   0.48304   0.91913   0.00000  Uiso   1.00
H963   H     0.75259   0.45891   0.56110   0.00000  Uiso   1.00
H964   H     0.69420   0.46358   0.51544   0.00000  Uiso   1.00
H965   H     0.88666   0.44783   0.85967   0.00000  Uiso   1.00
H966   H     0.89662   0.62897   0.77441   0.00000  Uiso   1.00
N967   N     0.71426   0.50001   0.75001   0.00000  Uiso   1.00
N968   N     0.95239   0.49998   0.75000   0.00000  Uiso   1.00
O969   O     0.79512   0.56108   0.75000   0.00000  Uiso   1.00
O970   O     0.87157   0.56107   0.75000   0.00000  Uiso   1.00
O971   O     0.77613   0.50000   0.82681   0.00000  Uiso   1.00
O972   O     0.85258   0.49999   0.82681   0.00000  Uiso   1.00
O973   O     0.79510   0.43893   0.74999   0.00000  Uiso   1.00
O974   O     0.87154   0.43892   0.74999   0.00000  Uiso   1.00
O975   O     0.81409   0.50001   0.67319   0.00000  Uiso   1.00
O976   O     0.89053   0.50000   0.67319   0.00000  Uiso   1.00
Zn977  Zn    0.78229   0.50001   0.75000   0.00000  Uiso   1.00
Zn978  Zn    0.88438   0.49999   0.75000   0.00000  Uiso   1.00
O979   O     0.95879   0.50575   0.57628   0.00000  Uiso   1.00
C980   C     0.96083   0.54970   0.57980   0.00000  Uiso   1.00
H981   H     0.97115   0.55741   0.61601   0.00000  Uiso   1.00
H982   H     0.92588   0.56566   0.58585   0.00000  Uiso   1.00
C983   C     0.99889   0.56678   0.52971   0.00000  Uiso   1.00
H984   H     0.70055   0.55208   0.52567   0.00000  Uiso   1.00
H985   H     0.98943   0.55913   0.99294   0.00000  Uiso   1.00
C986   C     0.67002   0.61393   0.53367   0.00000  Uiso   1.00
H987   H     0.96898   0.62943   0.53675   0.00000  Uiso   1.00
H988   H     0.69791   0.62532   0.99689   0.00000  Uiso   1.00
H989   H     0.68033   0.62236   0.56965   0.00000  Uiso   1.00
I990   I     0.97155   0.43135   0.66170   0.00000  Uiso   1.00
C991   C     0.16661   0.91333   0.75005   0.00000  Uiso   1.00
C992   C     0.14772   0.80119   0.98822   0.00000  Uiso   1.00
C993   C     0.16130   0.80109   0.93143   0.00000  Uiso   1.00
C994   C     0.18380   0.80644   0.51223   0.00000  Uiso   1.00
C995   C     0.23244   0.80464   0.97988   0.00000  Uiso   1.00
C996   C     0.24460   0.79349   0.92549   0.00000  Uiso   1.00
C997   C     0.20919   0.79089   0.90160   0.00000  Uiso   1.00
C998   C     0.17262   0.81728   0.56650   0.00000  Uiso   1.00
C999   C     0.25623   0.82776   0.55597   0.00000  Uiso   1.00
C1000  C     0.12668   0.81232   0.90700   0.00000  Uiso   1.00
C1001  C     0.20242   0.97863   0.76340   0.00000  Uiso   1.00
C1002  C     0.14105   0.82740   0.85104   0.00000  Uiso   1.00
C1003  C     0.20253   0.68796   0.76327   0.00000  Uiso   1.00
C1004  C     0.16687   0.70918   0.74967   0.00000  Uiso   1.00
C1005  C     0.13115   0.68806   0.73610   0.00000  Uiso   1.00
C1006  C     0.13101   0.97873   0.73630   0.00000  Uiso   1.00
C1007  C     0.16663   0.95750   0.74997   0.00000  Uiso   1.00
C1008  C     0.31977   0.80729   0.71611   0.00000  Uiso   1.00
C1009  C     0.03408   0.80753   0.71626   0.00000  Uiso   1.00
C1010  C     0.01405   0.85914   0.78397   0.00000  Uiso   1.00
C1011  C     0.29951   0.85916   0.78393   0.00000  Uiso   1.00
C1012  C     0.16676   0.75334   0.74983   0.00000  Uiso   1.00
C1013  C     0.19285   0.83301   0.64773   0.00000  Uiso   1.00
C1014  C     0.26811   0.81510   0.50191   0.00000  Uiso   1.00
C1015  C     0.20811   0.82680   0.58909   0.00000  Uiso   1.00
C1016  C     0.07819   0.81045   0.93758   0.00000  Uiso   1.00
C1017  C     0.06461   0.80066   0.99224   0.00000  Uiso   1.00
C1018  C     0.09870   0.79792   0.51813   0.00000  Uiso   1.00
H1019  H     0.23008   0.70420   0.77424   0.00000  Uiso   1.00
H1020  H     0.10364   0.70439   0.72506   0.00000  Uiso   1.00
H1021  H     0.10342   0.96248   0.72540   0.00000  Uiso   1.00
H1022  H     0.06031   0.78691   0.68935   0.00000  Uiso   1.00
H1023  H     0.02420   0.87980   0.81119   0.00000  Uiso   1.00
H1024  H     0.27357   0.87983   0.81111   0.00000  Uiso   1.00
H1025  H     0.28153   0.78877   0.90086   0.00000  Uiso   1.00
H1026  H     0.30494   0.81505   0.97643   0.00000  Uiso   1.00
H1027  H     0.13587   0.81971   0.59160   0.00000  Uiso   1.00
H1028  H     0.05100   0.81638   0.91913   0.00000  Uiso   1.00
H1029  H     0.08592   0.79224   0.56110   0.00000  Uiso   1.00
H1030  H     0.02753   0.79692   0.51544   0.00000  Uiso   1.00
H1031  H     0.21999   0.78116   0.85967   0.00000  Uiso   1.00
H1032  H     0.22996   0.96231   0.77441   0.00000  Uiso   1.00
N1033  N     0.04760   0.83334   0.75001   0.00000  Uiso   1.00
N1034  N     0.28573   0.83331   0.75000   0.00000  Uiso   1.00
O1035  O     0.12846   0.89442   0.75000   0.00000  Uiso   1.00
O1036  O     0.20490   0.89441   0.75000   0.00000  Uiso   1.00
O1037  O     0.10947   0.83333   0.82681   0.00000  Uiso   1.00
O1038  O     0.18591   0.83332   0.82681   0.00000  Uiso   1.00
O1039  O     0.12843   0.77226   0.74999   0.00000  Uiso   1.00
O1040  O     0.20488   0.77225   0.74999   0.00000  Uiso   1.00
O1041  O     0.14742   0.83335   0.67319   0.00000  Uiso   1.00
O1042  O     0.22387   0.83334   0.67319   0.00000  Uiso   1.00
Zn1043 Zn    0.11562   0.83334   0.75000   0.00000  Uiso   1.00
Zn1044 Zn    0.21771   0.83333   0.75000   0.00000  Uiso   1.00
O1045  O     0.29212   0.83909   0.57628   0.00000  Uiso   1.00
C1046  C     0.29416   0.88303   0.57980   0.00000  Uiso   1.00
H1047  H     0.30448   0.89074   0.61601   0.00000  Uiso   1.00
H1048  H     0.25921   0.89900   0.58585   0.00000  Uiso   1.00
C1049  C     0.33222   0.90012   0.52971   0.00000  Uiso   1.00
H1050  H     0.03389   0.88541   0.52567   0.00000  Uiso   1.00
H1051  H     0.32276   0.89246   0.99294   0.00000  Uiso   1.00
C1052  C     0.00335   0.94726   0.53367   0.00000  Uiso   1.00
H1053  H     0.30231   0.96276   0.53675   0.00000  Uiso   1.00
H1054  H     0.03124   0.95865   0.99689   0.00000  Uiso   1.00
H1055  H     0.01366   0.95570   0.56965   0.00000  Uiso   1.00
I1056  I     0.30489   0.76468   0.66170   0.00000  Uiso   1.00
C1057  C     0.49995   0.91333   0.75005   0.00000  Uiso   1.00
C1058  C     0.48106   0.80119   0.98822   0.00000  Uiso   1.00
C1059  C     0.49464   0.80109   0.93143   0.00000  Uiso   1.00
C1060  C     0.51713   0.80644   0.51223   0.00000  Uiso   1.00
C1061  C     0.56577   0.80464   0.97988   0.00000  Uiso   1.00
C1062  C     0.57793   0.79349   0.92549   0.00000  Uiso   1.00
C1063  C     0.54252   0.79089   0.90160   0.00000  Uiso   1.00
C1064  C     0.50596   0.81728   0.56650   0.00000  Uiso   1.00
C1065  C     0.58956   0.82776   0.55597   0.00000  Uiso   1.00
C1066  C     0.46001   0.81232   0.90700   0.00000  Uiso   1.00
C1067  C     0.53576   0.97863   0.76340   0.00000  Uiso   1.00
C1068  C     0.47438   0.82740   0.85104   0.00000  Uiso   1.00
C1069  C     0.53586   0.68796   0.76327   0.00000  Uiso   1.00
C1070  C     0.50020   0.70918   0.74967   0.00000  Uiso   1.00
C1071  C     0.46448   0.68806   0.73610   0.00000  Uiso   1.00
C1072  C     0.46434   0.97873   0.73630   0.00000  Uiso   1.00
C1073  C     0.49996   0.95750   0.74997   0.00000  Uiso   1.00
C1074  C     0.65310   0.80729   0.71611   0.00000  Uiso   1.00
C1075  C     0.36741   0.80753   0.71626   0.00000  Uiso   1.00
C1076  C     0.34738   0.85914   0.78397   0.00000  Uiso   1.00
C1077  C     0.63284   0.85916   0.78393   0.00000  Uiso   1.00
C1078  C     0.50010   0.75334   0.74983   0.00000  Uiso   1.00
C1079  C     0.52618   0.83301   0.64773   0.00000  Uiso   1.00
C1080  C     0.60144   0.81510   0.50191   0.00000  Uiso   1.00
C1081  C     0.54144   0.82680   0.58909   0.00000  Uiso   1.00
C1082  C     0.41153   0.81045   0.93758   0.00000  Uiso   1.00
C1083  C     0.39794   0.80066   0.99224   0.00000  Uiso   1.00
C1084  C     0.43204   0.79792   0.51813   0.00000  Uiso   1.00
H1085  H     0.56341   0.70420   0.77424   0.00000  Uiso   1.00
H1086  H     0.43697   0.70439   0.72506   0.00000  Uiso   1.00
H1087  H     0.43675   0.96248   0.72540   0.00000  Uiso   1.00
H1088  H     0.39365   0.78691   0.68935   0.00000  Uiso   1.00
H1089  H     0.35753   0.87980   0.81119   0.00000  Uiso   1.00
H1090  H     0.60690   0.87983   0.81111   0.00000  Uiso   1.00
H1091  H     0.61486   0.78877   0.90086   0.00000  Uiso   1.00
H1092  H     0.63827   0.81505   0.97643   0.00000  Uiso   1.00
H1093  H     0.46920   0.81971   0.59160   0.00000  Uiso   1.00
H1094  H     0.38433   0.81638   0.91913   0.00000  Uiso   1.00
H1095  H     0.41926   0.79224   0.56110   0.00000  Uiso   1.00
H1096  H     0.36086   0.79692   0.51544   0.00000  Uiso   1.00
H1097  H     0.55332   0.78116   0.85967   0.00000  Uiso   1.00
H1098  H     0.56329   0.96231   0.77441   0.00000  Uiso   1.00
N1099  N     0.38093   0.83334   0.75001   0.00000  Uiso   1.00
N1100  N     0.61906   0.83331   0.75000   0.00000  Uiso   1.00
O1101  O     0.46179   0.89442   0.75000   0.00000  Uiso   1.00
O1102  O     0.53823   0.89441   0.75000   0.00000  Uiso   1.00
O1103  O     0.44280   0.83333   0.82681   0.00000  Uiso   1.00
O1104  O     0.51924   0.83332   0.82681   0.00000  Uiso   1.00
O1105  O     0.46177   0.77226   0.74999   0.00000  Uiso   1.00
O1106  O     0.53821   0.77225   0.74999   0.00000  Uiso   1.00
O1107  O     0.48076   0.83335   0.67319   0.00000  Uiso   1.00
O1108  O     0.55720   0.83334   0.67319   0.00000  Uiso   1.00
Zn1109 Zn    0.44896   0.83334   0.75000   0.00000  Uiso   1.00
Zn1110 Zn    0.55104   0.83333   0.75000   0.00000  Uiso   1.00
O1111  O     0.62545   0.83909   0.57628   0.00000  Uiso   1.00
C1112  C     0.62749   0.88303   0.57980   0.00000  Uiso   1.00
H1113  H     0.63782   0.89074   0.61601   0.00000  Uiso   1.00
H1114  H     0.59255   0.89900   0.58585   0.00000  Uiso   1.00
C1115  C     0.66555   0.90012   0.52971   0.00000  Uiso   1.00
H1116  H     0.36722   0.88541   0.52567   0.00000  Uiso   1.00
H1117  H     0.65609   0.89246   0.99294   0.00000  Uiso   1.00
C1118  C     0.33669   0.94726   0.53367   0.00000  Uiso   1.00
H1119  H     0.63565   0.96276   0.53675   0.00000  Uiso   1.00
H1120  H     0.36457   0.95865   0.99689   0.00000  Uiso   1.00
H1121  H     0.34699   0.95570   0.56965   0.00000  Uiso   1.00
I1122  I     0.63822   0.76468   0.66170   0.00000  Uiso   1.00
C1123  C     0.83328   0.91333   0.75005   0.00000  Uiso   1.00
C1124  C     0.81439   0.80119   0.98822   0.00000  Uiso   1.00
C1125  C     0.82797   0.80109   0.93143   0.00000  Uiso   1.00
C1126  C     0.85046   0.80644   0.51223   0.00000  Uiso   1.00
C1127  C     0.89911   0.80464   0.97988   0.00000  Uiso   1.00
C1128  C     0.91126   0.79349   0.92549   0.00000  Uiso   1.00
C1129  C     0.87585   0.79089   0.90160   0.00000  Uiso   1.00
C1130  C     0.83929   0.81728   0.56650   0.00000  Uiso   1.00
C1131  C     0.92290   0.82776   0.55597   0.00000  Uiso   1.00
C1132  C     0.79334   0.81232   0.90700   0.00000  Uiso   1.00
C1133  C     0.86909   0.97863   0.76340   0.00000  Uiso   1.00
C1134  C     0.80771   0.82740   0.85104   0.00000  Uiso   1.00
C1135  C     0.86920   0.68796   0.76327   0.00000  Uiso   1.00
C1136  C     0.83354   0.70918   0.74967   0.00000  Uiso   1.00
C1137  C     0.79782   0.68806   0.73610   0.00000  Uiso   1.00
C1138  C     0.79767   0.97873   0.73630   0.00000  Uiso   1.00
C1139  C     0.83330   0.95750   0.74997   0.00000  Uiso   1.00
C1140  C     0.98643   0.80729   0.71611   0.00000  Uiso   1.00
C1141  C     0.70075   0.80753   0.71626   0.00000  Uiso   1.00
C1142  C     0.68071   0.85914   0.78397   0.00000  Uiso   1.00
C1143  C     0.96618   0.85916   0.78393   0.00000  Uiso   1.00
C1144  C     0.83343   0.75334   0.74983   0.00000  Uiso   1.00
C1145  C     0.85952   0.83301   0.64773   0.00000  Uiso   1.00
C1146  C     0.93477   0.81510   0.50191   0.00000  Uiso   1.00
C1147  C     0.87477   0.82680   0.58909   0.00000  Uiso   1.00
C1148  C     0.74486   0.81045   0.93758   0.00000  Uiso   1.00
C1149  C     0.73128   0.80066   0.99224   0.00000  Uiso   1.00
C1150  C     0.76537   0.79792   0.51813   0.00000  Uiso   1.00
H1151  H     0.89675   0.70420   0.77424   0.00000  Uiso   1.00
H1152  H     0.77030   0.70439   0.72506   0.00000  Uiso   1.00
H1153  H     0.77009   0.96248   0.72540   0.00000  Uiso   1.00
H1154  H     0.72698   0.78691   0.68935   0.00000  Uiso   1.00
H1155  H     0.69087   0.87980   0.81119   0.00000  Uiso   1.00
H1156  H     0.94024   0.87983   0.81111   0.00000  Uiso   1.00
H1157  H     0.94820   0.78877   0.90086   0.00000  Uiso   1.00
H1158  H     0.97160   0.81505   0.97643   0.00000  Uiso   1.00
H1159  H     0.80253   0.81971   0.59160   0.00000  Uiso   1.00
H1160  H     0.71767   0.81638   0.91913   0.00000  Uiso   1.00
H1161  H     0.75259   0.79224   0.56110   0.00000  Uiso   1.00
H1162  H     0.69420   0.79692   0.51544   0.00000  Uiso   1.00
H1163  H     0.88666   0.78116   0.85967   0.00000  Uiso   1.00
H1164  H     0.89662   0.96231   0.77441   0.00000  Uiso   1.00
N1165  N     0.71426   0.83334   0.75001   0.00000  Uiso   1.00
N1166  N     0.95239   0.83331   0.75000   0.00000  Uiso   1.00
O1167  O     0.79512   0.89442   0.75000   0.00000  Uiso   1.00
O1168  O     0.87157   0.89441   0.75000   0.00000  Uiso   1.00
O1169  O     0.77613   0.83333   0.82681   0.00000  Uiso   1.00
O1170  O     0.85258   0.83332   0.82681   0.00000  Uiso   1.00
O1171  O     0.79510   0.77226   0.74999   0.00000  Uiso   1.00
O1172  O     0.87154   0.77225   0.74999   0.00000  Uiso   1.00
O1173  O     0.81409   0.83335   0.67319   0.00000  Uiso   1.00
O1174  O     0.89053   0.83334   0.67319   0.00000  Uiso   1.00
Zn1175 Zn    0.78229   0.83334   0.75000   0.00000  Uiso   1.00
Zn1176 Zn    0.88438   0.83333   0.75000   0.00000  Uiso   1.00
O1177  O     0.95879   0.83909   0.57628   0.00000  Uiso   1.00
C1178  C     0.96083   0.88303   0.57980   0.00000  Uiso   1.00
H1179  H     0.97115   0.89074   0.61601   0.00000  Uiso   1.00
H1180  H     0.92588   0.89900   0.58585   0.00000  Uiso   1.00
C1181  C     0.99889   0.90012   0.52971   0.00000  Uiso   1.00
H1182  H     0.70055   0.88541   0.52567   0.00000  Uiso   1.00
H1183  H     0.98943   0.89246   0.99294   0.00000  Uiso   1.00
C1184  C     0.67002   0.94726   0.53367   0.00000  Uiso   1.00
H1185  H     0.96898   0.96276   0.53675   0.00000  Uiso   1.00
H1186  H     0.69791   0.95865   0.99689   0.00000  Uiso   1.00
H1187  H     0.68033   0.95570   0.56965   0.00000  Uiso   1.00
I1188  I     0.97155   0.76468   0.66170   0.00000  Uiso   1.00
loop_
_geom_bond_atom_site_label_1
_geom_bond_atom_site_label_2
_geom_bond_distance
_geom_bond_site_symmetry_2
_ccdc_geom_bond_type
C1     C17     1.418   .     S
C1     O45     1.286   .     A
C1     O46     1.285   .     A
C2     C3      1.406   .     A
C2     C598    1.414   .     S
C2     C622    1.414   .     S
C3     C10     1.420   .     A
C3     C7      1.415   .     A
C4     C8      1.389   .     A
C4     C596    1.414   1_554 S
C4     C599    1.416   1_554 S
C5     C6      1.392   .     A
C5     C598    1.416   .     S
C5     C618    1.399   .     S
C6     C7      1.387   .     A
C6     H35     1.084   .     S
C7     H41     1.080   .     S
C8     C25     1.397   .     A
C8     H37     1.076   .     S
C9     C24     1.397   .     A
C9     O55     1.383   .     S
C9     C25     1.409   .     A
C10    C12     1.471   .     S
C10    C26     1.401   .     A
C11    H42     1.084   .     S
C11    C17     1.398   .     A
C11    C211    1.370   .     S
C12    O48     1.290   .     A
C12    O47     1.303   .     A
C13    C14     1.396   .     A
C13    H29     1.084   .     S
C13    C407    1.370   1_545 S
C14    C22     1.418   .     S
C14    C15     1.397   .     A
C15    H30     1.084   .     S
C15    C412    1.370   1_545 S
C16    H31     1.084   .     S
C16    C17     1.396   .     A
C16    C213    1.370   .     S
C18    N44     1.379   .     A
C18    I66     2.114   .     S
C18    C85     1.414   .     S
C19    H32     1.082   .     S
C19    N43     1.359   .     A
C19    C150    1.414   1_455 S
C20    N43     1.368   .     A
C20    H33     1.082   .     S
C20    C153    1.419   1_455 S
C21    N44     1.367   .     A
C21    H34     1.082   .     S
C21    C86     1.419   .     S
C22    O50     1.286   .     A
C22    O49     1.285   .     A
C23    C25     1.462   .     S
C23    O52     1.298   .     A
C23    O51     1.294   .     A
C24    C599    1.399   1_554 S
C24    H630    1.078   1_554 S
C26    C27     1.391   .     A
C26    H38     1.082   .     S
C27    C622    1.390   .     S
C27    H634    1.077   .     S
C28    H39     1.079   .     S
C28    C621    1.390   1_554 S
C28    C596    1.414   1_554 S
H36    C618    1.078   .     S
H40    C621    1.077   1_554 S
N43    Zn53    2.016   .     S
N44    Zn54    2.016   .     S
O45    Zn53    1.999   .     S
O46    Zn54    1.996   .     S
O47    Zn53    1.956   .     S
O48    Zn54    1.921   .     S
O49    Zn53    1.996   .     S
O50    Zn54    1.999   .     S
O51    Zn53    1.921   .     S
O52    Zn54    1.956   .     S
O55    C56     1.416   .     S
C56    C59     1.531   .     S
C56    H57     1.111   .     S
C56    H58     1.117   .     S
C59    H126    1.111   .     S
C59    H655    1.111   1_554 S
C59    C128    1.526   .     S
H60    C191    1.111   1_455 S
H61    C653    1.111   .     S
C62    H65     1.111   .     S
C62    C191    1.526   1_455 S
C62    H195    1.111   1_455 S
C62    H658    1.110   1_554 S
H63    C128    1.111   .     S
H64    C656    1.110   .     S
C67    C83     1.418   .     S
C67    O111    1.286   .     A
C67    O112    1.285   .     A
C68    C69     1.406   .     A
C68    C664    1.414   .     S
C68    C688    1.414   .     S
C69    C76     1.420   .     A
C69    C73     1.415   .     A
C70    C74     1.389   .     A
C70    C662    1.414   1_554 S
C70    C665    1.416   1_554 S
C71    C72     1.392   .     A
C71    C664    1.416   .     S
C71    C684    1.399   .     S
C72    C73     1.387   .     A
C72    H101    1.084   .     S
C73    H107    1.080   .     S
C74    C91     1.397   .     A
C74    H103    1.076   .     S
C75    C90     1.397   .     A
C75    O121    1.383   .     S
C75    C91     1.409   .     A
C76    C78     1.471   .     S
C76    C92     1.401   .     A
C77    H108    1.084   .     S
C77    C83     1.398   .     A
C77    C277    1.370   .     S
C78    O114    1.290   .     A
C78    O113    1.303   .     A
C79    C80     1.396   .     A
C79    H95     1.084   .     S
C79    C473    1.370   1_545 S
C80    C88     1.418   .     S
C80    C81     1.397   .     A
C81    H96     1.084   .     S
C81    C478    1.370   1_545 S
C82    H97     1.084   .     S
C82    C83     1.396   .     A
C82    C279    1.370   .     S
C84    N110    1.379   .     A
C84    I132    2.114   .     S
C84    C151    1.414   .     S
C85    H98     1.082   .     S
C85    N109    1.359   .     A
C86    N109    1.368   .     A
C86    H99     1.082   .     S
C87    N110    1.367   .     A
C87    H100    1.082   .     S
C87    C152    1.419   .     S
C88    O116    1.286   .     A
C88    O115    1.285   .     A
C89    C91     1.462   .     S
C89    O118    1.298   .     A
C89    O117    1.294   .     A
C90    C665    1.399   1_554 S
C90    H696    1.078   1_554 S
C92    C93     1.391   .     A
C92    H104    1.082   .     S
C93    C688    1.390   .     S
C93    H700    1.077   .     S
C94    H105    1.079   .     S
C94    C687    1.390   1_554 S
C94    C662    1.414   1_554 S
H102   C684    1.078   .     S
H106   C687    1.077   1_554 S
N109   Zn119   2.016   .     S
N110   Zn120   2.016   .     S
O111   Zn119   1.999   .     S
O112   Zn120   1.996   .     S
O113   Zn119   1.956   .     S
O114   Zn120   1.921   .     S
O115   Zn119   1.996   .     S
O116   Zn120   1.999   .     S
O117   Zn119   1.921   .     S
O118   Zn120   1.956   .     S
O121   C122    1.416   .     S
C122   C125    1.531   .     S
C122   H123    1.111   .     S
C122   H124    1.117   .     S
C125   H192    1.111   .     S
C125   H721    1.111   1_554 S
C125   C194    1.526   .     S
H127   C719    1.111   .     S
C128   H131    1.111   .     S
C128   H724    1.110   1_554 S
H129   C194    1.111   .     S
H130   C722    1.110   .     S
C133   C149    1.418   .     S
C133   O177    1.286   .     A
C133   O178    1.285   .     A
C134   C135    1.406   .     A
C134   C730    1.414   .     S
C134   C754    1.414   .     S
C135   C142    1.420   .     A
C135   C139    1.415   .     A
C136   C140    1.389   .     A
C136   C728    1.414   1_554 S
C136   C731    1.416   1_554 S
C137   C138    1.392   .     A
C137   C730    1.416   .     S
C137   C750    1.399   .     S
C138   C139    1.387   .     A
C138   H167    1.084   .     S
C139   H173    1.080   .     S
C140   C157    1.397   .     A
C140   H169    1.076   .     S
C141   C156    1.397   .     A
C141   O187    1.383   .     S
C141   C157    1.409   .     A
C142   C144    1.471   .     S
C142   C158    1.401   .     A
C143   H174    1.084   .     S
C143   C149    1.398   .     A
C143   C343    1.370   .     S
C144   O180    1.290   .     A
C144   O179    1.303   .     A
C145   C146    1.396   .     A
C145   H161    1.084   .     S
C145   C539    1.370   1_545 S
C146   C154    1.418   .     S
C146   C147    1.397   .     A
C147   H162    1.084   .     S
C147   C544    1.370   1_545 S
C148   H163    1.084   .     S
C148   C149    1.396   .     A
C148   C345    1.370   .     S
C150   N176    1.379   .     A
C150   I198    2.114   .     S
C150   C19     1.414   1_655 S
C151   H164    1.082   .     S
C151   N175    1.359   .     A
C152   N175    1.368   .     A
C152   H165    1.082   .     S
C153   N176    1.367   .     A
C153   H166    1.082   .     S
C153   C20     1.419   1_655 S
C154   O182    1.286   .     A
C154   O181    1.285   .     A
C155   C157    1.462   .     S
C155   O184    1.298   .     A
C155   O183    1.294   .     A
C156   C731    1.399   1_554 S
C156   H762    1.078   1_554 S
C158   C159    1.391   .     A
C158   H170    1.082   .     S
C159   C754    1.390   .     S
C159   H766    1.077   .     S
C160   H171    1.079   .     S
C160   C753    1.390   1_554 S
C160   C728    1.414   1_554 S
H168   C750    1.078   .     S
H172   C753    1.077   1_554 S
N175   Zn185   2.016   .     S
N176   Zn186   2.016   .     S
O177   Zn185   1.999   .     S
O178   Zn186   1.996   .     S
O179   Zn185   1.956   .     S
O180   Zn186   1.921   .     S
O181   Zn185   1.996   .     S
O182   Zn186   1.999   .     S
O183   Zn185   1.921   .     S
O184   Zn186   1.956   .     S
O187   C188    1.416   .     S
C188   C191    1.531   .     S
C188   H189    1.111   .     S
C188   H190    1.117   .     S
C191   H60     1.111   1_655 S
C191   H787    1.111   1_554 S
C191   C62     1.526   1_655 S
H193   C785    1.111   .     S
C194   H197    1.111   .     S
C194   H790    1.110   1_554 S
H195   C62     1.111   1_655 S
H196   C788    1.110   .     S
C199   C215    1.418   .     S
C199   O243    1.286   .     A
C199   O244    1.285   .     A
C200   C201    1.406   .     A
C200   C796    1.414   .     S
C200   C820    1.414   .     S
C201   C208    1.420   .     A
C201   C205    1.415   .     A
C202   C206    1.389   .     A
C202   C794    1.414   1_554 S
C202   C797    1.416   1_554 S
C203   C204    1.392   .     A
C203   C796    1.416   .     S
C203   C816    1.399   .     S
C204   C205    1.387   .     A
C204   H233    1.084   .     S
C205   H239    1.080   .     S
C206   C223    1.397   .     A
C206   H235    1.076   .     S
C207   C222    1.397   .     A
C207   O253    1.383   .     S
C207   C223    1.409   .     A
C208   C210    1.471   .     S
C208   C224    1.401   .     A
C209   H240    1.084   .     S
C209   C215    1.398   .     A
C209   C409    1.370   .     S
C210   O246    1.290   .     A
C210   O245    1.303   .     A
C211   C212    1.396   .     A
C211   H227    1.084   .     S
C212   C220    1.418   .     S
C212   C213    1.397   .     A
C213   H228    1.084   .     S
C214   H229    1.084   .     S
C214   C215    1.396   .     A
C214   C411    1.370   .     S
C216   N242    1.379   .     A
C216   I264    2.114   .     S
C216   C283    1.414   .     S
C217   H230    1.082   .     S
C217   N241    1.359   .     A
C217   C348    1.414   1_455 S
C218   N241    1.368   .     A
C218   H231    1.082   .     S
C218   C351    1.419   1_455 S
C219   N242    1.367   .     A
C219   H232    1.082   .     S
C219   C284    1.419   .     S
C220   O248    1.286   .     A
C220   O247    1.285   .     A
C221   C223    1.462   .     S
C221   O250    1.298   .     A
C221   O249    1.294   .     A
C222   C797    1.399   1_554 S
C222   H828    1.078   1_554 S
C224   C225    1.391   .     A
C224   H236    1.082   .     S
C225   C820    1.390   .     S
C225   H832    1.077   .     S
C226   H237    1.079   .     S
C226   C819    1.390   1_554 S
C226   C794    1.414   1_554 S
H234   C816    1.078   .     S
H238   C819    1.077   1_554 S
N241   Zn251   2.016   .     S
N242   Zn252   2.016   .     S
O243   Zn251   1.999   .     S
O244   Zn252   1.996   .     S
O245   Zn251   1.956   .     S
O246   Zn252   1.921   .     S
O247   Zn251   1.996   .     S
O248   Zn252   1.999   .     S
O249   Zn251   1.921   .     S
O250   Zn252   1.956   .     S
O253   C254    1.416   .     S
C254   C257    1.531   .     S
C254   H255    1.111   .     S
C254   H256    1.117   .     S
C257   H324    1.111   .     S
C257   H853    1.111   1_554 S
C257   C326    1.526   .     S
H258   C389    1.111   1_455 S
H259   C851    1.111   .     S
C260   H263    1.111   .     S
C260   C389    1.526   1_455 S
C260   H393    1.111   1_455 S
C260   H856    1.110   1_554 S
H261   C326    1.111   .     S
H262   C854    1.110   .     S
C265   C281    1.418   .     S
C265   O309    1.286   .     A
C265   O310    1.285   .     A
C266   C267    1.406   .     A
C266   C862    1.414   .     S
C266   C886    1.414   .     S
C267   C274    1.420   .     A
C267   C271    1.415   .     A
C268   C272    1.389   .     A
C268   C860    1.414   1_554 S
C268   C863    1.416   1_554 S
C269   C270    1.392   .     A
C269   C862    1.416   .     S
C269   C882    1.399   .     S
C270   C271    1.387   .     A
C270   H299    1.084   .     S
C271   H305    1.080   .     S
C272   C289    1.397   .     A
C272   H301    1.076   .     S
C273   C288    1.397   .     A
C273   O319    1.383   .     S
C273   C289    1.409   .     A
C274   C276    1.471   .     S
C274   C290    1.401   .     A
C275   H306    1.084   .     S
C275   C281    1.398   .     A
C275   C475    1.370   .     S
C276   O312    1.290   .     A
C276   O311    1.303   .     A
C277   C278    1.396   .     A
C277   H293    1.084   .     S
C278   C286    1.418   .     S
C278   C279    1.397   .     A
C279   H294    1.084   .     S
C280   H295    1.084   .     S
C280   C281    1.396   .     A
C280   C477    1.370   .     S
C282   N308    1.379   .     A
C282   I330    2.114   .     S
C282   C349    1.414   .     S
C283   H296    1.082   .     S
C283   N307    1.359   .     A
C284   N307    1.368   .     A
C284   H297    1.082   .     S
C285   N308    1.367   .     A
C285   H298    1.082   .     S
C285   C350    1.419   .     S
C286   O314    1.286   .     A
C286   O313    1.285   .     A
C287   C289    1.462   .     S
C287   O316    1.298   .     A
C287   O315    1.294   .     A
C288   C863    1.399   1_554 S
C288   H894    1.078   1_554 S
C290   C291    1.391   .     A
C290   H302    1.082   .     S
C291   C886    1.390   .     S
C291   H898    1.077   .     S
C292   H303    1.079   .     S
C292   C885    1.390   1_554 S
C292   C860    1.414   1_554 S
H300   C882    1.078   .     S
H304   C885    1.077   1_554 S
N307   Zn317   2.016   .     S
N308   Zn318   2.016   .     S
O309   Zn317   1.999   .     S
O310   Zn318   1.996   .     S
O311   Zn317   1.956   .     S
O312   Zn318   1.921   .     S
O313   Zn317   1.996   .     S
O314   Zn318   1.999   .     S
O315   Zn317   1.921   .     S
O316   Zn318   1.956   .     S
O319   C320    1.416   .     S
C320   C323    1.531   .     S
C320   H321    1.111   .     S
C320   H322    1.117   .     S
C323   H390    1.111   .     S
C323   H919    1.111   1_554 S
C323   C392    1.526   .     S
H325   C917    1.111   .     S
C326   H329    1.111   .     S
C326   H922    1.110   1_554 S
H327   C392    1.111   .     S
H328   C920    1.110   .     S
C331   C347    1.418   .     S
C331   O375    1.286   .     A
C331   O376    1.285   .     A
C332   C333    1.406   .     A
C332   C928    1.414   .     S
C332   C952    1.414   .     S
C333   C340    1.420   .     A
C333   C337    1.415   .     A
C334   C338    1.389   .     A
C334   C926    1.414   1_554 S
C334   C929    1.416   1_554 S
C335   C336    1.392   .     A
C335   C928    1.416   .     S
C335   C948    1.399   .     S
C336   C337    1.387   .     A
C336   H365    1.084   .     S
C337   H371    1.080   .     S
C338   C355    1.397   .     A
C338   H367    1.076   .     S
C339   C354    1.397   .     A
C339   O385    1.383   .     S
C339   C355    1.409   .     A
C340   C342    1.471   .     S
C340   C356    1.401   .     A
C341   H372    1.084   .     S
C341   C347    1.398   .     A
C341   C541    1.370   .     S
C342   O378    1.290   .     A
C342   O377    1.303   .     A
C343   C344    1.396   .     A
C343   H359    1.084   .     S
C344   C352    1.418   .     S
C344   C345    1.397   .     A
C345   H360    1.084   .     S
C346   H361    1.084   .     S
C346   C347    1.396   .     A
C346   C543    1.370   .     S
C348   N374    1.379   .     A
C348   I396    2.114   .     S
C348   C217    1.414   1_655 S
C349   H362    1.082   .     S
C349   N373    1.359   .     A
C350   N373    1.368   .     A
C350   H363    1.082   .     S
C351   N374    1.367   .     A
C351   H364    1.082   .     S
C351   C218    1.419   1_655 S
C352   O380    1.286   .     A
C352   O379    1.285   .     A
C353   C355    1.462   .     S
C353   O382    1.298   .     A
C353   O381    1.294   .     A
C354   C929    1.399   1_554 S
C354   H960    1.078   1_554 S
C356   C357    1.391   .     A
C356   H368    1.082   .     S
C357   C952    1.390   .     S
C357   H964    1.077   .     S
C358   H369    1.079   .     S
C358   C951    1.390   1_554 S
C358   C926    1.414   1_554 S
H366   C948    1.078   .     S
H370   C951    1.077   1_554 S
N373   Zn383   2.016   .     S
N374   Zn384   2.016   .     S
O375   Zn383   1.999   .     S
O376   Zn384   1.996   .     S
O377   Zn383   1.956   .     S
O378   Zn384   1.921   .     S
O379   Zn383   1.996   .     S
O380   Zn384   1.999   .     S
O381   Zn383   1.921   .     S
O382   Zn384   1.956   .     S
O385   C386    1.416   .     S
C386   C389    1.531   .     S
C386   H387    1.111   .     S
C386   H388    1.117   .     S
C389   H258    1.111   1_655 S
C389   H985    1.111   1_554 S
C389   C260    1.526   1_655 S
H391   C983    1.111   .     S
C392   H395    1.111   .     S
C392   H988    1.110   1_554 S
H393   C260    1.111   1_655 S
H394   C986    1.110   .     S
C397   C413    1.418   .     S
C397   O441    1.286   .     A
C397   O442    1.285   .     A
C398   C399    1.406   .     A
C398   C994    1.414   .     S
C398   C1018   1.414   .     S
C399   C406    1.420   .     A
C399   C403    1.415   .     A
C400   C404    1.389   .     A
C400   C992    1.414   1_554 S
C400   C995    1.416   1_554 S
C401   C402    1.392   .     A
C401   C994    1.416   .     S
C401   C1014   1.399   .     S
C402   C403    1.387   .     A
C402   H431    1.084   .     S
C403   H437    1.080   .     S
C404   C421    1.397   .     A
C404   H433    1.076   .     S
C405   C420    1.397   .     A
C405   O451    1.383   .     S
C405   C421    1.409   .     A
C406   C408    1.471   .     S
C406   C422    1.401   .     A
C407   H438    1.084   .     S
C407   C413    1.398   .     A
C407   C13     1.370   1_565 S
C408   O444    1.290   .     A
C408   O443    1.303   .     A
C409   C410    1.396   .     A
C409   H425    1.084   .     S
C410   C418    1.418   .     S
C410   C411    1.397   .     A
C411   H426    1.084   .     S
C412   H427    1.084   .     S
C412   C413    1.396   .     A
C412   C15     1.370   1_565 S
C414   N440    1.379   .     A
C414   I462    2.114   .     S
C414   C481    1.414   .     S
C415   H428    1.082   .     S
C415   N439    1.359   .     A
C415   C546    1.414   1_455 S
C416   N439    1.368   .     A
C416   H429    1.082   .     S
C416   C549    1.419   1_455 S
C417   N440    1.367   .     A
C417   H430    1.082   .     S
C417   C482    1.419   .     S
C418   O446    1.286   .     A
C418   O445    1.285   .     A
C419   C421    1.462   .     S
C419   O448    1.298   .     A
C419   O447    1.294   .     A
C420   C995    1.399   1_554 S
C420   H1026   1.078   1_554 S
C422   C423    1.391   .     A
C422   H434    1.082   .     S
C423   C1018   1.390   .     S
C423   H1030   1.077   .     S
C424   H435    1.079   .     S
C424   C1017   1.390   1_554 S
C424   C992    1.414   1_554 S
H432   C1014   1.078   .     S
H436   C1017   1.077   1_554 S
N439   Zn449   2.016   .     S
N440   Zn450   2.016   .     S
O441   Zn449   1.999   .     S
O442   Zn450   1.996   .     S
O443   Zn449   1.956   .     S
O444   Zn450   1.921   .     S
O445   Zn449   1.996   .     S
O446   Zn450   1.999   .     S
O447   Zn449   1.921   .     S
O448   Zn450   1.956   .     S
O451   C452    1.416   .     S
C452   C455    1.531   .     S
C452   H453    1.111   .     S
C452   H454    1.117   .     S
C455   H522    1.111   .     S
C455   H1051   1.111   1_554 S
C455   C524    1.526   .     S
H456   C587    1.111   1_455 S
H457   C1049   1.111   .     S
C458   H461    1.111   .     S
C458   C587    1.526   1_455 S
C458   H591    1.111   1_455 S
C458   H1054   1.110   1_554 S
H459   C524    1.111   .     S
H460   C1052   1.110   .     S
C463   C479    1.418   .     S
C463   O507    1.286   .     A
C463   O508    1.285   .     A
C464   C465    1.406   .     A
C464   C1060   1.414   .     S
C464   C1084   1.414   .     S
C465   C472    1.420   .     A
C465   C469    1.415   .     A
C466   C470    1.389   .     A
C466   C1058   1.414   1_554 S
C466   C1061   1.416   1_554 S
C467   C468    1.392   .     A
C467   C1060   1.416   .     S
C467   C1080   1.399   .     S
C468   C469    1.387   .     A
C468   H497    1.084   .     S
C469   H503    1.080   .     S
C470   C487    1.397   .     A
C470   H499    1.076   .     S
C471   C486    1.397   .     A
C471   O517    1.383   .     S
C471   C487    1.409   .     A
C472   C474    1.471   .     S
C472   C488    1.401   .     A
C473   H504    1.084   .     S
C473   C479    1.398   .     A
C473   C79     1.370   1_565 S
C474   O510    1.290   .     A
C474   O509    1.303   .     A
C475   C476    1.396   .     A
C475   H491    1.084   .     S
C476   C484    1.418   .     S
C476   C477    1.397   .     A
C477   H492    1.084   .     S
C478   H493    1.084   .     S
C478   C479    1.396   .     A
C478   C81     1.370   1_565 S
C480   N506    1.379   .     A
C480   I528    2.114   .     S
C480   C547    1.414   .     S
C481   H494    1.082   .     S
C481   N505    1.359   .     A
C482   N505    1.368   .     A
C482   H495    1.082   .     S
C483   N506    1.367   .     A
C483   H496    1.082   .     S
C483   C548    1.419   .     S
C484   O512    1.286   .     A
C484   O511    1.285   .     A
C485   C487    1.462   .     S
C485   O514    1.298   .     A
C485   O513    1.294   .     A
C486   C1061   1.399   1_554 S
C486   H1092   1.078   1_554 S
C488   C489    1.391   .     A
C488   H500    1.082   .     S
C489   C1084   1.390   .     S
C489   H1096   1.077   .     S
C490   H501    1.079   .     S
C490   C1083   1.390   1_554 S
C490   C1058   1.414   1_554 S
H498   C1080   1.078   .     S
H502   C1083   1.077   1_554 S
N505   Zn515   2.016   .     S
N506   Zn516   2.016   .     S
O507   Zn515   1.999   .     S
O508   Zn516   1.996   .     S
O509   Zn515   1.956   .     S
O510   Zn516   1.921   .     S
O511   Zn515   1.996   .     S
O512   Zn516   1.999   .     S
O513   Zn515   1.921   .     S
O514   Zn516   1.956   .     S
O517   C518    1.416   .     S
C518   C521    1.531   .     S
C518   H519    1.111   .     S
C518   H520    1.117   .     S
C521   H588    1.111   .     S
C521   H1117   1.111   1_554 S
C521   C590    1.526   .     S
H523   C1115   1.111   .     S
C524   H527    1.111   .     S
C524   H1120   1.110   1_554 S
H525   C590    1.111   .     S
H526   C1118   1.110   .     S
C529   C545    1.418   .     S
C529   O573    1.286   .     A
C529   O574    1.285   .     A
C530   C531    1.406   .     A
C530   C1126   1.414   .     S
C530   C1150   1.414   .     S
C531   C538    1.420   .     A
C531   C535    1.415   .     A
C532   C536    1.389   .     A
C532   C1124   1.414   1_554 S
C532   C1127   1.416   1_554 S
C533   C534    1.392   .     A
C533   C1126   1.416   .     S
C533   C1146   1.399   .     S
C534   C535    1.387   .     A
C534   H563    1.084   .     S
C535   H569    1.080   .     S
C536   C553    1.397   .     A
C536   H565    1.076   .     S
C537   C552    1.397   .     A
C537   O583    1.383   .     S
C537   C553    1.409   .     A
C538   C540    1.471   .     S
C538   C554    1.401   .     A
C539   H570    1.084   .     S
C539   C545    1.398   .     A
C539   C145    1.370   1_565 S
C540   O576    1.290   .     A
C540   O575    1.303   .     A
C541   C542    1.396   .     A
C541   H557    1.084   .     S
C542   C550    1.418   .     S
C542   C543    1.397   .     A
C543   H558    1.084   .     S
C544   H559    1.084   .     S
C544   C545    1.396   .     A
C544   C147    1.370   1_565 S
C546   N572    1.379   .     A
C546   I594    2.114   .     S
C546   C415    1.414   1_655 S
C547   H560    1.082   .     S
C547   N571    1.359   .     A
C548   N571    1.368   .     A
C548   H561    1.082   .     S
C549   N572    1.367   .     A
C549   H562    1.082   .     S
C549   C416    1.419   1_655 S
C550   O578    1.286   .     A
C550   O577    1.285   .     A
C551   C553    1.462   .     S
C551   O580    1.298   .     A
C551   O579    1.294   .     A
C552   C1127   1.399   1_554 S
C552   H1158   1.078   1_554 S
C554   C555    1.391   .     A
C554   H566    1.082   .     S
C555   C1150   1.390   .     S
C555   H1162   1.077   .     S
C556   H567    1.079   .     S
C556   C1149   1.390   1_554 S
C556   C1124   1.414   1_554 S
H564   C1146   1.078   .     S
H568   C1149   1.077   1_554 S
N571   Zn581   2.016   .     S
N572   Zn582   2.016   .     S
O573   Zn581   1.999   .     S
O574   Zn582   1.996   .     S
O575   Zn581   1.956   .     S
O576   Zn582   1.921   .     S
O577   Zn581   1.996   .     S
O578   Zn582   1.999   .     S
O579   Zn581   1.921   .     S
O580   Zn582   1.956   .     S
O583   C584    1.416   .     S
C584   C587    1.531   .     S
C584   H585    1.111   .     S
C584   H586    1.117   .     S
C587   H456    1.111   1_655 S
C587   H1183   1.111   1_554 S
C587   C458    1.526   1_655 S
H589   C1181   1.111   .     S
C590   H593    1.111   .     S
C590   H1186   1.110   1_554 S
H591   C458    1.111   1_655 S
H592   C1184   1.110   .     S
C595   C611    1.418   .     S
C595   O639    1.286   .     A
C595   O640    1.285   .     A
C596   C597    1.406   .     A
C596   C4      1.414   1_556 S
C596   C28     1.414   1_556 S
C597   C604    1.420   .     A
C597   C601    1.415   .     A
C598   C602    1.389   .     A
C599   C600    1.392   .     A
C599   C4      1.416   1_556 S
C599   C24     1.399   1_556 S
C600   C601    1.387   .     A
C600   H629    1.084   .     S
C601   H635    1.080   .     S
C602   C619    1.397   .     A
C602   H631    1.076   .     S
C603   C618    1.397   .     A
C603   O649    1.383   .     S
C603   C619    1.409   .     A
C604   C606    1.471   .     S
C604   C620    1.401   .     A
C605   H636    1.084   .     S
C605   C611    1.398   .     A
C605   C805    1.370   .     S
C606   O642    1.290   .     A
C606   O641    1.303   .     A
C607   C608    1.396   .     A
C607   H623    1.084   .     S
C607   C1001   1.370   1_545 S
C608   C616    1.418   .     S
C608   C609    1.397   .     A
C609   H624    1.084   .     S
C609   C1006   1.370   1_545 S
C610   H625    1.084   .     S
C610   C611    1.396   .     A
C610   C807    1.370   .     S
C612   N638    1.379   .     A
C612   I660    2.114   .     S
C612   C679    1.414   .     S
C613   H626    1.082   .     S
C613   N637    1.359   .     A
C613   C744    1.414   1_455 S
C614   N637    1.368   .     A
C614   H627    1.082   .     S
C614   C747    1.419   1_455 S
C615   N638    1.367   .     A
C615   H628    1.082   .     S
C615   C680    1.419   .     S
C616   O644    1.286   .     A
C616   O643    1.285   .     A
C617   C619    1.462   .     S
C617   O646    1.298   .     A
C617   O645    1.294   .     A
C620   C621    1.391   .     A
C620   H632    1.082   .     S
C621   C28     1.390   1_556 S
C621   H40     1.077   1_556 S
C622   H633    1.079   .     S
H630   C24     1.078   1_556 S
N637   Zn647   2.016   .     S
N638   Zn648   2.016   .     S
O639   Zn647   1.999   .     S
O640   Zn648   1.996   .     S
O641   Zn647   1.956   .     S
O642   Zn648   1.921   .     S
O643   Zn647   1.996   .     S
O644   Zn648   1.999   .     S
O645   Zn647   1.921   .     S
O646   Zn648   1.956   .     S
O649   C650    1.416   .     S
C650   C653    1.531   .     S
C650   H651    1.111   .     S
C650   H652    1.117   .     S
C653   H720    1.111   .     S
C653   C722    1.526   .     S
H654   C785    1.111   1_455 S
H655   C59     1.111   1_556 S
C656   H659    1.111   .     S
C656   C785    1.526   1_455 S
C656   H789    1.111   1_455 S
H657   C722    1.111   .     S
H658   C62     1.110   1_556 S
C661   C677    1.418   .     S
C661   O705    1.286   .     A
C661   O706    1.285   .     A
C662   C663    1.406   .     A
C662   C70     1.414   1_556 S
C662   C94     1.414   1_556 S
C663   C670    1.420   .     A
C663   C667    1.415   .     A
C664   C668    1.389   .     A
C665   C666    1.392   .     A
C665   C70     1.416   1_556 S
C665   C90     1.399   1_556 S
C666   C667    1.387   .     A
C666   H695    1.084   .     S
C667   H701    1.080   .     S
C668   C685    1.397   .     A
C668   H697    1.076   .     S
C669   C684    1.397   .     A
C669   O715    1.383   .     S
C669   C685    1.409   .     A
C670   C672    1.471   .     S
C670   C686    1.401   .     A
C671   H702    1.084   .     S
C671   C677    1.398   .     A
C671   C871    1.370   .     S
C672   O708    1.290   .     A
C672   O707    1.303   .     A
C673   C674    1.396   .     A
C673   H689    1.084   .     S
C673   C1067   1.370   1_545 S
C674   C682    1.418   .     S
C674   C675    1.397   .     A
C675   H690    1.084   .     S
C675   C1072   1.370   1_545 S
C676   H691    1.084   .     S
C676   C677    1.396   .     A
C676   C873    1.370   .     S
C678   N704    1.379   .     A
C678   I726    2.114   .     S
C678   C745    1.414   .     S
C679   H692    1.082   .     S
C679   N703    1.359   .     A
C680   N703    1.368   .     A
C680   H693    1.082   .     S
C681   N704    1.367   .     A
C681   H694    1.082   .     S
C681   C746    1.419   .     S
C682   O710    1.286   .     A
C682   O709    1.285   .     A
C683   C685    1.462   .     S
C683   O712    1.298   .     A
C683   O711    1.294   .     A
C686   C687    1.391   .     A
C686   H698    1.082   .     S
C687   C94     1.390   1_556 S
C687   H106    1.077   1_556 S
C688   H699    1.079   .     S
H696   C90     1.078   1_556 S
N703   Zn713   2.016   .     S
N704   Zn714   2.016   .     S
O705   Zn713   1.999   .     S
O706   Zn714   1.996   .     S
O707   Zn713   1.956   .     S
O708   Zn714   1.921   .     S
O709   Zn713   1.996   .     S
O710   Zn714   1.999   .     S
O711   Zn713   1.921   .     S
O712   Zn714   1.956   .     S
O715   C716    1.416   .     S
C716   C719    1.531   .     S
C716   H717    1.111   .     S
C716   H718    1.117   .     S
C719   H786    1.111   .     S
C719   C788    1.526   .     S
H721   C125    1.111   1_556 S
C722   H725    1.111   .     S
H723   C788    1.111   .     S
H724   C128    1.110   1_556 S
C727   C743    1.418   .     S
C727   O771    1.286   .     A
C727   O772    1.285   .     A
C728   C729    1.406   .     A
C728   C136    1.414   1_556 S
C728   C160    1.414   1_556 S
C729   C736    1.420   .     A
C729   C733    1.415   .     A
C730   C734    1.389   .     A
C731   C732    1.392   .     A
C731   C136    1.416   1_556 S
C731   C156    1.399   1_556 S
C732   C733    1.387   .     A
C732   H761    1.084   .     S
C733   H767    1.080   .     S
C734   C751    1.397   .     A
C734   H763    1.076   .     S
C735   C750    1.397   .     A
C735   O781    1.383   .     S
C735   C751    1.409   .     A
C736   C738    1.471   .     S
C736   C752    1.401   .     A
C737   H768    1.084   .     S
C737   C743    1.398   .     A
C737   C937    1.370   .     S
C738   O774    1.290   .     A
C738   O773    1.303   .     A
C739   C740    1.396   .     A
C739   H755    1.084   .     S
C739   C1133   1.370   1_545 S
C740   C748    1.418   .     S
C740   C741    1.397   .     A
C741   H756    1.084   .     S
C741   C1138   1.370   1_545 S
C742   H757    1.084   .     S
C742   C743    1.396   .     A
C742   C939    1.370   .     S
C744   N770    1.379   .     A
C744   I792    2.114   .     S
C744   C613    1.414   1_655 S
C745   H758    1.082   .     S
C745   N769    1.359   .     A
C746   N769    1.368   .     A
C746   H759    1.082   .     S
C747   N770    1.367   .     A
C747   H760    1.082   .     S
C747   C614    1.419   1_655 S
C748   O776    1.286   .     A
C748   O775    1.285   .     A
C749   C751    1.462   .     S
C749   O778    1.298   .     A
C749   O777    1.294   .     A
C752   C753    1.391   .     A
C752   H764    1.082   .     S
C753   C160    1.390   1_556 S
C753   H172    1.077   1_556 S
C754   H765    1.079   .     S
H762   C156    1.078   1_556 S
N769   Zn779   2.016   .     S
N770   Zn780   2.016   .     S
O771   Zn779   1.999   .     S
O772   Zn780   1.996   .     S
O773   Zn779   1.956   .     S
O774   Zn780   1.921   .     S
O775   Zn779   1.996   .     S
O776   Zn780   1.999   .     S
O777   Zn779   1.921   .     S
O778   Zn780   1.956   .     S
O781   C782    1.416   .     S
C782   C785    1.531   .     S
C782   H783    1.111   .     S
C782   H784    1.117   .     S
C785   H654    1.111   1_655 S
C785   C656    1.526   1_655 S
H787   C191    1.111   1_556 S
C788   H791    1.111   .     S
H789   C656    1.111   1_655 S
H790   C194    1.110   1_556 S
C793   C809    1.418   .     S
C793   O837    1.286   .     A
C793   O838    1.285   .     A
C794   C795    1.406   .     A
C794   C202    1.414   1_556 S
C794   C226    1.414   1_556 S
C795   C802    1.420   .     A
C795   C799    1.415   .     A
C796   C800    1.389   .     A
C797   C798    1.392   .     A
C797   C202    1.416   1_556 S
C797   C222    1.399   1_556 S
C798   C799    1.387   .     A
C798   H827    1.084   .     S
C799   H833    1.080   .     S
C800   C817    1.397   .     A
C800   H829    1.076   .     S
C801   C816    1.397   .     A
C801   O847    1.383   .     S
C801   C817    1.409   .     A
C802   C804    1.471   .     S
C802   C818    1.401   .     A
C803   H834    1.084   .     S
C803   C809    1.398   .     A
C803   C1003   1.370   .     S
C804   O840    1.290   .     A
C804   O839    1.303   .     A
C805   C806    1.396   .     A
C805   H821    1.084   .     S
C806   C814    1.418   .     S
C806   C807    1.397   .     A
C807   H822    1.084   .     S
C808   H823    1.084   .     S
C808   C809    1.396   .     A
C808   C1005   1.370   .     S
C810   N836    1.379   .     A
C810   I858    2.114   .     S
C810   C877    1.414   .     S
C811   H824    1.082   .     S
C811   N835    1.359   .     A
C811   C942    1.414   1_455 S
C812   N835    1.368   .     A
C812   H825    1.082   .     S
C812   C945    1.419   1_455 S
C813   N836    1.367   .     A
C813   H826    1.082   .     S
C813   C878    1.419   .     S
C814   O842    1.286   .     A
C814   O841    1.285   .     A
C815   C817    1.462   .     S
C815   O844    1.298   .     A
C815   O843    1.294   .     A
C818   C819    1.391   .     A
C818   H830    1.082   .     S
C819   C226    1.390   1_556 S
C819   H238    1.077   1_556 S
C820   H831    1.079   .     S
H828   C222    1.078   1_556 S
N835   Zn845   2.016   .     S
N836   Zn846   2.016   .     S
O837   Zn845   1.999   .     S
O838   Zn846   1.996   .     S
O839   Zn845   1.956   .     S
O840   Zn846   1.921   .     S
O841   Zn845   1.996   .     S
O842   Zn846   1.999   .     S
O843   Zn845   1.921   .     S
O844   Zn846   1.956   .     S
O847   C848    1.416   .     S
C848   C851    1.531   .     S
C848   H849    1.111   .     S
C848   H850    1.117   .     S
C851   H918    1.111   .     S
C851   C920    1.526   .     S
H852   C983    1.111   1_455 S
H853   C257    1.111   1_556 S
C854   H857    1.111   .     S
C854   C983    1.526   1_455 S
C854   H987    1.111   1_455 S
H855   C920    1.111   .     S
H856   C260    1.110   1_556 S
C859   C875    1.418   .     S
C859   O903    1.286   .     A
C859   O904    1.285   .     A
C860   C861    1.406   .     A
C860   C268    1.414   1_556 S
C860   C292    1.414   1_556 S
C861   C868    1.420   .     A
C861   C865    1.415   .     A
C862   C866    1.389   .     A
C863   C864    1.392   .     A
C863   C268    1.416   1_556 S
C863   C288    1.399   1_556 S
C864   C865    1.387   .     A
C864   H893    1.084   .     S
C865   H899    1.080   .     S
C866   C883    1.397   .     A
C866   H895    1.076   .     S
C867   C882    1.397   .     A
C867   O913    1.383   .     S
C867   C883    1.409   .     A
C868   C870    1.471   .     S
C868   C884    1.401   .     A
C869   H900    1.084   .     S
C869   C875    1.398   .     A
C869   C1069   1.370   .     S
C870   O906    1.290   .     A
C870   O905    1.303   .     A
C871   C872    1.396   .     A
C871   H887    1.084   .     S
C872   C880    1.418   .     S
C872   C873    1.397   .     A
C873   H888    1.084   .     S
C874   H889    1.084   .     S
C874   C875    1.396   .     A
C874   C1071   1.370   .     S
C876   N902    1.379   .     A
C876   I924    2.114   .     S
C876   C943    1.414   .     S
C877   H890    1.082   .     S
C877   N901    1.359   .     A
C878   N901    1.368   .     A
C878   H891    1.082   .     S
C879   N902    1.367   .     A
C879   H892    1.082   .     S
C879   C944    1.419   .     S
C880   O908    1.286   .     A
C880   O907    1.285   .     A
C881   C883    1.462   .     S
C881   O910    1.298   .     A
C881   O909    1.294   .     A
C884   C885    1.391   .     A
C884   H896    1.082   .     S
C885   C292    1.390   1_556 S
C885   H304    1.077   1_556 S
C886   H897    1.079   .     S
H894   C288    1.078   1_556 S
N901   Zn911   2.016   .     S
N902   Zn912   2.016   .     S
O903   Zn911   1.999   .     S
O904   Zn912   1.996   .     S
O905   Zn911   1.956   .     S
O906   Zn912   1.921   .     S
O907   Zn911   1.996   .     S
O908   Zn912   1.999   .     S
O909   Zn911   1.921   .     S
O910   Zn912   1.956   .     S
O913   C914    1.416   .     S
C914   C917    1.531   .     S
C914   H915    1.111   .     S
C914   H916    1.117   .     S
C917   H984    1.111   .     S
C917   C986    1.526   .     S
H919   C323    1.111   1_556 S
C920   H923    1.111   .     S
H921   C986    1.111   .     S
H922   C326    1.110   1_556 S
C925   C941    1.418   .     S
C925   O969    1.286   .     A
C925   O970    1.285   .     A
C926   C927    1.406   .     A
C926   C334    1.414   1_556 S
C926   C358    1.414   1_556 S
C927   C934    1.420   .     A
C927   C931    1.415   .     A
C928   C932    1.389   .     A
C929   C930    1.392   .     A
C929   C334    1.416   1_556 S
C929   C354    1.399   1_556 S
C930   C931    1.387   .     A
C930   H959    1.084   .     S
C931   H965    1.080   .     S
C932   C949    1.397   .     A
C932   H961    1.076   .     S
C933   C948    1.397   .     A
C933   O979    1.383   .     S
C933   C949    1.409   .     A
C934   C936    1.471   .     S
C934   C950    1.401   .     A
C935   H966    1.084   .     S
C935   C941    1.398   .     A
C935   C1135   1.370   .     S
C936   O972    1.290   .     A
C936   O971    1.303   .     A
C937   C938    1.396   .     A
C937   H953    1.084   .     S
C938   C946    1.418   .     S
C938   C939    1.397   .     A
C939   H954    1.084   .     S
C940   H955    1.084   .     S
C940   C941    1.396   .     A
C940   C1137   1.370   .     S
C942   N968    1.379   .     A
C942   I990    2.114   .     S
C942   C811    1.414   1_655 S
C943   H956    1.082   .     S
C943   N967    1.359   .     A
C944   N967    1.368   .     A
C944   H957    1.082   .     S
C945   N968    1.367   .     A
C945   H958    1.082   .     S
C945   C812    1.419   1_655 S
C946   O974    1.286   .     A
C946   O973    1.285   .     A
C947   C949    1.462   .     S
C947   O976    1.298   .     A
C947   O975    1.294   .     A
C950   C951    1.391   .     A
C950   H962    1.082   .     S
C951   C358    1.390   1_556 S
C951   H370    1.077   1_556 S
C952   H963    1.079   .     S
H960   C354    1.078   1_556 S
N967   Zn977   2.016   .     S
N968   Zn978   2.016   .     S
O969   Zn977   1.999   .     S
O970   Zn978   1.996   .     S
O971   Zn977   1.956   .     S
O972   Zn978   1.921   .     S
O973   Zn977   1.996   .     S
O974   Zn978   1.999   .     S
O975   Zn977   1.921   .     S
O976   Zn978   1.956   .     S
O979   C980    1.416   .     S
C980   C983    1.531   .     S
C980   H981    1.111   .     S
C980   H982    1.117   .     S
C983   H852    1.111   1_655 S
C983   C854    1.526   1_655 S
H985   C389    1.111   1_556 S
C986   H989    1.111   .     S
H987   C854    1.111   1_655 S
H988   C392    1.110   1_556 S
C991   C1007   1.418   .     S
C991   O1035   1.286   .     A
C991   O1036   1.285   .     A
C992   C993    1.406   .     A
C992   C400    1.414   1_556 S
C992   C424    1.414   1_556 S
C993   C1000   1.420   .     A
C993   C997    1.415   .     A
C994   C998    1.389   .     A
C995   C996    1.392   .     A
C995   C400    1.416   1_556 S
C995   C420    1.399   1_556 S
C996   C997    1.387   .     A
C996   H1025   1.084   .     S
C997   H1031   1.080   .     S
C998   C1015   1.397   .     A
C998   H1027   1.076   .     S
C999   C1014   1.397   .     A
C999   O1045   1.383   .     S
C999   C1015   1.409   .     A
C1000  C1002   1.471   .     S
C1000  C1016   1.401   .     A
C1001  H1032   1.084   .     S
C1001  C1007   1.398   .     A
C1001  C607    1.370   1_565 S
C1002  O1038   1.290   .     A
C1002  O1037   1.303   .     A
C1003  C1004   1.396   .     A
C1003  H1019   1.084   .     S
C1004  C1012   1.418   .     S
C1004  C1005   1.397   .     A
C1005  H1020   1.084   .     S
C1006  H1021   1.084   .     S
C1006  C1007   1.396   .     A
C1006  C609    1.370   1_565 S
C1008  N1034   1.379   .     A
C1008  I1056   2.114   .     S
C1008  C1075   1.414   .     S
C1009  H1022   1.082   .     S
C1009  N1033   1.359   .     A
C1009  C1140   1.414   1_455 S
C1010  N1033   1.368   .     A
C1010  H1023   1.082   .     S
C1010  C1143   1.419   1_455 S
C1011  N1034   1.367   .     A
C1011  H1024   1.082   .     S
C1011  C1076   1.419   .     S
C1012  O1040   1.286   .     A
C1012  O1039   1.285   .     A
C1013  C1015   1.462   .     S
C1013  O1042   1.298   .     A
C1013  O1041   1.294   .     A
C1016  C1017   1.391   .     A
C1016  H1028   1.082   .     S
C1017  C424    1.390   1_556 S
C1017  H436    1.077   1_556 S
C1018  H1029   1.079   .     S
H1026  C420    1.078   1_556 S
N1033  Zn1043  2.016   .     S
N1034  Zn1044  2.016   .     S
O1035  Zn1043  1.999   .     S
O1036  Zn1044  1.996   .     S
O1037  Zn1043  1.956   .     S
O1038  Zn1044  1.921   .     S
O1039  Zn1043  1.996   .     S
O1040  Zn1044  1.999   .     S
O1041  Zn1043  1.921   .     S
O1042  Zn1044  1.956   .     S
O1045  C1046   1.416   .     S
C1046  C1049   1.531   .     S
C1046  H1047   1.111   .     S
C1046  H1048   1.117   .     S
C1049  H1116   1.111   .     S
C1049  C1118   1.526   .     S
H1050  C1181   1.111   1_455 S
H1051  C455    1.111   1_556 S
C1052  H1055   1.111   .     S
C1052  C1181   1.526   1_455 S
C1052  H1185   1.111   1_455 S
H1053  C1118   1.111   .     S
H1054  C458    1.110   1_556 S
C1057  C1073   1.418   .     S
C1057  O1101   1.286   .     A
C1057  O1102   1.285   .     A
C1058  C1059   1.406   .     A
C1058  C466    1.414   1_556 S
C1058  C490    1.414   1_556 S
C1059  C1066   1.420   .     A
C1059  C1063   1.415   .     A
C1060  C1064   1.389   .     A
C1061  C1062   1.392   .     A
C1061  C466    1.416   1_556 S
C1061  C486    1.399   1_556 S
C1062  C1063   1.387   .     A
C1062  H1091   1.084   .     S
C1063  H1097   1.080   .     S
C1064  C1081   1.397   .     A
C1064  H1093   1.076   .     S
C1065  C1080   1.397   .     A
C1065  O1111   1.383   .     S
C1065  C1081   1.409   .     A
C1066  C1068   1.471   .     S
C1066  C1082   1.401   .     A
C1067  H1098   1.084   .     S
C1067  C1073   1.398   .     A
C1067  C673    1.370   1_565 S
C1068  O1104   1.290   .     A
C1068  O1103   1.303   .     A
C1069  C1070   1.396   .     A
C1069  H1085   1.084   .     S
C1070  C1078   1.418   .     S
C1070  C1071   1.397   .     A
C1071  H1086   1.084   .     S
C1072  H1087   1.084   .     S
C1072  C1073   1.396   .     A
C1072  C675    1.370   1_565 S
C1074  N1100   1.379   .     A
C1074  I1122   2.114   .     S
C1074  C1141   1.414   .     S
C1075  H1088   1.082   .     S
C1075  N1099   1.359   .     A
C1076  N1099   1.368   .     A
C1076  H1089   1.082   .     S
C1077  N1100   1.367   .     A
C1077  H1090   1.082   .     S
C1077  C1142   1.419   .     S
C1078  O1106   1.286   .     A
C1078  O1105   1.285   .     A
C1079  C1081   1.462   .     S
C1079  O1108   1.298   .     A
C1079  O1107   1.294   .     A
C1082  C1083   1.391   .     A
C1082  H1094   1.082   .     S
C1083  C490    1.390   1_556 S
C1083  H502    1.077   1_556 S
C1084  H1095   1.079   .     S
H1092  C486    1.078   1_556 S
N1099  Zn1109  2.016   .     S
N1100  Zn1110  2.016   .     S
O1101  Zn1109  1.999   .     S
O1102  Zn1110  1.996   .     S
O1103  Zn1109  1.956   .     S
O1104  Zn1110  1.921   .     S
O1105  Zn1109  1.996   .     S
O1106  Zn1110  1.999   .     S
O1107  Zn1109  1.921   .     S
O1108  Zn1110  1.956   .     S
O1111  C1112   1.416   .     S
C1112  C1115   1.531   .     S
C1112  H1113   1.111   .     S
C1112  H1114   1.117   .     S
C1115  H1182   1.111   .     S
C1115  C1184   1.526   .     S
H1117  C521    1.111   1_556 S
C1118  H1121   1.111   .     S
H1119  C1184   1.111   .     S
H1120  C524    1.110   1_556 S
C1123  C1139   1.418   .     S
C1123  O1167   1.286   .     A
C1123  O1168   1.285   .     A
C1124  C1125   1.406   .     A
C1124  C532    1.414   1_556 S
C1124  C556    1.414   1_556 S
C1125  C1132   1.420   .     A
C1125  C1129   1.415   .     A
C1126  C1130   1.389   .     A
C1127  C1128   1.392   .     A
C1127  C532    1.416   1_556 S
C1127  C552    1.399   1_556 S
C1128  C1129   1.387   .     A
C1128  H1157   1.084   .     S
C1129  H1163   1.080   .     S
C1130  C1147   1.397   .     A
C1130  H1159   1.076   .     S
C1131  C1146   1.397   .     A
C1131  O1177   1.383   .     S
C1131  C1147   1.409   .     A
C1132  C1134   1.471   .     S
C1132  C1148   1.401   .     A
C1133  H1164   1.084   .     S
C1133  C1139   1.398   .     A
C1133  C739    1.370   1_565 S
C1134  O1170   1.290   .     A
C1134  O1169   1.303   .     A
C1135  C1136   1.396   .     A
C1135  H1151   1.084   .     S
C1136  C1144   1.418   .     S
C1136  C1137   1.397   .     A
C1137  H1152   1.084   .     S
C1138  H1153   1.084   .     S
C1138  C1139   1.396   .     A
C1138  C741    1.370   1_565 S
C1140  N1166   1.379   .     A
C1140  I1188   2.114   .     S
C1140  C1009   1.414   1_655 S
C1141  H1154   1.082   .     S
C1141  N1165   1.359   .     A
C1142  N1165   1.368   .     A
C1142  H1155   1.082   .     S
C1143  N1166   1.367   .     A
C1143  H1156   1.082   .     S
C1143  C1010   1.419   1_655 S
C1144  O1172   1.286   .     A
C1144  O1171   1.285   .     A
C1145  C1147   1.462   .     S
C1145  O1174   1.298   .     A
C1145  O1173   1.294   .     A
C1148  C1149   1.391   .     A
C1148  H1160   1.082   .     S
C1149  C556    1.390   1_556 S
C1149  H568    1.077   1_556 S
C1150  H1161   1.079   .     S
H1158  C552    1.078   1_556 S
N1165  Zn1175  2.016   .     S
N1166  Zn1176  2.016   .     S
O1167  Zn1175  1.999   .     S
O1168  Zn1176  1.996   .     S
O1169  Zn1175  1.956   .     S
O1170  Zn1176  1.921   .     S
O1171  Zn1175  1.996   .     S
O1172  Zn1176  1.999   .     S
O1173  Zn1175  1.921   .     S
O1174  Zn1176  1.956   .     S
O1177  C1178   1.416   .     S
C1178  C1181   1.531   .     S
C1178  H1179   1.111   .     S
C1178  H1180   1.117   .     S
C1181  H1050   1.111   1_655 S
C1181  C1052   1.526   1_655 S
H1183  C587    1.111   1_556 S
C1184  H1187   1.111   .     S
H1185  C1052   1.111   1_655 S
H1186  C590    1.110   1_556 S
