data_str_m3_o2_o10_pcu_sym.83
_audit_creation_date              2020-01-03
_audit_creation_method            'Materials Studio'
_symmetry_space_group_name_H-M    'P1'
_symmetry_Int_Tables_number       1
_symmetry_cell_setting            triclinic
loop_
_symmetry_equiv_pos_as_xyz
  x,y,z
_cell_length_a                    25.7569
_cell_length_b                    30.0413
_cell_length_c                    28.4462
_cell_angle_alpha                 89.0308
_cell_angle_beta                  98.3850
_cell_angle_gamma                 90.7116
loop_
_atom_site_label
_atom_site_type_symbol
_atom_site_fract_x
_atom_site_fract_y
_atom_site_fract_z
_atom_site_U_iso_or_equiv
_atom_site_adp_type
_atom_site_occupancy
C1     C     0.16749   0.16373   0.25057   0.00000  Uiso   1.00
C2     C     0.12954   0.22539   0.44297   0.00000  Uiso   1.00
C3     C     0.16741   0.24929   0.02683   0.00000  Uiso   1.00
C4     C     0.16755   0.24943   0.47340   0.00000  Uiso   1.00
C5     C     0.06707   0.25020   0.23760   0.00000  Uiso   1.00
C6     C     0.26625   0.25039   0.26237   0.00000  Uiso   1.00
C7     C     0.01207   0.25043   0.23087   0.00000  Uiso   1.00
C8     C     0.32124   0.25129   0.26902   0.00000  Uiso   1.00
C9     C     0.17930   0.04431   0.29262   0.00000  Uiso   1.00
C10    C     0.13162   0.45323   0.21723   0.00000  Uiso   1.00
C11    C     0.17878   0.09032   0.29452   0.00000  Uiso   1.00
C12    C     0.16624   0.33580   0.24954   0.00000  Uiso   1.00
C13    C     0.12934   0.40716   0.21727   0.00000  Uiso   1.00
C14    C     0.16959   0.11537   0.25149   0.00000  Uiso   1.00
C15    C     0.16677   0.38335   0.24848   0.00000  Uiso   1.00
C16    C     0.16275   0.09355   0.20772   0.00000  Uiso   1.00
C17    C     0.20622   0.40515   0.27865   0.00000  Uiso   1.00
C18    C     0.16434   0.04776   0.20639   0.00000  Uiso   1.00
C19    C     0.20885   0.45102   0.27783   0.00000  Uiso   1.00
C20    C     0.17209   0.02314   0.24878   0.00000  Uiso   1.00
C21    C     0.17128   0.47508   0.24749   0.00000  Uiso   1.00
C22    C     0.18881   0.11006   0.34102   0.00000  Uiso   1.00
C23    C     0.14098   0.21595   0.05023   0.00000  Uiso   1.00
C24    C     0.08738   0.38515   0.18665   0.00000  Uiso   1.00
C25    C     0.22513   0.31471   0.13314   0.00000  Uiso   1.00
C26    C     0.09361   0.19702   0.36477   0.00000  Uiso   1.00
C27    C     0.20555   0.27342   0.45168   0.00000  Uiso   1.00
C28    C     0.14048   0.21731   0.09957   0.00000  Uiso   1.00
C29    C     0.20392   0.27376   0.40202   0.00000  Uiso   1.00
C30    C     0.19411   0.28191   0.10504   0.00000  Uiso   1.00
C31    C     0.13044   0.22518   0.39369   0.00000  Uiso   1.00
C32    C     0.19385   0.28266   0.05557   0.00000  Uiso   1.00
H33    H     0.32494   0.24951   0.19462   0.00000  Uiso   1.00
H34    H     0.23712   0.29153   0.47244   0.00000  Uiso   1.00
H35    H     0.11965   0.19170   0.11669   0.00000  Uiso   1.00
H36    H     0.23309   0.29259   0.38608   0.00000  Uiso   1.00
H37    H     0.21429   0.30959   0.04017   0.00000  Uiso   1.00
H38    H     0.09885   0.20673   0.45687   0.00000  Uiso   1.00
H39    H     0.00834   0.25255   0.30524   0.00000  Uiso   1.00
H40    H     0.18483   0.02485   0.32542   0.00000  Uiso   1.00
H41    H     0.10197   0.47208   0.19448   0.00000  Uiso   1.00
H42    H     0.15600   0.11178   0.17424   0.00000  Uiso   1.00
H43    H     0.23534   0.38660   0.30227   0.00000  Uiso   1.00
H44    H     0.15941   0.03153   0.17227   0.00000  Uiso   1.00
H45    H     0.24004   0.46772   0.30086   0.00000  Uiso   1.00
H46    H     0.12116   0.18834   0.03119   0.00000  Uiso   1.00
N47    N     0.16667   0.24999   0.12624   0.00000  Uiso   1.00
N48    N     0.16667   0.25001   0.37377   0.00000  Uiso   1.00
N49    N     0.19697   0.12567   0.37832   0.00000  Uiso   1.00
N50    N     0.05381   0.36748   0.16218   0.00000  Uiso   1.00
N51    N     0.25039   0.34114   0.15544   0.00000  Uiso   1.00
N52    N     0.06403   0.17402   0.34185   0.00000  Uiso   1.00
O53    O     0.16667   0.18453   0.28974   0.00000  Uiso   1.00
O54    O     0.16666   0.31546   0.21026   0.00000  Uiso   1.00
O55    O     0.16667   0.18453   0.21026   0.00000  Uiso   1.00
O56    O     0.16666   0.31547   0.28974   0.00000  Uiso   1.00
O57    O     0.09058   0.25000   0.28045   0.00000  Uiso   1.00
O58    O     0.24275   0.25000   0.21956   0.00000  Uiso   1.00
O59    O     0.09058   0.24999   0.20097   0.00000  Uiso   1.00
O60    O     0.24275   0.25000   0.29904   0.00000  Uiso   1.00
Zn61   Zn    0.16667   0.25000   0.30307   0.00000  Uiso   1.00
Zn62   Zn    0.16667   0.24999   0.19693   0.00000  Uiso   1.00
C63    C     0.50083   0.16373   0.25057   0.00000  Uiso   1.00
C64    C     0.46288   0.22539   0.44297   0.00000  Uiso   1.00
C65    C     0.50074   0.24929   0.02683   0.00000  Uiso   1.00
C66    C     0.50089   0.24943   0.47340   0.00000  Uiso   1.00
C67    C     0.40041   0.25020   0.23760   0.00000  Uiso   1.00
C68    C     0.59959   0.25039   0.26237   0.00000  Uiso   1.00
C69    C     0.34541   0.25043   0.23087   0.00000  Uiso   1.00
C70    C     0.65457   0.25129   0.26902   0.00000  Uiso   1.00
C71    C     0.51263   0.04431   0.29262   0.00000  Uiso   1.00
C72    C     0.46495   0.45323   0.21723   0.00000  Uiso   1.00
C73    C     0.51211   0.09032   0.29452   0.00000  Uiso   1.00
C74    C     0.49957   0.33580   0.24954   0.00000  Uiso   1.00
C75    C     0.46267   0.40716   0.21727   0.00000  Uiso   1.00
C76    C     0.50292   0.11537   0.25149   0.00000  Uiso   1.00
C77    C     0.50010   0.38335   0.24848   0.00000  Uiso   1.00
C78    C     0.49609   0.09355   0.20772   0.00000  Uiso   1.00
C79    C     0.53955   0.40515   0.27865   0.00000  Uiso   1.00
C80    C     0.49768   0.04776   0.20639   0.00000  Uiso   1.00
C81    C     0.54218   0.45102   0.27783   0.00000  Uiso   1.00
C82    C     0.50542   0.02314   0.24878   0.00000  Uiso   1.00
C83    C     0.50461   0.47508   0.24749   0.00000  Uiso   1.00
C84    C     0.52214   0.11006   0.34102   0.00000  Uiso   1.00
C85    C     0.47431   0.21595   0.05023   0.00000  Uiso   1.00
C86    C     0.42071   0.38515   0.18665   0.00000  Uiso   1.00
C87    C     0.55846   0.31471   0.13314   0.00000  Uiso   1.00
C88    C     0.42695   0.19702   0.36477   0.00000  Uiso   1.00
C89    C     0.53889   0.27342   0.45168   0.00000  Uiso   1.00
C90    C     0.47382   0.21731   0.09957   0.00000  Uiso   1.00
C91    C     0.53725   0.27376   0.40202   0.00000  Uiso   1.00
C92    C     0.52745   0.28191   0.10504   0.00000  Uiso   1.00
C93    C     0.46378   0.22518   0.39369   0.00000  Uiso   1.00
C94    C     0.52718   0.28266   0.05557   0.00000  Uiso   1.00
H95    H     0.65827   0.24951   0.19462   0.00000  Uiso   1.00
H96    H     0.57045   0.29153   0.47244   0.00000  Uiso   1.00
H97    H     0.45298   0.19170   0.11669   0.00000  Uiso   1.00
H98    H     0.56642   0.29259   0.38608   0.00000  Uiso   1.00
H99    H     0.54762   0.30959   0.04017   0.00000  Uiso   1.00
H100   H     0.43218   0.20673   0.45687   0.00000  Uiso   1.00
H101   H     0.34167   0.25255   0.30524   0.00000  Uiso   1.00
H102   H     0.51817   0.02485   0.32542   0.00000  Uiso   1.00
H103   H     0.43530   0.47208   0.19448   0.00000  Uiso   1.00
H104   H     0.48933   0.11178   0.17424   0.00000  Uiso   1.00
H105   H     0.56868   0.38660   0.30227   0.00000  Uiso   1.00
H106   H     0.49274   0.03153   0.17227   0.00000  Uiso   1.00
H107   H     0.57337   0.46772   0.30086   0.00000  Uiso   1.00
H108   H     0.45449   0.18834   0.03119   0.00000  Uiso   1.00
N109   N     0.50000   0.24999   0.12624   0.00000  Uiso   1.00
N110   N     0.50000   0.25001   0.37377   0.00000  Uiso   1.00
N111   N     0.53031   0.12567   0.37832   0.00000  Uiso   1.00
N112   N     0.38714   0.36748   0.16218   0.00000  Uiso   1.00
N113   N     0.58372   0.34114   0.15544   0.00000  Uiso   1.00
N114   N     0.39737   0.17402   0.34185   0.00000  Uiso   1.00
O115   O     0.50000   0.18453   0.28974   0.00000  Uiso   1.00
O116   O     0.50000   0.31546   0.21026   0.00000  Uiso   1.00
O117   O     0.50000   0.18453   0.21026   0.00000  Uiso   1.00
O118   O     0.50000   0.31547   0.28974   0.00000  Uiso   1.00
O119   O     0.42392   0.25000   0.28045   0.00000  Uiso   1.00
O120   O     0.57608   0.25000   0.21956   0.00000  Uiso   1.00
O121   O     0.42392   0.24999   0.20097   0.00000  Uiso   1.00
O122   O     0.57608   0.25000   0.29904   0.00000  Uiso   1.00
Zn123  Zn    0.50000   0.25000   0.30307   0.00000  Uiso   1.00
Zn124  Zn    0.50000   0.24999   0.19693   0.00000  Uiso   1.00
C125   C     0.83416   0.16373   0.25057   0.00000  Uiso   1.00
C126   C     0.79621   0.22539   0.44297   0.00000  Uiso   1.00
C127   C     0.83408   0.24929   0.02683   0.00000  Uiso   1.00
C128   C     0.83422   0.24943   0.47340   0.00000  Uiso   1.00
C129   C     0.73374   0.25020   0.23760   0.00000  Uiso   1.00
C130   C     0.93292   0.25039   0.26237   0.00000  Uiso   1.00
C131   C     0.67874   0.25043   0.23087   0.00000  Uiso   1.00
C132   C     0.98790   0.25129   0.26902   0.00000  Uiso   1.00
C133   C     0.84597   0.04431   0.29262   0.00000  Uiso   1.00
C134   C     0.79829   0.45323   0.21723   0.00000  Uiso   1.00
C135   C     0.84545   0.09032   0.29452   0.00000  Uiso   1.00
C136   C     0.83291   0.33580   0.24954   0.00000  Uiso   1.00
C137   C     0.79601   0.40716   0.21727   0.00000  Uiso   1.00
C138   C     0.83626   0.11537   0.25149   0.00000  Uiso   1.00
C139   C     0.83344   0.38335   0.24848   0.00000  Uiso   1.00
C140   C     0.82942   0.09355   0.20772   0.00000  Uiso   1.00
C141   C     0.87289   0.40515   0.27865   0.00000  Uiso   1.00
C142   C     0.83101   0.04776   0.20639   0.00000  Uiso   1.00
C143   C     0.87551   0.45102   0.27783   0.00000  Uiso   1.00
C144   C     0.83876   0.02314   0.24878   0.00000  Uiso   1.00
C145   C     0.83794   0.47508   0.24749   0.00000  Uiso   1.00
C146   C     0.85547   0.11006   0.34102   0.00000  Uiso   1.00
C147   C     0.80764   0.21595   0.05023   0.00000  Uiso   1.00
C148   C     0.75405   0.38515   0.18665   0.00000  Uiso   1.00
C149   C     0.89180   0.31471   0.13314   0.00000  Uiso   1.00
C150   C     0.76028   0.19702   0.36477   0.00000  Uiso   1.00
C151   C     0.87222   0.27342   0.45168   0.00000  Uiso   1.00
C152   C     0.80715   0.21731   0.09957   0.00000  Uiso   1.00
C153   C     0.87058   0.27376   0.40202   0.00000  Uiso   1.00
C154   C     0.86078   0.28191   0.10504   0.00000  Uiso   1.00
C155   C     0.79711   0.22518   0.39369   0.00000  Uiso   1.00
C156   C     0.86052   0.28266   0.05557   0.00000  Uiso   1.00
H157   H     0.99160   0.24951   0.19462   0.00000  Uiso   1.00
H158   H     0.90379   0.29153   0.47244   0.00000  Uiso   1.00
H159   H     0.78632   0.19170   0.11669   0.00000  Uiso   1.00
H160   H     0.89975   0.29259   0.38608   0.00000  Uiso   1.00
H161   H     0.88095   0.30959   0.04017   0.00000  Uiso   1.00
H162   H     0.76551   0.20673   0.45687   0.00000  Uiso   1.00
H163   H     0.67501   0.25255   0.30524   0.00000  Uiso   1.00
H164   H     0.85150   0.02485   0.32542   0.00000  Uiso   1.00
H165   H     0.76864   0.47208   0.19448   0.00000  Uiso   1.00
H166   H     0.82266   0.11178   0.17424   0.00000  Uiso   1.00
H167   H     0.90201   0.38660   0.30227   0.00000  Uiso   1.00
H168   H     0.82607   0.03153   0.17227   0.00000  Uiso   1.00
H169   H     0.90670   0.46772   0.30086   0.00000  Uiso   1.00
H170   H     0.78783   0.18834   0.03119   0.00000  Uiso   1.00
N171   N     0.83333   0.24999   0.12624   0.00000  Uiso   1.00
N172   N     0.83333   0.25001   0.37377   0.00000  Uiso   1.00
N173   N     0.86364   0.12567   0.37832   0.00000  Uiso   1.00
N174   N     0.72048   0.36748   0.16218   0.00000  Uiso   1.00
N175   N     0.91706   0.34114   0.15544   0.00000  Uiso   1.00
N176   N     0.73070   0.17402   0.34185   0.00000  Uiso   1.00
O177   O     0.83334   0.18453   0.28974   0.00000  Uiso   1.00
O178   O     0.83333   0.31546   0.21026   0.00000  Uiso   1.00
O179   O     0.83334   0.18453   0.21026   0.00000  Uiso   1.00
O180   O     0.83333   0.31547   0.28974   0.00000  Uiso   1.00
O181   O     0.75725   0.25000   0.28045   0.00000  Uiso   1.00
O182   O     0.90942   0.25000   0.21956   0.00000  Uiso   1.00
O183   O     0.75725   0.24999   0.20097   0.00000  Uiso   1.00
O184   O     0.90942   0.25000   0.29904   0.00000  Uiso   1.00
Zn185  Zn    0.83333   0.25000   0.30307   0.00000  Uiso   1.00
Zn186  Zn    0.83333   0.24999   0.19693   0.00000  Uiso   1.00
C187   C     0.16749   0.66373   0.25057   0.00000  Uiso   1.00
C188   C     0.12954   0.72539   0.44297   0.00000  Uiso   1.00
C189   C     0.16741   0.74929   0.02683   0.00000  Uiso   1.00
C190   C     0.16755   0.74943   0.47340   0.00000  Uiso   1.00
C191   C     0.06707   0.75020   0.23760   0.00000  Uiso   1.00
C192   C     0.26625   0.75039   0.26237   0.00000  Uiso   1.00
C193   C     0.01207   0.75043   0.23087   0.00000  Uiso   1.00
C194   C     0.32124   0.75129   0.26902   0.00000  Uiso   1.00
C195   C     0.17930   0.54431   0.29262   0.00000  Uiso   1.00
C196   C     0.13162   0.95323   0.21723   0.00000  Uiso   1.00
C197   C     0.17878   0.59032   0.29452   0.00000  Uiso   1.00
C198   C     0.16624   0.83580   0.24954   0.00000  Uiso   1.00
C199   C     0.12934   0.90716   0.21727   0.00000  Uiso   1.00
C200   C     0.16959   0.61537   0.25149   0.00000  Uiso   1.00
C201   C     0.16677   0.88335   0.24848   0.00000  Uiso   1.00
C202   C     0.16275   0.59355   0.20772   0.00000  Uiso   1.00
C203   C     0.20622   0.90515   0.27865   0.00000  Uiso   1.00
C204   C     0.16434   0.54776   0.20639   0.00000  Uiso   1.00
C205   C     0.20885   0.95102   0.27783   0.00000  Uiso   1.00
C206   C     0.17209   0.52314   0.24878   0.00000  Uiso   1.00
C207   C     0.17128   0.97508   0.24749   0.00000  Uiso   1.00
C208   C     0.18881   0.61006   0.34102   0.00000  Uiso   1.00
C209   C     0.14098   0.71595   0.05023   0.00000  Uiso   1.00
C210   C     0.08738   0.88515   0.18665   0.00000  Uiso   1.00
C211   C     0.22513   0.81471   0.13314   0.00000  Uiso   1.00
C212   C     0.09361   0.69702   0.36477   0.00000  Uiso   1.00
C213   C     0.20555   0.77342   0.45168   0.00000  Uiso   1.00
C214   C     0.14048   0.71731   0.09957   0.00000  Uiso   1.00
C215   C     0.20392   0.77376   0.40202   0.00000  Uiso   1.00
C216   C     0.19411   0.78191   0.10504   0.00000  Uiso   1.00
C217   C     0.13044   0.72518   0.39369   0.00000  Uiso   1.00
C218   C     0.19385   0.78266   0.05557   0.00000  Uiso   1.00
H219   H     0.32494   0.74951   0.19462   0.00000  Uiso   1.00
H220   H     0.23712   0.79153   0.47244   0.00000  Uiso   1.00
H221   H     0.11965   0.69170   0.11669   0.00000  Uiso   1.00
H222   H     0.23309   0.79259   0.38608   0.00000  Uiso   1.00
H223   H     0.21429   0.80959   0.04017   0.00000  Uiso   1.00
H224   H     0.09885   0.70673   0.45687   0.00000  Uiso   1.00
H225   H     0.00834   0.75255   0.30524   0.00000  Uiso   1.00
H226   H     0.18483   0.52485   0.32542   0.00000  Uiso   1.00
H227   H     0.10197   0.97208   0.19448   0.00000  Uiso   1.00
H228   H     0.15600   0.61178   0.17424   0.00000  Uiso   1.00
H229   H     0.23534   0.88660   0.30227   0.00000  Uiso   1.00
H230   H     0.15941   0.53153   0.17227   0.00000  Uiso   1.00
H231   H     0.24004   0.96772   0.30086   0.00000  Uiso   1.00
H232   H     0.12116   0.68834   0.03119   0.00000  Uiso   1.00
N233   N     0.16667   0.74999   0.12624   0.00000  Uiso   1.00
N234   N     0.16667   0.75001   0.37377   0.00000  Uiso   1.00
N235   N     0.19697   0.62567   0.37832   0.00000  Uiso   1.00
N236   N     0.05381   0.86748   0.16218   0.00000  Uiso   1.00
N237   N     0.25039   0.84114   0.15544   0.00000  Uiso   1.00
N238   N     0.06403   0.67402   0.34185   0.00000  Uiso   1.00
O239   O     0.16667   0.68453   0.28974   0.00000  Uiso   1.00
O240   O     0.16666   0.81546   0.21026   0.00000  Uiso   1.00
O241   O     0.16667   0.68453   0.21026   0.00000  Uiso   1.00
O242   O     0.16666   0.81547   0.28974   0.00000  Uiso   1.00
O243   O     0.09058   0.75000   0.28045   0.00000  Uiso   1.00
O244   O     0.24275   0.75000   0.21956   0.00000  Uiso   1.00
O245   O     0.09058   0.74999   0.20097   0.00000  Uiso   1.00
O246   O     0.24275   0.75000   0.29904   0.00000  Uiso   1.00
Zn247  Zn    0.16667   0.75000   0.30307   0.00000  Uiso   1.00
Zn248  Zn    0.16667   0.74999   0.19693   0.00000  Uiso   1.00
C249   C     0.50083   0.66373   0.25057   0.00000  Uiso   1.00
C250   C     0.46288   0.72539   0.44297   0.00000  Uiso   1.00
C251   C     0.50074   0.74929   0.02683   0.00000  Uiso   1.00
C252   C     0.50089   0.74943   0.47340   0.00000  Uiso   1.00
C253   C     0.40041   0.75020   0.23760   0.00000  Uiso   1.00
C254   C     0.59959   0.75039   0.26237   0.00000  Uiso   1.00
C255   C     0.34541   0.75043   0.23087   0.00000  Uiso   1.00
C256   C     0.65457   0.75129   0.26902   0.00000  Uiso   1.00
C257   C     0.51263   0.54431   0.29262   0.00000  Uiso   1.00
C258   C     0.46495   0.95323   0.21723   0.00000  Uiso   1.00
C259   C     0.51211   0.59032   0.29452   0.00000  Uiso   1.00
C260   C     0.49957   0.83580   0.24954   0.00000  Uiso   1.00
C261   C     0.46267   0.90716   0.21727   0.00000  Uiso   1.00
C262   C     0.50292   0.61537   0.25149   0.00000  Uiso   1.00
C263   C     0.50010   0.88335   0.24848   0.00000  Uiso   1.00
C264   C     0.49609   0.59355   0.20772   0.00000  Uiso   1.00
C265   C     0.53955   0.90515   0.27865   0.00000  Uiso   1.00
C266   C     0.49768   0.54776   0.20639   0.00000  Uiso   1.00
C267   C     0.54218   0.95102   0.27783   0.00000  Uiso   1.00
C268   C     0.50542   0.52314   0.24878   0.00000  Uiso   1.00
C269   C     0.50461   0.97508   0.24749   0.00000  Uiso   1.00
C270   C     0.52214   0.61006   0.34102   0.00000  Uiso   1.00
C271   C     0.47431   0.71595   0.05023   0.00000  Uiso   1.00
C272   C     0.42071   0.88515   0.18665   0.00000  Uiso   1.00
C273   C     0.55846   0.81471   0.13314   0.00000  Uiso   1.00
C274   C     0.42695   0.69702   0.36477   0.00000  Uiso   1.00
C275   C     0.53889   0.77342   0.45168   0.00000  Uiso   1.00
C276   C     0.47382   0.71731   0.09957   0.00000  Uiso   1.00
C277   C     0.53725   0.77376   0.40202   0.00000  Uiso   1.00
C278   C     0.52745   0.78191   0.10504   0.00000  Uiso   1.00
C279   C     0.46378   0.72518   0.39369   0.00000  Uiso   1.00
C280   C     0.52718   0.78266   0.05557   0.00000  Uiso   1.00
H281   H     0.65827   0.74951   0.19462   0.00000  Uiso   1.00
H282   H     0.57045   0.79153   0.47244   0.00000  Uiso   1.00
H283   H     0.45298   0.69170   0.11669   0.00000  Uiso   1.00
H284   H     0.56642   0.79259   0.38608   0.00000  Uiso   1.00
H285   H     0.54762   0.80959   0.04017   0.00000  Uiso   1.00
H286   H     0.43218   0.70673   0.45687   0.00000  Uiso   1.00
H287   H     0.34167   0.75255   0.30524   0.00000  Uiso   1.00
H288   H     0.51817   0.52485   0.32542   0.00000  Uiso   1.00
H289   H     0.43530   0.97208   0.19448   0.00000  Uiso   1.00
H290   H     0.48933   0.61178   0.17424   0.00000  Uiso   1.00
H291   H     0.56868   0.88660   0.30227   0.00000  Uiso   1.00
H292   H     0.49274   0.53153   0.17227   0.00000  Uiso   1.00
H293   H     0.57337   0.96772   0.30086   0.00000  Uiso   1.00
H294   H     0.45449   0.68834   0.03119   0.00000  Uiso   1.00
N295   N     0.50000   0.74999   0.12624   0.00000  Uiso   1.00
N296   N     0.50000   0.75001   0.37377   0.00000  Uiso   1.00
N297   N     0.53031   0.62567   0.37832   0.00000  Uiso   1.00
N298   N     0.38714   0.86748   0.16218   0.00000  Uiso   1.00
N299   N     0.58372   0.84114   0.15544   0.00000  Uiso   1.00
N300   N     0.39737   0.67402   0.34185   0.00000  Uiso   1.00
O301   O     0.50000   0.68453   0.28974   0.00000  Uiso   1.00
O302   O     0.50000   0.81546   0.21026   0.00000  Uiso   1.00
O303   O     0.50000   0.68453   0.21026   0.00000  Uiso   1.00
O304   O     0.50000   0.81547   0.28974   0.00000  Uiso   1.00
O305   O     0.42392   0.75000   0.28045   0.00000  Uiso   1.00
O306   O     0.57608   0.75000   0.21956   0.00000  Uiso   1.00
O307   O     0.42392   0.74999   0.20097   0.00000  Uiso   1.00
O308   O     0.57608   0.75000   0.29904   0.00000  Uiso   1.00
Zn309  Zn    0.50000   0.75000   0.30307   0.00000  Uiso   1.00
Zn310  Zn    0.50000   0.74999   0.19693   0.00000  Uiso   1.00
C311   C     0.83416   0.66373   0.25057   0.00000  Uiso   1.00
C312   C     0.79621   0.72539   0.44297   0.00000  Uiso   1.00
C313   C     0.83408   0.74929   0.02683   0.00000  Uiso   1.00
C314   C     0.83422   0.74943   0.47340   0.00000  Uiso   1.00
C315   C     0.73374   0.75020   0.23760   0.00000  Uiso   1.00
C316   C     0.93292   0.75039   0.26237   0.00000  Uiso   1.00
C317   C     0.67874   0.75043   0.23087   0.00000  Uiso   1.00
C318   C     0.98790   0.75129   0.26902   0.00000  Uiso   1.00
C319   C     0.84597   0.54431   0.29262   0.00000  Uiso   1.00
C320   C     0.79829   0.95323   0.21723   0.00000  Uiso   1.00
C321   C     0.84545   0.59032   0.29452   0.00000  Uiso   1.00
C322   C     0.83291   0.83580   0.24954   0.00000  Uiso   1.00
C323   C     0.79601   0.90716   0.21727   0.00000  Uiso   1.00
C324   C     0.83626   0.61537   0.25149   0.00000  Uiso   1.00
C325   C     0.83344   0.88335   0.24848   0.00000  Uiso   1.00
C326   C     0.82942   0.59355   0.20772   0.00000  Uiso   1.00
C327   C     0.87289   0.90515   0.27865   0.00000  Uiso   1.00
C328   C     0.83101   0.54776   0.20639   0.00000  Uiso   1.00
C329   C     0.87551   0.95102   0.27783   0.00000  Uiso   1.00
C330   C     0.83876   0.52314   0.24878   0.00000  Uiso   1.00
C331   C     0.83794   0.97508   0.24749   0.00000  Uiso   1.00
C332   C     0.85547   0.61006   0.34102   0.00000  Uiso   1.00
C333   C     0.80764   0.71595   0.05023   0.00000  Uiso   1.00
C334   C     0.75405   0.88515   0.18665   0.00000  Uiso   1.00
C335   C     0.89180   0.81471   0.13314   0.00000  Uiso   1.00
C336   C     0.76028   0.69702   0.36477   0.00000  Uiso   1.00
C337   C     0.87222   0.77342   0.45168   0.00000  Uiso   1.00
C338   C     0.80715   0.71731   0.09957   0.00000  Uiso   1.00
C339   C     0.87058   0.77376   0.40202   0.00000  Uiso   1.00
C340   C     0.86078   0.78191   0.10504   0.00000  Uiso   1.00
C341   C     0.79711   0.72518   0.39369   0.00000  Uiso   1.00
C342   C     0.86052   0.78266   0.05557   0.00000  Uiso   1.00
H343   H     0.99160   0.74951   0.19462   0.00000  Uiso   1.00
H344   H     0.90379   0.79153   0.47244   0.00000  Uiso   1.00
H345   H     0.78632   0.69170   0.11669   0.00000  Uiso   1.00
H346   H     0.89975   0.79259   0.38608   0.00000  Uiso   1.00
H347   H     0.88095   0.80959   0.04017   0.00000  Uiso   1.00
H348   H     0.76551   0.70673   0.45687   0.00000  Uiso   1.00
H349   H     0.67501   0.75255   0.30524   0.00000  Uiso   1.00
H350   H     0.85150   0.52485   0.32542   0.00000  Uiso   1.00
H351   H     0.76864   0.97208   0.19448   0.00000  Uiso   1.00
H352   H     0.82266   0.61178   0.17424   0.00000  Uiso   1.00
H353   H     0.90201   0.88660   0.30227   0.00000  Uiso   1.00
H354   H     0.82607   0.53153   0.17227   0.00000  Uiso   1.00
H355   H     0.90670   0.96772   0.30086   0.00000  Uiso   1.00
H356   H     0.78783   0.68834   0.03119   0.00000  Uiso   1.00
N357   N     0.83333   0.74999   0.12624   0.00000  Uiso   1.00
N358   N     0.83333   0.75001   0.37377   0.00000  Uiso   1.00
N359   N     0.86364   0.62567   0.37832   0.00000  Uiso   1.00
N360   N     0.72048   0.86748   0.16218   0.00000  Uiso   1.00
N361   N     0.91706   0.84114   0.15544   0.00000  Uiso   1.00
N362   N     0.73070   0.67402   0.34185   0.00000  Uiso   1.00
O363   O     0.83334   0.68453   0.28974   0.00000  Uiso   1.00
O364   O     0.83333   0.81546   0.21026   0.00000  Uiso   1.00
O365   O     0.83334   0.68453   0.21026   0.00000  Uiso   1.00
O366   O     0.83333   0.81547   0.28974   0.00000  Uiso   1.00
O367   O     0.75725   0.75000   0.28045   0.00000  Uiso   1.00
O368   O     0.90942   0.75000   0.21956   0.00000  Uiso   1.00
O369   O     0.75725   0.74999   0.20097   0.00000  Uiso   1.00
O370   O     0.90942   0.75000   0.29904   0.00000  Uiso   1.00
Zn371  Zn    0.83333   0.75000   0.30307   0.00000  Uiso   1.00
Zn372  Zn    0.83333   0.74999   0.19693   0.00000  Uiso   1.00
C373   C     0.16749   0.16373   0.75057   0.00000  Uiso   1.00
C374   C     0.12954   0.22539   0.94297   0.00000  Uiso   1.00
C375   C     0.16741   0.24929   0.52683   0.00000  Uiso   1.00
C376   C     0.16755   0.24943   0.97340   0.00000  Uiso   1.00
C377   C     0.06707   0.25020   0.73760   0.00000  Uiso   1.00
C378   C     0.26625   0.25039   0.76237   0.00000  Uiso   1.00
C379   C     0.01207   0.25043   0.73087   0.00000  Uiso   1.00
C380   C     0.32124   0.25129   0.76902   0.00000  Uiso   1.00
C381   C     0.17930   0.04431   0.79262   0.00000  Uiso   1.00
C382   C     0.13162   0.45323   0.71723   0.00000  Uiso   1.00
C383   C     0.17878   0.09032   0.79452   0.00000  Uiso   1.00
C384   C     0.16624   0.33580   0.74954   0.00000  Uiso   1.00
C385   C     0.12934   0.40716   0.71727   0.00000  Uiso   1.00
C386   C     0.16959   0.11537   0.75149   0.00000  Uiso   1.00
C387   C     0.16677   0.38335   0.74848   0.00000  Uiso   1.00
C388   C     0.16275   0.09355   0.70772   0.00000  Uiso   1.00
C389   C     0.20622   0.40515   0.77865   0.00000  Uiso   1.00
C390   C     0.16434   0.04776   0.70639   0.00000  Uiso   1.00
C391   C     0.20885   0.45102   0.77783   0.00000  Uiso   1.00
C392   C     0.17209   0.02314   0.74878   0.00000  Uiso   1.00
C393   C     0.17128   0.47508   0.74749   0.00000  Uiso   1.00
C394   C     0.18881   0.11006   0.84102   0.00000  Uiso   1.00
C395   C     0.14098   0.21595   0.55023   0.00000  Uiso   1.00
C396   C     0.08738   0.38515   0.68665   0.00000  Uiso   1.00
C397   C     0.22513   0.31471   0.63314   0.00000  Uiso   1.00
C398   C     0.09361   0.19702   0.86477   0.00000  Uiso   1.00
C399   C     0.20555   0.27342   0.95168   0.00000  Uiso   1.00
C400   C     0.14048   0.21731   0.59957   0.00000  Uiso   1.00
C401   C     0.20392   0.27376   0.90202   0.00000  Uiso   1.00
C402   C     0.19411   0.28191   0.60504   0.00000  Uiso   1.00
C403   C     0.13044   0.22518   0.89369   0.00000  Uiso   1.00
C404   C     0.19385   0.28266   0.55557   0.00000  Uiso   1.00
H405   H     0.32494   0.24951   0.69462   0.00000  Uiso   1.00
H406   H     0.23712   0.29153   0.97244   0.00000  Uiso   1.00
H407   H     0.11965   0.19170   0.61669   0.00000  Uiso   1.00
H408   H     0.23309   0.29259   0.88608   0.00000  Uiso   1.00
H409   H     0.21429   0.30959   0.54017   0.00000  Uiso   1.00
H410   H     0.09885   0.20673   0.95687   0.00000  Uiso   1.00
H411   H     0.00834   0.25255   0.80524   0.00000  Uiso   1.00
H412   H     0.18483   0.02485   0.82542   0.00000  Uiso   1.00
H413   H     0.10197   0.47208   0.69448   0.00000  Uiso   1.00
H414   H     0.15600   0.11178   0.67424   0.00000  Uiso   1.00
H415   H     0.23534   0.38660   0.80227   0.00000  Uiso   1.00
H416   H     0.15941   0.03153   0.67227   0.00000  Uiso   1.00
H417   H     0.24004   0.46772   0.80086   0.00000  Uiso   1.00
H418   H     0.12116   0.18834   0.53119   0.00000  Uiso   1.00
N419   N     0.16667   0.24999   0.62624   0.00000  Uiso   1.00
N420   N     0.16667   0.25001   0.87377   0.00000  Uiso   1.00
N421   N     0.19697   0.12567   0.87832   0.00000  Uiso   1.00
N422   N     0.05381   0.36748   0.66218   0.00000  Uiso   1.00
N423   N     0.25039   0.34114   0.65544   0.00000  Uiso   1.00
N424   N     0.06403   0.17402   0.84185   0.00000  Uiso   1.00
O425   O     0.16667   0.18453   0.78974   0.00000  Uiso   1.00
O426   O     0.16666   0.31546   0.71026   0.00000  Uiso   1.00
O427   O     0.16667   0.18453   0.71026   0.00000  Uiso   1.00
O428   O     0.16666   0.31547   0.78974   0.00000  Uiso   1.00
O429   O     0.09058   0.25000   0.78045   0.00000  Uiso   1.00
O430   O     0.24275   0.25000   0.71956   0.00000  Uiso   1.00
O431   O     0.09058   0.24999   0.70097   0.00000  Uiso   1.00
O432   O     0.24275   0.25000   0.79904   0.00000  Uiso   1.00
Zn433  Zn    0.16667   0.25000   0.80307   0.00000  Uiso   1.00
Zn434  Zn    0.16667   0.24999   0.69693   0.00000  Uiso   1.00
C435   C     0.50083   0.16373   0.75057   0.00000  Uiso   1.00
C436   C     0.46288   0.22539   0.94297   0.00000  Uiso   1.00
C437   C     0.50074   0.24929   0.52683   0.00000  Uiso   1.00
C438   C     0.50089   0.24943   0.97340   0.00000  Uiso   1.00
C439   C     0.40041   0.25020   0.73760   0.00000  Uiso   1.00
C440   C     0.59959   0.25039   0.76237   0.00000  Uiso   1.00
C441   C     0.34541   0.25043   0.73087   0.00000  Uiso   1.00
C442   C     0.65457   0.25129   0.76902   0.00000  Uiso   1.00
C443   C     0.51263   0.04431   0.79262   0.00000  Uiso   1.00
C444   C     0.46495   0.45323   0.71723   0.00000  Uiso   1.00
C445   C     0.51211   0.09032   0.79452   0.00000  Uiso   1.00
C446   C     0.49957   0.33580   0.74954   0.00000  Uiso   1.00
C447   C     0.46267   0.40716   0.71727   0.00000  Uiso   1.00
C448   C     0.50292   0.11537   0.75149   0.00000  Uiso   1.00
C449   C     0.50010   0.38335   0.74848   0.00000  Uiso   1.00
C450   C     0.49609   0.09355   0.70772   0.00000  Uiso   1.00
C451   C     0.53955   0.40515   0.77865   0.00000  Uiso   1.00
C452   C     0.49768   0.04776   0.70639   0.00000  Uiso   1.00
C453   C     0.54218   0.45102   0.77783   0.00000  Uiso   1.00
C454   C     0.50542   0.02314   0.74878   0.00000  Uiso   1.00
C455   C     0.50461   0.47508   0.74749   0.00000  Uiso   1.00
C456   C     0.52214   0.11006   0.84102   0.00000  Uiso   1.00
C457   C     0.47431   0.21595   0.55023   0.00000  Uiso   1.00
C458   C     0.42071   0.38515   0.68665   0.00000  Uiso   1.00
C459   C     0.55846   0.31471   0.63314   0.00000  Uiso   1.00
C460   C     0.42695   0.19702   0.86477   0.00000  Uiso   1.00
C461   C     0.53889   0.27342   0.95168   0.00000  Uiso   1.00
C462   C     0.47382   0.21731   0.59957   0.00000  Uiso   1.00
C463   C     0.53725   0.27376   0.90202   0.00000  Uiso   1.00
C464   C     0.52745   0.28191   0.60504   0.00000  Uiso   1.00
C465   C     0.46378   0.22518   0.89369   0.00000  Uiso   1.00
C466   C     0.52718   0.28266   0.55557   0.00000  Uiso   1.00
H467   H     0.65827   0.24951   0.69462   0.00000  Uiso   1.00
H468   H     0.57045   0.29153   0.97244   0.00000  Uiso   1.00
H469   H     0.45298   0.19170   0.61669   0.00000  Uiso   1.00
H470   H     0.56642   0.29259   0.88608   0.00000  Uiso   1.00
H471   H     0.54762   0.30959   0.54017   0.00000  Uiso   1.00
H472   H     0.43218   0.20673   0.95687   0.00000  Uiso   1.00
H473   H     0.34167   0.25255   0.80524   0.00000  Uiso   1.00
H474   H     0.51817   0.02485   0.82542   0.00000  Uiso   1.00
H475   H     0.43530   0.47208   0.69448   0.00000  Uiso   1.00
H476   H     0.48933   0.11178   0.67424   0.00000  Uiso   1.00
H477   H     0.56868   0.38660   0.80227   0.00000  Uiso   1.00
H478   H     0.49274   0.03153   0.67227   0.00000  Uiso   1.00
H479   H     0.57337   0.46772   0.80086   0.00000  Uiso   1.00
H480   H     0.45449   0.18834   0.53119   0.00000  Uiso   1.00
N481   N     0.50000   0.24999   0.62624   0.00000  Uiso   1.00
N482   N     0.50000   0.25001   0.87377   0.00000  Uiso   1.00
N483   N     0.53031   0.12567   0.87832   0.00000  Uiso   1.00
N484   N     0.38714   0.36748   0.66218   0.00000  Uiso   1.00
N485   N     0.58372   0.34114   0.65544   0.00000  Uiso   1.00
N486   N     0.39737   0.17402   0.84185   0.00000  Uiso   1.00
O487   O     0.50000   0.18453   0.78974   0.00000  Uiso   1.00
O488   O     0.50000   0.31546   0.71026   0.00000  Uiso   1.00
O489   O     0.50000   0.18453   0.71026   0.00000  Uiso   1.00
O490   O     0.50000   0.31547   0.78974   0.00000  Uiso   1.00
O491   O     0.42392   0.25000   0.78045   0.00000  Uiso   1.00
O492   O     0.57608   0.25000   0.71956   0.00000  Uiso   1.00
O493   O     0.42392   0.24999   0.70097   0.00000  Uiso   1.00
O494   O     0.57608   0.25000   0.79904   0.00000  Uiso   1.00
Zn495  Zn    0.50000   0.25000   0.80307   0.00000  Uiso   1.00
Zn496  Zn    0.50000   0.24999   0.69693   0.00000  Uiso   1.00
C497   C     0.83416   0.16373   0.75057   0.00000  Uiso   1.00
C498   C     0.79621   0.22539   0.94297   0.00000  Uiso   1.00
C499   C     0.83408   0.24929   0.52683   0.00000  Uiso   1.00
C500   C     0.83422   0.24943   0.97340   0.00000  Uiso   1.00
C501   C     0.73374   0.25020   0.73760   0.00000  Uiso   1.00
C502   C     0.93292   0.25039   0.76237   0.00000  Uiso   1.00
C503   C     0.67874   0.25043   0.73087   0.00000  Uiso   1.00
C504   C     0.98790   0.25129   0.76902   0.00000  Uiso   1.00
C505   C     0.84597   0.04431   0.79262   0.00000  Uiso   1.00
C506   C     0.79829   0.45323   0.71723   0.00000  Uiso   1.00
C507   C     0.84545   0.09032   0.79452   0.00000  Uiso   1.00
C508   C     0.83291   0.33580   0.74954   0.00000  Uiso   1.00
C509   C     0.79601   0.40716   0.71727   0.00000  Uiso   1.00
C510   C     0.83626   0.11537   0.75149   0.00000  Uiso   1.00
C511   C     0.83344   0.38335   0.74848   0.00000  Uiso   1.00
C512   C     0.82942   0.09355   0.70772   0.00000  Uiso   1.00
C513   C     0.87289   0.40515   0.77865   0.00000  Uiso   1.00
C514   C     0.83101   0.04776   0.70639   0.00000  Uiso   1.00
C515   C     0.87551   0.45102   0.77783   0.00000  Uiso   1.00
C516   C     0.83876   0.02314   0.74878   0.00000  Uiso   1.00
C517   C     0.83794   0.47508   0.74749   0.00000  Uiso   1.00
C518   C     0.85547   0.11006   0.84102   0.00000  Uiso   1.00
C519   C     0.80764   0.21595   0.55023   0.00000  Uiso   1.00
C520   C     0.75405   0.38515   0.68665   0.00000  Uiso   1.00
C521   C     0.89180   0.31471   0.63314   0.00000  Uiso   1.00
C522   C     0.76028   0.19702   0.86477   0.00000  Uiso   1.00
C523   C     0.87222   0.27342   0.95168   0.00000  Uiso   1.00
C524   C     0.80715   0.21731   0.59957   0.00000  Uiso   1.00
C525   C     0.87058   0.27376   0.90202   0.00000  Uiso   1.00
C526   C     0.86078   0.28191   0.60504   0.00000  Uiso   1.00
C527   C     0.79711   0.22518   0.89369   0.00000  Uiso   1.00
C528   C     0.86052   0.28266   0.55557   0.00000  Uiso   1.00
H529   H     0.99160   0.24951   0.69462   0.00000  Uiso   1.00
H530   H     0.90379   0.29153   0.97244   0.00000  Uiso   1.00
H531   H     0.78632   0.19170   0.61669   0.00000  Uiso   1.00
H532   H     0.89975   0.29259   0.88608   0.00000  Uiso   1.00
H533   H     0.88095   0.30959   0.54017   0.00000  Uiso   1.00
H534   H     0.76551   0.20673   0.95687   0.00000  Uiso   1.00
H535   H     0.67501   0.25255   0.80524   0.00000  Uiso   1.00
H536   H     0.85150   0.02485   0.82542   0.00000  Uiso   1.00
H537   H     0.76864   0.47208   0.69448   0.00000  Uiso   1.00
H538   H     0.82266   0.11178   0.67424   0.00000  Uiso   1.00
H539   H     0.90201   0.38660   0.80227   0.00000  Uiso   1.00
H540   H     0.82607   0.03153   0.67227   0.00000  Uiso   1.00
H541   H     0.90670   0.46772   0.80086   0.00000  Uiso   1.00
H542   H     0.78783   0.18834   0.53119   0.00000  Uiso   1.00
N543   N     0.83333   0.24999   0.62624   0.00000  Uiso   1.00
N544   N     0.83333   0.25001   0.87377   0.00000  Uiso   1.00
N545   N     0.86364   0.12567   0.87832   0.00000  Uiso   1.00
N546   N     0.72048   0.36748   0.66218   0.00000  Uiso   1.00
N547   N     0.91706   0.34114   0.65544   0.00000  Uiso   1.00
N548   N     0.73070   0.17402   0.84185   0.00000  Uiso   1.00
O549   O     0.83334   0.18453   0.78974   0.00000  Uiso   1.00
O550   O     0.83333   0.31546   0.71026   0.00000  Uiso   1.00
O551   O     0.83334   0.18453   0.71026   0.00000  Uiso   1.00
O552   O     0.83333   0.31547   0.78974   0.00000  Uiso   1.00
O553   O     0.75725   0.25000   0.78045   0.00000  Uiso   1.00
O554   O     0.90942   0.25000   0.71956   0.00000  Uiso   1.00
O555   O     0.75725   0.24999   0.70097   0.00000  Uiso   1.00
O556   O     0.90942   0.25000   0.79904   0.00000  Uiso   1.00
Zn557  Zn    0.83333   0.25000   0.80307   0.00000  Uiso   1.00
Zn558  Zn    0.83333   0.24999   0.69693   0.00000  Uiso   1.00
C559   C     0.16749   0.66373   0.75057   0.00000  Uiso   1.00
C560   C     0.12954   0.72539   0.94297   0.00000  Uiso   1.00
C561   C     0.16741   0.74929   0.52683   0.00000  Uiso   1.00
C562   C     0.16755   0.74943   0.97340   0.00000  Uiso   1.00
C563   C     0.06707   0.75020   0.73760   0.00000  Uiso   1.00
C564   C     0.26625   0.75039   0.76237   0.00000  Uiso   1.00
C565   C     0.01207   0.75043   0.73087   0.00000  Uiso   1.00
C566   C     0.32124   0.75129   0.76902   0.00000  Uiso   1.00
C567   C     0.17930   0.54431   0.79262   0.00000  Uiso   1.00
C568   C     0.13162   0.95323   0.71723   0.00000  Uiso   1.00
C569   C     0.17878   0.59032   0.79452   0.00000  Uiso   1.00
C570   C     0.16624   0.83580   0.74954   0.00000  Uiso   1.00
C571   C     0.12934   0.90716   0.71727   0.00000  Uiso   1.00
C572   C     0.16959   0.61537   0.75149   0.00000  Uiso   1.00
C573   C     0.16677   0.88335   0.74848   0.00000  Uiso   1.00
C574   C     0.16275   0.59355   0.70772   0.00000  Uiso   1.00
C575   C     0.20622   0.90515   0.77865   0.00000  Uiso   1.00
C576   C     0.16434   0.54776   0.70639   0.00000  Uiso   1.00
C577   C     0.20885   0.95102   0.77783   0.00000  Uiso   1.00
C578   C     0.17209   0.52314   0.74878   0.00000  Uiso   1.00
C579   C     0.17128   0.97508   0.74749   0.00000  Uiso   1.00
C580   C     0.18881   0.61006   0.84102   0.00000  Uiso   1.00
C581   C     0.14098   0.71595   0.55023   0.00000  Uiso   1.00
C582   C     0.08738   0.88515   0.68665   0.00000  Uiso   1.00
C583   C     0.22513   0.81471   0.63314   0.00000  Uiso   1.00
C584   C     0.09361   0.69702   0.86477   0.00000  Uiso   1.00
C585   C     0.20555   0.77342   0.95168   0.00000  Uiso   1.00
C586   C     0.14048   0.71731   0.59957   0.00000  Uiso   1.00
C587   C     0.20392   0.77376   0.90202   0.00000  Uiso   1.00
C588   C     0.19411   0.78191   0.60504   0.00000  Uiso   1.00
C589   C     0.13044   0.72518   0.89369   0.00000  Uiso   1.00
C590   C     0.19385   0.78266   0.55557   0.00000  Uiso   1.00
H591   H     0.32494   0.74951   0.69462   0.00000  Uiso   1.00
H592   H     0.23712   0.79153   0.97244   0.00000  Uiso   1.00
H593   H     0.11965   0.69170   0.61669   0.00000  Uiso   1.00
H594   H     0.23309   0.79259   0.88608   0.00000  Uiso   1.00
H595   H     0.21429   0.80959   0.54017   0.00000  Uiso   1.00
H596   H     0.09885   0.70673   0.95687   0.00000  Uiso   1.00
H597   H     0.00834   0.75255   0.80524   0.00000  Uiso   1.00
H598   H     0.18483   0.52485   0.82542   0.00000  Uiso   1.00
H599   H     0.10197   0.97208   0.69448   0.00000  Uiso   1.00
H600   H     0.15600   0.61178   0.67424   0.00000  Uiso   1.00
H601   H     0.23534   0.88660   0.80227   0.00000  Uiso   1.00
H602   H     0.15941   0.53153   0.67227   0.00000  Uiso   1.00
H603   H     0.24004   0.96772   0.80086   0.00000  Uiso   1.00
H604   H     0.12116   0.68834   0.53119   0.00000  Uiso   1.00
N605   N     0.16667   0.74999   0.62624   0.00000  Uiso   1.00
N606   N     0.16667   0.75001   0.87377   0.00000  Uiso   1.00
N607   N     0.19697   0.62567   0.87832   0.00000  Uiso   1.00
N608   N     0.05381   0.86748   0.66218   0.00000  Uiso   1.00
N609   N     0.25039   0.84114   0.65544   0.00000  Uiso   1.00
N610   N     0.06403   0.67402   0.84185   0.00000  Uiso   1.00
O611   O     0.16667   0.68453   0.78974   0.00000  Uiso   1.00
O612   O     0.16666   0.81546   0.71026   0.00000  Uiso   1.00
O613   O     0.16667   0.68453   0.71026   0.00000  Uiso   1.00
O614   O     0.16666   0.81547   0.78974   0.00000  Uiso   1.00
O615   O     0.09058   0.75000   0.78045   0.00000  Uiso   1.00
O616   O     0.24275   0.75000   0.71956   0.00000  Uiso   1.00
O617   O     0.09058   0.74999   0.70097   0.00000  Uiso   1.00
O618   O     0.24275   0.75000   0.79904   0.00000  Uiso   1.00
Zn619  Zn    0.16667   0.75000   0.80307   0.00000  Uiso   1.00
Zn620  Zn    0.16667   0.74999   0.69693   0.00000  Uiso   1.00
C621   C     0.50083   0.66373   0.75057   0.00000  Uiso   1.00
C622   C     0.46288   0.72539   0.94297   0.00000  Uiso   1.00
C623   C     0.50074   0.74929   0.52683   0.00000  Uiso   1.00
C624   C     0.50089   0.74943   0.97340   0.00000  Uiso   1.00
C625   C     0.40041   0.75020   0.73760   0.00000  Uiso   1.00
C626   C     0.59959   0.75039   0.76237   0.00000  Uiso   1.00
C627   C     0.34541   0.75043   0.73087   0.00000  Uiso   1.00
C628   C     0.65457   0.75129   0.76902   0.00000  Uiso   1.00
C629   C     0.51263   0.54431   0.79262   0.00000  Uiso   1.00
C630   C     0.46495   0.95323   0.71723   0.00000  Uiso   1.00
C631   C     0.51211   0.59032   0.79452   0.00000  Uiso   1.00
C632   C     0.49957   0.83580   0.74954   0.00000  Uiso   1.00
C633   C     0.46267   0.90716   0.71727   0.00000  Uiso   1.00
C634   C     0.50292   0.61537   0.75149   0.00000  Uiso   1.00
C635   C     0.50010   0.88335   0.74848   0.00000  Uiso   1.00
C636   C     0.49609   0.59355   0.70772   0.00000  Uiso   1.00
C637   C     0.53955   0.90515   0.77865   0.00000  Uiso   1.00
C638   C     0.49768   0.54776   0.70639   0.00000  Uiso   1.00
C639   C     0.54218   0.95102   0.77783   0.00000  Uiso   1.00
C640   C     0.50542   0.52314   0.74878   0.00000  Uiso   1.00
C641   C     0.50461   0.97508   0.74749   0.00000  Uiso   1.00
C642   C     0.52214   0.61006   0.84102   0.00000  Uiso   1.00
C643   C     0.47431   0.71595   0.55023   0.00000  Uiso   1.00
C644   C     0.42071   0.88515   0.68665   0.00000  Uiso   1.00
C645   C     0.55846   0.81471   0.63314   0.00000  Uiso   1.00
C646   C     0.42695   0.69702   0.86477   0.00000  Uiso   1.00
C647   C     0.53889   0.77342   0.95168   0.00000  Uiso   1.00
C648   C     0.47382   0.71731   0.59957   0.00000  Uiso   1.00
C649   C     0.53725   0.77376   0.90202   0.00000  Uiso   1.00
C650   C     0.52745   0.78191   0.60504   0.00000  Uiso   1.00
C651   C     0.46378   0.72518   0.89369   0.00000  Uiso   1.00
C652   C     0.52718   0.78266   0.55557   0.00000  Uiso   1.00
H653   H     0.65827   0.74951   0.69462   0.00000  Uiso   1.00
H654   H     0.57045   0.79153   0.97244   0.00000  Uiso   1.00
H655   H     0.45298   0.69170   0.61669   0.00000  Uiso   1.00
H656   H     0.56642   0.79259   0.88608   0.00000  Uiso   1.00
H657   H     0.54762   0.80959   0.54017   0.00000  Uiso   1.00
H658   H     0.43218   0.70673   0.95687   0.00000  Uiso   1.00
H659   H     0.34167   0.75255   0.80524   0.00000  Uiso   1.00
H660   H     0.51817   0.52485   0.82542   0.00000  Uiso   1.00
H661   H     0.43530   0.97208   0.69448   0.00000  Uiso   1.00
H662   H     0.48933   0.61178   0.67424   0.00000  Uiso   1.00
H663   H     0.56868   0.88660   0.80227   0.00000  Uiso   1.00
H664   H     0.49274   0.53153   0.67227   0.00000  Uiso   1.00
H665   H     0.57337   0.96772   0.80086   0.00000  Uiso   1.00
H666   H     0.45449   0.68834   0.53119   0.00000  Uiso   1.00
N667   N     0.50000   0.74999   0.62624   0.00000  Uiso   1.00
N668   N     0.50000   0.75001   0.87377   0.00000  Uiso   1.00
N669   N     0.53031   0.62567   0.87832   0.00000  Uiso   1.00
N670   N     0.38714   0.86748   0.66218   0.00000  Uiso   1.00
N671   N     0.58372   0.84114   0.65544   0.00000  Uiso   1.00
N672   N     0.39737   0.67402   0.84185   0.00000  Uiso   1.00
O673   O     0.50000   0.68453   0.78974   0.00000  Uiso   1.00
O674   O     0.50000   0.81546   0.71026   0.00000  Uiso   1.00
O675   O     0.50000   0.68453   0.71026   0.00000  Uiso   1.00
O676   O     0.50000   0.81547   0.78974   0.00000  Uiso   1.00
O677   O     0.42392   0.75000   0.78045   0.00000  Uiso   1.00
O678   O     0.57608   0.75000   0.71956   0.00000  Uiso   1.00
O679   O     0.42392   0.74999   0.70097   0.00000  Uiso   1.00
O680   O     0.57608   0.75000   0.79904   0.00000  Uiso   1.00
Zn681  Zn    0.50000   0.75000   0.80307   0.00000  Uiso   1.00
Zn682  Zn    0.50000   0.74999   0.69693   0.00000  Uiso   1.00
C683   C     0.83416   0.66373   0.75057   0.00000  Uiso   1.00
C684   C     0.79621   0.72539   0.94297   0.00000  Uiso   1.00
C685   C     0.83408   0.74929   0.52683   0.00000  Uiso   1.00
C686   C     0.83422   0.74943   0.97340   0.00000  Uiso   1.00
C687   C     0.73374   0.75020   0.73760   0.00000  Uiso   1.00
C688   C     0.93292   0.75039   0.76237   0.00000  Uiso   1.00
C689   C     0.67874   0.75043   0.73087   0.00000  Uiso   1.00
C690   C     0.98790   0.75129   0.76902   0.00000  Uiso   1.00
C691   C     0.84597   0.54431   0.79262   0.00000  Uiso   1.00
C692   C     0.79829   0.95323   0.71723   0.00000  Uiso   1.00
C693   C     0.84545   0.59032   0.79452   0.00000  Uiso   1.00
C694   C     0.83291   0.83580   0.74954   0.00000  Uiso   1.00
C695   C     0.79601   0.90716   0.71727   0.00000  Uiso   1.00
C696   C     0.83626   0.61537   0.75149   0.00000  Uiso   1.00
C697   C     0.83344   0.88335   0.74848   0.00000  Uiso   1.00
C698   C     0.82942   0.59355   0.70772   0.00000  Uiso   1.00
C699   C     0.87289   0.90515   0.77865   0.00000  Uiso   1.00
C700   C     0.83101   0.54776   0.70639   0.00000  Uiso   1.00
C701   C     0.87551   0.95102   0.77783   0.00000  Uiso   1.00
C702   C     0.83876   0.52314   0.74878   0.00000  Uiso   1.00
C703   C     0.83794   0.97508   0.74749   0.00000  Uiso   1.00
C704   C     0.85547   0.61006   0.84102   0.00000  Uiso   1.00
C705   C     0.80764   0.71595   0.55023   0.00000  Uiso   1.00
C706   C     0.75405   0.88515   0.68665   0.00000  Uiso   1.00
C707   C     0.89180   0.81471   0.63314   0.00000  Uiso   1.00
C708   C     0.76028   0.69702   0.86477   0.00000  Uiso   1.00
C709   C     0.87222   0.77342   0.95168   0.00000  Uiso   1.00
C710   C     0.80715   0.71731   0.59957   0.00000  Uiso   1.00
C711   C     0.87058   0.77376   0.90202   0.00000  Uiso   1.00
C712   C     0.86078   0.78191   0.60504   0.00000  Uiso   1.00
C713   C     0.79711   0.72518   0.89369   0.00000  Uiso   1.00
C714   C     0.86052   0.78266   0.55557   0.00000  Uiso   1.00
H715   H     0.99160   0.74951   0.69462   0.00000  Uiso   1.00
H716   H     0.90379   0.79153   0.97244   0.00000  Uiso   1.00
H717   H     0.78632   0.69170   0.61669   0.00000  Uiso   1.00
H718   H     0.89975   0.79259   0.88608   0.00000  Uiso   1.00
H719   H     0.88095   0.80959   0.54017   0.00000  Uiso   1.00
H720   H     0.76551   0.70673   0.95687   0.00000  Uiso   1.00
H721   H     0.67501   0.75255   0.80524   0.00000  Uiso   1.00
H722   H     0.85150   0.52485   0.82542   0.00000  Uiso   1.00
H723   H     0.76864   0.97208   0.69448   0.00000  Uiso   1.00
H724   H     0.82266   0.61178   0.67424   0.00000  Uiso   1.00
H725   H     0.90201   0.88660   0.80227   0.00000  Uiso   1.00
H726   H     0.82607   0.53153   0.67227   0.00000  Uiso   1.00
H727   H     0.90670   0.96772   0.80086   0.00000  Uiso   1.00
H728   H     0.78783   0.68834   0.53119   0.00000  Uiso   1.00
N729   N     0.83333   0.74999   0.62624   0.00000  Uiso   1.00
N730   N     0.83333   0.75001   0.87377   0.00000  Uiso   1.00
N731   N     0.86364   0.62567   0.87832   0.00000  Uiso   1.00
N732   N     0.72048   0.86748   0.66218   0.00000  Uiso   1.00
N733   N     0.91706   0.84114   0.65544   0.00000  Uiso   1.00
N734   N     0.73070   0.67402   0.84185   0.00000  Uiso   1.00
O735   O     0.83334   0.68453   0.78974   0.00000  Uiso   1.00
O736   O     0.83333   0.81546   0.71026   0.00000  Uiso   1.00
O737   O     0.83334   0.68453   0.71026   0.00000  Uiso   1.00
O738   O     0.83333   0.81547   0.78974   0.00000  Uiso   1.00
O739   O     0.75725   0.75000   0.78045   0.00000  Uiso   1.00
O740   O     0.90942   0.75000   0.71956   0.00000  Uiso   1.00
O741   O     0.75725   0.74999   0.70097   0.00000  Uiso   1.00
O742   O     0.90942   0.75000   0.79904   0.00000  Uiso   1.00
Zn743  Zn    0.83333   0.75000   0.80307   0.00000  Uiso   1.00
Zn744  Zn    0.83333   0.74999   0.69693   0.00000  Uiso   1.00
loop_
_geom_bond_atom_site_label_1
_geom_bond_atom_site_label_2
_geom_bond_distance
_geom_bond_site_symmetry_2
_ccdc_geom_bond_type
C1     O55     1.294   .     A
C1     O53     1.290   .     A
C1     C14     1.454   .     S
C2     C4      1.409   .     A
C2     H38     1.081   .     S
C2     C31     1.406   .     A
C3     C23     1.415   .     A
C3     C32     1.409   .     A
C3     C376    1.520   1_554 S
C4     C27     1.415   .     A
C4     C375    1.520   .     S
C5     O57     1.279   .     A
C5     C7      1.402   .     S
C5     O59     1.280   .     A
C6     O60     1.280   .     A
C6     C8      1.401   .     S
C6     O58     1.279   .     A
C7     C132    1.328   1_455 S
C7     H157    1.088   1_455 S
C8     C69     1.328   .     S
C8     H101    1.088   .     S
C9     C11     1.385   .     A
C9     C20     1.397   .     A
C9     H40     1.085   .     S
C10    H41     1.085   .     S
C10    C21     1.400   .     A
C10    C13     1.385   .     A
C11    C22     1.446   .     S
C11    C14     1.417   .     A
C12    C15     1.428   .     S
C12    O56     1.286   .     A
C12    O54     1.284   .     A
C13    C15     1.405   .     A
C13    C24     1.446   .     S
C14    C16     1.404   .     A
C15    C17     1.395   .     A
C16    C18     1.378   .     A
C16    H42     1.083   .     S
C17    H43     1.084   .     S
C17    C19     1.379   .     A
C18    H44     1.084   .     S
C18    C20     1.394   .     A
C19    C21     1.399   .     A
C19    H45     1.083   .     S
C20    C207    1.445   1_545 S
C21    C206    1.445   .     S
C22    N49     1.158   .     T
C23    H46     1.080   .     S
C23    C28     1.407   .     A
C24    N50     1.157   .     T
C25    N51     1.158   .     T
C25    C30     1.438   .     S
C26    N52     1.158   .     T
C26    C31     1.438   .     S
C27    C29     1.407   .     A
C27    H34     1.080   .     S
C28    N47     1.361   .     A
C28    H35     1.082   .     S
C29    H36     1.082   .     S
C29    N48     1.361   .     A
C30    C32     1.406   .     A
C30    N47     1.368   .     A
C31    N48     1.368   .     A
C32    H37     1.081   .     S
H33    C69     1.088   .     S
H39    C132    1.088   1_455 S
N47    Zn62    2.011   .     S
N48    Zn61    2.011   .     S
O53    Zn61    2.009   .     S
O54    Zn62    2.009   .     S
O55    Zn62    1.997   .     S
O56    Zn61    1.997   .     S
O57    Zn61    1.971   .     S
O58    Zn62    1.971   .     S
O59    Zn62    1.980   .     S
O60    Zn61    1.980   .     S
C63    O117    1.294   .     A
C63    O115    1.290   .     A
C63    C76     1.454   .     S
C64    C66     1.409   .     A
C64    H100    1.081   .     S
C64    C93     1.406   .     A
C65    C85     1.415   .     A
C65    C94     1.409   .     A
C65    C438    1.520   1_554 S
C66    C89     1.415   .     A
C66    C437    1.520   .     S
C67    O119    1.279   .     A
C67    C69     1.402   .     S
C67    O121    1.280   .     A
C68    O122    1.280   .     A
C68    C70     1.401   .     S
C68    O120    1.279   .     A
C70    C131    1.328   .     S
C70    H163    1.088   .     S
C71    C73     1.385   .     A
C71    C82     1.397   .     A
C71    H102    1.085   .     S
C72    H103    1.085   .     S
C72    C83     1.400   .     A
C72    C75     1.385   .     A
C73    C84     1.446   .     S
C73    C76     1.417   .     A
C74    C77     1.428   .     S
C74    O118    1.286   .     A
C74    O116    1.284   .     A
C75    C77     1.405   .     A
C75    C86     1.446   .     S
C76    C78     1.404   .     A
C77    C79     1.395   .     A
C78    C80     1.378   .     A
C78    H104    1.083   .     S
C79    H105    1.084   .     S
C79    C81     1.379   .     A
C80    H106    1.084   .     S
C80    C82     1.394   .     A
C81    C83     1.399   .     A
C81    H107    1.083   .     S
C82    C269    1.445   1_545 S
C83    C268    1.445   .     S
C84    N111    1.158   .     T
C85    H108    1.080   .     S
C85    C90     1.407   .     A
C86    N112    1.157   .     T
C87    N113    1.158   .     T
C87    C92     1.438   .     S
C88    N114    1.158   .     T
C88    C93     1.438   .     S
C89    C91     1.407   .     A
C89    H96     1.080   .     S
C90    N109    1.361   .     A
C90    H97     1.082   .     S
C91    H98     1.082   .     S
C91    N110    1.361   .     A
C92    C94     1.406   .     A
C92    N109    1.368   .     A
C93    N110    1.368   .     A
C94    H99     1.081   .     S
H95    C131    1.088   .     S
N109   Zn124   2.011   .     S
N110   Zn123   2.011   .     S
O115   Zn123   2.009   .     S
O116   Zn124   2.009   .     S
O117   Zn124   1.997   .     S
O118   Zn123   1.997   .     S
O119   Zn123   1.971   .     S
O120   Zn124   1.971   .     S
O121   Zn124   1.980   .     S
O122   Zn123   1.980   .     S
C125   O179    1.294   .     A
C125   O177    1.290   .     A
C125   C138    1.454   .     S
C126   C128    1.409   .     A
C126   H162    1.081   .     S
C126   C155    1.406   .     A
C127   C147    1.415   .     A
C127   C156    1.409   .     A
C127   C500    1.520   1_554 S
C128   C151    1.415   .     A
C128   C499    1.520   .     S
C129   O181    1.279   .     A
C129   C131    1.402   .     S
C129   O183    1.280   .     A
C130   O184    1.280   .     A
C130   C132    1.401   .     S
C130   O182    1.279   .     A
C132   C7      1.328   1_655 S
C132   H39     1.088   1_655 S
C133   C135    1.385   .     A
C133   C144    1.397   .     A
C133   H164    1.085   .     S
C134   H165    1.085   .     S
C134   C145    1.400   .     A
C134   C137    1.385   .     A
C135   C146    1.446   .     S
C135   C138    1.417   .     A
C136   C139    1.428   .     S
C136   O180    1.286   .     A
C136   O178    1.284   .     A
C137   C139    1.405   .     A
C137   C148    1.446   .     S
C138   C140    1.404   .     A
C139   C141    1.395   .     A
C140   C142    1.378   .     A
C140   H166    1.083   .     S
C141   H167    1.084   .     S
C141   C143    1.379   .     A
C142   H168    1.084   .     S
C142   C144    1.394   .     A
C143   C145    1.399   .     A
C143   H169    1.083   .     S
C144   C331    1.445   1_545 S
C145   C330    1.445   .     S
C146   N173    1.158   .     T
C147   H170    1.080   .     S
C147   C152    1.407   .     A
C148   N174    1.157   .     T
C149   N175    1.158   .     T
C149   C154    1.438   .     S
C150   N176    1.158   .     T
C150   C155    1.438   .     S
C151   C153    1.407   .     A
C151   H158    1.080   .     S
C152   N171    1.361   .     A
C152   H159    1.082   .     S
C153   H160    1.082   .     S
C153   N172    1.361   .     A
C154   C156    1.406   .     A
C154   N171    1.368   .     A
C155   N172    1.368   .     A
C156   H161    1.081   .     S
H157   C7      1.088   1_655 S
N171   Zn186   2.011   .     S
N172   Zn185   2.011   .     S
O177   Zn185   2.009   .     S
O178   Zn186   2.009   .     S
O179   Zn186   1.997   .     S
O180   Zn185   1.997   .     S
O181   Zn185   1.971   .     S
O182   Zn186   1.971   .     S
O183   Zn186   1.980   .     S
O184   Zn185   1.980   .     S
C187   O241    1.294   .     A
C187   O239    1.290   .     A
C187   C200    1.454   .     S
C188   C190    1.409   .     A
C188   H224    1.081   .     S
C188   C217    1.406   .     A
C189   C209    1.415   .     A
C189   C218    1.409   .     A
C189   C562    1.520   1_554 S
C190   C213    1.415   .     A
C190   C561    1.520   .     S
C191   O243    1.279   .     A
C191   C193    1.402   .     S
C191   O245    1.280   .     A
C192   O246    1.280   .     A
C192   C194    1.401   .     S
C192   O244    1.279   .     A
C193   C318    1.328   1_455 S
C193   H343    1.088   1_455 S
C194   C255    1.328   .     S
C194   H287    1.088   .     S
C195   C197    1.385   .     A
C195   C206    1.397   .     A
C195   H226    1.085   .     S
C196   H227    1.085   .     S
C196   C207    1.400   .     A
C196   C199    1.385   .     A
C197   C208    1.446   .     S
C197   C200    1.417   .     A
C198   C201    1.428   .     S
C198   O242    1.286   .     A
C198   O240    1.284   .     A
C199   C201    1.405   .     A
C199   C210    1.446   .     S
C200   C202    1.404   .     A
C201   C203    1.395   .     A
C202   C204    1.378   .     A
C202   H228    1.083   .     S
C203   H229    1.084   .     S
C203   C205    1.379   .     A
C204   H230    1.084   .     S
C204   C206    1.394   .     A
C205   C207    1.399   .     A
C205   H231    1.083   .     S
C207   C20     1.445   1_565 S
C208   N235    1.158   .     T
C209   H232    1.080   .     S
C209   C214    1.407   .     A
C210   N236    1.157   .     T
C211   N237    1.158   .     T
C211   C216    1.438   .     S
C212   N238    1.158   .     T
C212   C217    1.438   .     S
C213   C215    1.407   .     A
C213   H220    1.080   .     S
C214   N233    1.361   .     A
C214   H221    1.082   .     S
C215   H222    1.082   .     S
C215   N234    1.361   .     A
C216   C218    1.406   .     A
C216   N233    1.368   .     A
C217   N234    1.368   .     A
C218   H223    1.081   .     S
H219   C255    1.088   .     S
H225   C318    1.088   1_455 S
N233   Zn248   2.011   .     S
N234   Zn247   2.011   .     S
O239   Zn247   2.009   .     S
O240   Zn248   2.009   .     S
O241   Zn248   1.997   .     S
O242   Zn247   1.997   .     S
O243   Zn247   1.971   .     S
O244   Zn248   1.971   .     S
O245   Zn248   1.980   .     S
O246   Zn247   1.980   .     S
C249   O303    1.294   .     A
C249   O301    1.290   .     A
C249   C262    1.454   .     S
C250   C252    1.409   .     A
C250   H286    1.081   .     S
C250   C279    1.406   .     A
C251   C271    1.415   .     A
C251   C280    1.409   .     A
C251   C624    1.520   1_554 S
C252   C275    1.415   .     A
C252   C623    1.520   .     S
C253   O305    1.279   .     A
C253   C255    1.402   .     S
C253   O307    1.280   .     A
C254   O308    1.280   .     A
C254   C256    1.401   .     S
C254   O306    1.279   .     A
C256   C317    1.328   .     S
C256   H349    1.088   .     S
C257   C259    1.385   .     A
C257   C268    1.397   .     A
C257   H288    1.085   .     S
C258   H289    1.085   .     S
C258   C269    1.400   .     A
C258   C261    1.385   .     A
C259   C270    1.446   .     S
C259   C262    1.417   .     A
C260   C263    1.428   .     S
C260   O304    1.286   .     A
C260   O302    1.284   .     A
C261   C263    1.405   .     A
C261   C272    1.446   .     S
C262   C264    1.404   .     A
C263   C265    1.395   .     A
C264   C266    1.378   .     A
C264   H290    1.083   .     S
C265   H291    1.084   .     S
C265   C267    1.379   .     A
C266   H292    1.084   .     S
C266   C268    1.394   .     A
C267   C269    1.399   .     A
C267   H293    1.083   .     S
C269   C82     1.445   1_565 S
C270   N297    1.158   .     T
C271   H294    1.080   .     S
C271   C276    1.407   .     A
C272   N298    1.157   .     T
C273   N299    1.158   .     T
C273   C278    1.438   .     S
C274   N300    1.158   .     T
C274   C279    1.438   .     S
C275   C277    1.407   .     A
C275   H282    1.080   .     S
C276   N295    1.361   .     A
C276   H283    1.082   .     S
C277   H284    1.082   .     S
C277   N296    1.361   .     A
C278   C280    1.406   .     A
C278   N295    1.368   .     A
C279   N296    1.368   .     A
C280   H285    1.081   .     S
H281   C317    1.088   .     S
N295   Zn310   2.011   .     S
N296   Zn309   2.011   .     S
O301   Zn309   2.009   .     S
O302   Zn310   2.009   .     S
O303   Zn310   1.997   .     S
O304   Zn309   1.997   .     S
O305   Zn309   1.971   .     S
O306   Zn310   1.971   .     S
O307   Zn310   1.980   .     S
O308   Zn309   1.980   .     S
C311   O365    1.294   .     A
C311   O363    1.290   .     A
C311   C324    1.454   .     S
C312   C314    1.409   .     A
C312   H348    1.081   .     S
C312   C341    1.406   .     A
C313   C333    1.415   .     A
C313   C342    1.409   .     A
C313   C686    1.520   1_554 S
C314   C337    1.415   .     A
C314   C685    1.520   .     S
C315   O367    1.279   .     A
C315   C317    1.402   .     S
C315   O369    1.280   .     A
C316   O370    1.280   .     A
C316   C318    1.401   .     S
C316   O368    1.279   .     A
C318   C193    1.328   1_655 S
C318   H225    1.088   1_655 S
C319   C321    1.385   .     A
C319   C330    1.397   .     A
C319   H350    1.085   .     S
C320   H351    1.085   .     S
C320   C331    1.400   .     A
C320   C323    1.385   .     A
C321   C332    1.446   .     S
C321   C324    1.417   .     A
C322   C325    1.428   .     S
C322   O366    1.286   .     A
C322   O364    1.284   .     A
C323   C325    1.405   .     A
C323   C334    1.446   .     S
C324   C326    1.404   .     A
C325   C327    1.395   .     A
C326   C328    1.378   .     A
C326   H352    1.083   .     S
C327   H353    1.084   .     S
C327   C329    1.379   .     A
C328   H354    1.084   .     S
C328   C330    1.394   .     A
C329   C331    1.399   .     A
C329   H355    1.083   .     S
C331   C144    1.445   1_565 S
C332   N359    1.158   .     T
C333   H356    1.080   .     S
C333   C338    1.407   .     A
C334   N360    1.157   .     T
C335   N361    1.158   .     T
C335   C340    1.438   .     S
C336   N362    1.158   .     T
C336   C341    1.438   .     S
C337   C339    1.407   .     A
C337   H344    1.080   .     S
C338   N357    1.361   .     A
C338   H345    1.082   .     S
C339   H346    1.082   .     S
C339   N358    1.361   .     A
C340   C342    1.406   .     A
C340   N357    1.368   .     A
C341   N358    1.368   .     A
C342   H347    1.081   .     S
H343   C193    1.088   1_655 S
N357   Zn372   2.011   .     S
N358   Zn371   2.011   .     S
O363   Zn371   2.009   .     S
O364   Zn372   2.009   .     S
O365   Zn372   1.997   .     S
O366   Zn371   1.997   .     S
O367   Zn371   1.971   .     S
O368   Zn372   1.971   .     S
O369   Zn372   1.980   .     S
O370   Zn371   1.980   .     S
C373   O427    1.294   .     A
C373   O425    1.290   .     A
C373   C386    1.454   .     S
C374   C376    1.409   .     A
C374   H410    1.081   .     S
C374   C403    1.406   .     A
C375   C395    1.415   .     A
C375   C404    1.409   .     A
C376   C399    1.415   .     A
C376   C3      1.520   1_556 S
C377   O429    1.279   .     A
C377   C379    1.402   .     S
C377   O431    1.280   .     A
C378   O432    1.280   .     A
C378   C380    1.401   .     S
C378   O430    1.279   .     A
C379   C504    1.328   1_455 S
C379   H529    1.088   1_455 S
C380   C441    1.328   .     S
C380   H473    1.088   .     S
C381   C383    1.385   .     A
C381   C392    1.397   .     A
C381   H412    1.085   .     S
C382   H413    1.085   .     S
C382   C393    1.400   .     A
C382   C385    1.385   .     A
C383   C394    1.446   .     S
C383   C386    1.417   .     A
C384   C387    1.428   .     S
C384   O428    1.286   .     A
C384   O426    1.284   .     A
C385   C387    1.405   .     A
C385   C396    1.446   .     S
C386   C388    1.404   .     A
C387   C389    1.395   .     A
C388   C390    1.378   .     A
C388   H414    1.083   .     S
C389   H415    1.084   .     S
C389   C391    1.379   .     A
C390   H416    1.084   .     S
C390   C392    1.394   .     A
C391   C393    1.399   .     A
C391   H417    1.083   .     S
C392   C579    1.445   1_545 S
C393   C578    1.445   .     S
C394   N421    1.158   .     T
C395   H418    1.080   .     S
C395   C400    1.407   .     A
C396   N422    1.157   .     T
C397   N423    1.158   .     T
C397   C402    1.438   .     S
C398   N424    1.158   .     T
C398   C403    1.438   .     S
C399   C401    1.407   .     A
C399   H406    1.080   .     S
C400   N419    1.361   .     A
C400   H407    1.082   .     S
C401   H408    1.082   .     S
C401   N420    1.361   .     A
C402   C404    1.406   .     A
C402   N419    1.368   .     A
C403   N420    1.368   .     A
C404   H409    1.081   .     S
H405   C441    1.088   .     S
H411   C504    1.088   1_455 S
N419   Zn434   2.011   .     S
N420   Zn433   2.011   .     S
O425   Zn433   2.009   .     S
O426   Zn434   2.009   .     S
O427   Zn434   1.997   .     S
O428   Zn433   1.997   .     S
O429   Zn433   1.971   .     S
O430   Zn434   1.971   .     S
O431   Zn434   1.980   .     S
O432   Zn433   1.980   .     S
C435   O489    1.294   .     A
C435   O487    1.290   .     A
C435   C448    1.454   .     S
C436   C438    1.409   .     A
C436   H472    1.081   .     S
C436   C465    1.406   .     A
C437   C457    1.415   .     A
C437   C466    1.409   .     A
C438   C461    1.415   .     A
C438   C65     1.520   1_556 S
C439   O491    1.279   .     A
C439   C441    1.402   .     S
C439   O493    1.280   .     A
C440   O494    1.280   .     A
C440   C442    1.401   .     S
C440   O492    1.279   .     A
C442   C503    1.328   .     S
C442   H535    1.088   .     S
C443   C445    1.385   .     A
C443   C454    1.397   .     A
C443   H474    1.085   .     S
C444   H475    1.085   .     S
C444   C455    1.400   .     A
C444   C447    1.385   .     A
C445   C456    1.446   .     S
C445   C448    1.417   .     A
C446   C449    1.428   .     S
C446   O490    1.286   .     A
C446   O488    1.284   .     A
C447   C449    1.405   .     A
C447   C458    1.446   .     S
C448   C450    1.404   .     A
C449   C451    1.395   .     A
C450   C452    1.378   .     A
C450   H476    1.083   .     S
C451   H477    1.084   .     S
C451   C453    1.379   .     A
C452   H478    1.084   .     S
C452   C454    1.394   .     A
C453   C455    1.399   .     A
C453   H479    1.083   .     S
C454   C641    1.445   1_545 S
C455   C640    1.445   .     S
C456   N483    1.158   .     T
C457   H480    1.080   .     S
C457   C462    1.407   .     A
C458   N484    1.157   .     T
C459   N485    1.158   .     T
C459   C464    1.438   .     S
C460   N486    1.158   .     T
C460   C465    1.438   .     S
C461   C463    1.407   .     A
C461   H468    1.080   .     S
C462   N481    1.361   .     A
C462   H469    1.082   .     S
C463   H470    1.082   .     S
C463   N482    1.361   .     A
C464   C466    1.406   .     A
C464   N481    1.368   .     A
C465   N482    1.368   .     A
C466   H471    1.081   .     S
H467   C503    1.088   .     S
N481   Zn496   2.011   .     S
N482   Zn495   2.011   .     S
O487   Zn495   2.009   .     S
O488   Zn496   2.009   .     S
O489   Zn496   1.997   .     S
O490   Zn495   1.997   .     S
O491   Zn495   1.971   .     S
O492   Zn496   1.971   .     S
O493   Zn496   1.980   .     S
O494   Zn495   1.980   .     S
C497   O551    1.294   .     A
C497   O549    1.290   .     A
C497   C510    1.454   .     S
C498   C500    1.409   .     A
C498   H534    1.081   .     S
C498   C527    1.406   .     A
C499   C519    1.415   .     A
C499   C528    1.409   .     A
C500   C523    1.415   .     A
C500   C127    1.520   1_556 S
C501   O553    1.279   .     A
C501   C503    1.402   .     S
C501   O555    1.280   .     A
C502   O556    1.280   .     A
C502   C504    1.401   .     S
C502   O554    1.279   .     A
C504   C379    1.328   1_655 S
C504   H411    1.088   1_655 S
C505   C507    1.385   .     A
C505   C516    1.397   .     A
C505   H536    1.085   .     S
C506   H537    1.085   .     S
C506   C517    1.400   .     A
C506   C509    1.385   .     A
C507   C518    1.446   .     S
C507   C510    1.417   .     A
C508   C511    1.428   .     S
C508   O552    1.286   .     A
C508   O550    1.284   .     A
C509   C511    1.405   .     A
C509   C520    1.446   .     S
C510   C512    1.404   .     A
C511   C513    1.395   .     A
C512   C514    1.378   .     A
C512   H538    1.083   .     S
C513   H539    1.084   .     S
C513   C515    1.379   .     A
C514   H540    1.084   .     S
C514   C516    1.394   .     A
C515   C517    1.399   .     A
C515   H541    1.083   .     S
C516   C703    1.445   1_545 S
C517   C702    1.445   .     S
C518   N545    1.158   .     T
C519   H542    1.080   .     S
C519   C524    1.407   .     A
C520   N546    1.157   .     T
C521   N547    1.158   .     T
C521   C526    1.438   .     S
C522   N548    1.158   .     T
C522   C527    1.438   .     S
C523   C525    1.407   .     A
C523   H530    1.080   .     S
C524   N543    1.361   .     A
C524   H531    1.082   .     S
C525   H532    1.082   .     S
C525   N544    1.361   .     A
C526   C528    1.406   .     A
C526   N543    1.368   .     A
C527   N544    1.368   .     A
C528   H533    1.081   .     S
H529   C379    1.088   1_655 S
N543   Zn558   2.011   .     S
N544   Zn557   2.011   .     S
O549   Zn557   2.009   .     S
O550   Zn558   2.009   .     S
O551   Zn558   1.997   .     S
O552   Zn557   1.997   .     S
O553   Zn557   1.971   .     S
O554   Zn558   1.971   .     S
O555   Zn558   1.980   .     S
O556   Zn557   1.980   .     S
C559   O613    1.294   .     A
C559   O611    1.290   .     A
C559   C572    1.454   .     S
C560   C562    1.409   .     A
C560   H596    1.081   .     S
C560   C589    1.406   .     A
C561   C581    1.415   .     A
C561   C590    1.409   .     A
C562   C585    1.415   .     A
C562   C189    1.520   1_556 S
C563   O615    1.279   .     A
C563   C565    1.402   .     S
C563   O617    1.280   .     A
C564   O618    1.280   .     A
C564   C566    1.401   .     S
C564   O616    1.279   .     A
C565   C690    1.328   1_455 S
C565   H715    1.088   1_455 S
C566   C627    1.328   .     S
C566   H659    1.088   .     S
C567   C569    1.385   .     A
C567   C578    1.397   .     A
C567   H598    1.085   .     S
C568   H599    1.085   .     S
C568   C579    1.400   .     A
C568   C571    1.385   .     A
C569   C580    1.446   .     S
C569   C572    1.417   .     A
C570   C573    1.428   .     S
C570   O614    1.286   .     A
C570   O612    1.284   .     A
C571   C573    1.405   .     A
C571   C582    1.446   .     S
C572   C574    1.404   .     A
C573   C575    1.395   .     A
C574   C576    1.378   .     A
C574   H600    1.083   .     S
C575   H601    1.084   .     S
C575   C577    1.379   .     A
C576   H602    1.084   .     S
C576   C578    1.394   .     A
C577   C579    1.399   .     A
C577   H603    1.083   .     S
C579   C392    1.445   1_565 S
C580   N607    1.158   .     T
C581   H604    1.080   .     S
C581   C586    1.407   .     A
C582   N608    1.157   .     T
C583   N609    1.158   .     T
C583   C588    1.438   .     S
C584   N610    1.158   .     T
C584   C589    1.438   .     S
C585   C587    1.407   .     A
C585   H592    1.080   .     S
C586   N605    1.361   .     A
C586   H593    1.082   .     S
C587   H594    1.082   .     S
C587   N606    1.361   .     A
C588   C590    1.406   .     A
C588   N605    1.368   .     A
C589   N606    1.368   .     A
C590   H595    1.081   .     S
H591   C627    1.088   .     S
H597   C690    1.088   1_455 S
N605   Zn620   2.011   .     S
N606   Zn619   2.011   .     S
O611   Zn619   2.009   .     S
O612   Zn620   2.009   .     S
O613   Zn620   1.997   .     S
O614   Zn619   1.997   .     S
O615   Zn619   1.971   .     S
O616   Zn620   1.971   .     S
O617   Zn620   1.980   .     S
O618   Zn619   1.980   .     S
C621   O675    1.294   .     A
C621   O673    1.290   .     A
C621   C634    1.454   .     S
C622   C624    1.409   .     A
C622   H658    1.081   .     S
C622   C651    1.406   .     A
C623   C643    1.415   .     A
C623   C652    1.409   .     A
C624   C647    1.415   .     A
C624   C251    1.520   1_556 S
C625   O677    1.279   .     A
C625   C627    1.402   .     S
C625   O679    1.280   .     A
C626   O680    1.280   .     A
C626   C628    1.401   .     S
C626   O678    1.279   .     A
C628   C689    1.328   .     S
C628   H721    1.088   .     S
C629   C631    1.385   .     A
C629   C640    1.397   .     A
C629   H660    1.085   .     S
C630   H661    1.085   .     S
C630   C641    1.400   .     A
C630   C633    1.385   .     A
C631   C642    1.446   .     S
C631   C634    1.417   .     A
C632   C635    1.428   .     S
C632   O676    1.286   .     A
C632   O674    1.284   .     A
C633   C635    1.405   .     A
C633   C644    1.446   .     S
C634   C636    1.404   .     A
C635   C637    1.395   .     A
C636   C638    1.378   .     A
C636   H662    1.083   .     S
C637   H663    1.084   .     S
C637   C639    1.379   .     A
C638   H664    1.084   .     S
C638   C640    1.394   .     A
C639   C641    1.399   .     A
C639   H665    1.083   .     S
C641   C454    1.445   1_565 S
C642   N669    1.158   .     T
C643   H666    1.080   .     S
C643   C648    1.407   .     A
C644   N670    1.157   .     T
C645   N671    1.158   .     T
C645   C650    1.438   .     S
C646   N672    1.158   .     T
C646   C651    1.438   .     S
C647   C649    1.407   .     A
C647   H654    1.080   .     S
C648   N667    1.361   .     A
C648   H655    1.082   .     S
C649   H656    1.082   .     S
C649   N668    1.361   .     A
C650   C652    1.406   .     A
C650   N667    1.368   .     A
C651   N668    1.368   .     A
C652   H657    1.081   .     S
H653   C689    1.088   .     S
N667   Zn682   2.011   .     S
N668   Zn681   2.011   .     S
O673   Zn681   2.009   .     S
O674   Zn682   2.009   .     S
O675   Zn682   1.997   .     S
O676   Zn681   1.997   .     S
O677   Zn681   1.971   .     S
O678   Zn682   1.971   .     S
O679   Zn682   1.980   .     S
O680   Zn681   1.980   .     S
C683   O737    1.294   .     A
C683   O735    1.290   .     A
C683   C696    1.454   .     S
C684   C686    1.409   .     A
C684   H720    1.081   .     S
C684   C713    1.406   .     A
C685   C705    1.415   .     A
C685   C714    1.409   .     A
C686   C709    1.415   .     A
C686   C313    1.520   1_556 S
C687   O739    1.279   .     A
C687   C689    1.402   .     S
C687   O741    1.280   .     A
C688   O742    1.280   .     A
C688   C690    1.401   .     S
C688   O740    1.279   .     A
C690   C565    1.328   1_655 S
C690   H597    1.088   1_655 S
C691   C693    1.385   .     A
C691   C702    1.397   .     A
C691   H722    1.085   .     S
C692   H723    1.085   .     S
C692   C703    1.400   .     A
C692   C695    1.385   .     A
C693   C704    1.446   .     S
C693   C696    1.417   .     A
C694   C697    1.428   .     S
C694   O738    1.286   .     A
C694   O736    1.284   .     A
C695   C697    1.405   .     A
C695   C706    1.446   .     S
C696   C698    1.404   .     A
C697   C699    1.395   .     A
C698   C700    1.378   .     A
C698   H724    1.083   .     S
C699   H725    1.084   .     S
C699   C701    1.379   .     A
C700   H726    1.084   .     S
C700   C702    1.394   .     A
C701   C703    1.399   .     A
C701   H727    1.083   .     S
C703   C516    1.445   1_565 S
C704   N731    1.158   .     T
C705   H728    1.080   .     S
C705   C710    1.407   .     A
C706   N732    1.157   .     T
C707   N733    1.158   .     T
C707   C712    1.438   .     S
C708   N734    1.158   .     T
C708   C713    1.438   .     S
C709   C711    1.407   .     A
C709   H716    1.080   .     S
C710   N729    1.361   .     A
C710   H717    1.082   .     S
C711   H718    1.082   .     S
C711   N730    1.361   .     A
C712   C714    1.406   .     A
C712   N729    1.368   .     A
C713   N730    1.368   .     A
C714   H719    1.081   .     S
H715   C565    1.088   1_655 S
N729   Zn744   2.011   .     S
N730   Zn743   2.011   .     S
O735   Zn743   2.009   .     S
O736   Zn744   2.009   .     S
O737   Zn744   1.997   .     S
O738   Zn743   1.997   .     S
O739   Zn743   1.971   .     S
O740   Zn744   1.971   .     S
O741   Zn744   1.980   .     S
O742   Zn743   1.980   .     S
