data_str_m3_o10_o17_pcu_sym.80
_audit_creation_date              2020-01-03
_audit_creation_method            'Materials Studio'
_symmetry_space_group_name_H-M    'P1'
_symmetry_Int_Tables_number       1
_symmetry_cell_setting            triclinic
loop_
_symmetry_equiv_pos_as_xyz
  x,y,z
_cell_length_a                    23.3161
_cell_length_b                    25.6772
_cell_length_c                    29.7976
_cell_angle_alpha                 91.0061
_cell_angle_beta                  86.0652
_cell_angle_gamma                 93.6577
loop_
_atom_site_label
_atom_site_type_symbol
_atom_site_fract_x
_atom_site_fract_y
_atom_site_fract_z
_atom_site_U_iso_or_equiv
_atom_site_adp_type
_atom_site_occupancy
C1     C     0.18192   0.26490   0.24884   0.00000  Uiso   1.00
C2     C     0.19213   0.21240   0.40604   0.00000  Uiso   1.00
C3     C     0.16368   0.16494   0.11622   0.00000  Uiso   1.00
C4     C     0.16959   0.16795   0.38377   0.00000  Uiso   1.00
C5     C     0.18630   0.20876   0.09345   0.00000  Uiso   1.00
C6     C     0.14681   0.12402   0.40641   0.00000  Uiso   1.00
C7     C     0.18733   0.20945   0.04727   0.00000  Uiso   1.00
C8     C     0.14590   0.12303   0.45264   0.00000  Uiso   1.00
C9     C     0.16565   0.16527   0.02353   0.00000  Uiso   1.00
C10    C     0.16767   0.16698   0.47651   0.00000  Uiso   1.00
C11    C     0.14224   0.11960   0.04678   0.00000  Uiso   1.00
C12    C     0.15141   0.06844   0.25115   0.00000  Uiso   1.00
C13    C     0.19123   0.21251   0.45331   0.00000  Uiso   1.00
C14    C     0.21027   0.25403   0.02491   0.00000  Uiso   1.00
C15    C     0.12316   0.07839   0.47488   0.00000  Uiso   1.00
C16    C     0.21258   0.25619   0.47827   0.00000  Uiso   1.00
C17    C     0.12115   0.07575   0.02136   0.00000  Uiso   1.00
C18    C     0.18995   0.31941   0.24819   0.00000  Uiso   1.00
C19    C     0.14338   0.01393   0.25179   0.00000  Uiso   1.00
C20    C     0.16761   0.16720   0.33629   0.00000  Uiso   1.00
C21    C     0.16572   0.16609   0.16371   0.00000  Uiso   1.00
C22    C     0.14142   0.12016   0.09418   0.00000  Uiso   1.00
H23    H     0.22673   0.28764   0.04375   0.00000  Uiso   1.00
H24    H     0.18192   0.26979   0.36165   0.00000  Uiso   1.00
H25    H     0.20324   0.24245   0.11205   0.00000  Uiso   1.00
H26    H     0.12973   0.09049   0.38769   0.00000  Uiso   1.00
H27    H     0.21333   0.00079   0.46929   0.00000  Uiso   1.00
H28    H     0.27914   0.30966   0.46629   0.00000  Uiso   1.00
H29    H     0.06088   0.03483   0.06174   0.00000  Uiso   1.00
H30    H     0.12863   0.01088   0.05838   0.00000  Uiso   1.00
H31    H     0.10683   0.04483   0.45590   0.00000  Uiso   1.00
H32    H     0.23394   0.00310   0.24477   0.00000  Uiso   1.00
H33    H     0.09939   0.33023   0.25520   0.00000  Uiso   1.00
H34    H     0.00456   0.12759   0.21605   0.00000  Uiso   1.00
H35    H     0.32878   0.20574   0.28395   0.00000  Uiso   1.00
H36    H     0.15207   0.06358   0.13921   0.00000  Uiso   1.00
H37    H     0.08511   0.08663   0.14192   0.00000  Uiso   1.00
H38    H     0.24871   0.24646   0.35876   0.00000  Uiso   1.00
N39    N     0.31678   0.15265   0.23783   0.00000  Uiso   1.00
N40    N     0.01656   0.18068   0.26217   0.00000  Uiso   1.00
N41    N     0.11948   0.07574   0.12014   0.00000  Uiso   1.00
N42    N     0.21438   0.25722   0.38065   0.00000  Uiso   1.00
N43    N     0.23683   0.30296   0.45699   0.00000  Uiso   1.00
N44    N     0.09743   0.02775   0.04079   0.00000  Uiso   1.00
O45    O     0.12975   0.24619   0.25299   0.00000  Uiso   1.00
O46    O     0.20358   0.08714   0.24702   0.00000  Uiso   1.00
O47    O     0.22613   0.23721   0.24519   0.00000  Uiso   1.00
O48    O     0.10720   0.09613   0.25482   0.00000  Uiso   1.00
O49    O     0.11847   0.17117   0.31998   0.00000  Uiso   1.00
O50    O     0.21486   0.16216   0.18003   0.00000  Uiso   1.00
O51    O     0.21485   0.16219   0.31218   0.00000  Uiso   1.00
O52    O     0.11848   0.17115   0.18783   0.00000  Uiso   1.00
Zn53   Zn    0.10231   0.17266   0.25521   0.00000  Uiso   1.00
Zn54   Zn    0.23102   0.16067   0.24479   0.00000  Uiso   1.00
C55    C     0.51525   0.26490   0.24884   0.00000  Uiso   1.00
C56    C     0.52546   0.21240   0.40604   0.00000  Uiso   1.00
C57    C     0.49702   0.16494   0.11622   0.00000  Uiso   1.00
C58    C     0.50292   0.16795   0.38377   0.00000  Uiso   1.00
C59    C     0.51964   0.20876   0.09345   0.00000  Uiso   1.00
C60    C     0.48014   0.12402   0.40641   0.00000  Uiso   1.00
C61    C     0.52067   0.20945   0.04727   0.00000  Uiso   1.00
C62    C     0.47923   0.12303   0.45264   0.00000  Uiso   1.00
C63    C     0.49898   0.16527   0.02353   0.00000  Uiso   1.00
C64    C     0.50100   0.16698   0.47651   0.00000  Uiso   1.00
C65    C     0.47557   0.11960   0.04678   0.00000  Uiso   1.00
C66    C     0.48475   0.06844   0.25115   0.00000  Uiso   1.00
C67    C     0.52456   0.21251   0.45331   0.00000  Uiso   1.00
C68    C     0.54360   0.25403   0.02491   0.00000  Uiso   1.00
C69    C     0.45650   0.07839   0.47488   0.00000  Uiso   1.00
C70    C     0.54591   0.25619   0.47827   0.00000  Uiso   1.00
C71    C     0.45448   0.07575   0.02136   0.00000  Uiso   1.00
C72    C     0.52329   0.31941   0.24819   0.00000  Uiso   1.00
C73    C     0.47671   0.01393   0.25179   0.00000  Uiso   1.00
C74    C     0.50094   0.16720   0.33629   0.00000  Uiso   1.00
C75    C     0.49905   0.16609   0.16371   0.00000  Uiso   1.00
C76    C     0.47475   0.12016   0.09418   0.00000  Uiso   1.00
H77    H     0.56006   0.28764   0.04375   0.00000  Uiso   1.00
H78    H     0.51526   0.26979   0.36165   0.00000  Uiso   1.00
H79    H     0.53658   0.24245   0.11205   0.00000  Uiso   1.00
H80    H     0.46307   0.09049   0.38769   0.00000  Uiso   1.00
H81    H     0.54666   0.00079   0.46929   0.00000  Uiso   1.00
H82    H     0.61247   0.30966   0.46629   0.00000  Uiso   1.00
H83    H     0.39421   0.03483   0.06174   0.00000  Uiso   1.00
H84    H     0.46196   0.01088   0.05838   0.00000  Uiso   1.00
H85    H     0.44016   0.04483   0.45590   0.00000  Uiso   1.00
H86    H     0.56728   0.00310   0.24477   0.00000  Uiso   1.00
H87    H     0.43272   0.33023   0.25520   0.00000  Uiso   1.00
H88    H     0.33789   0.12759   0.21605   0.00000  Uiso   1.00
H89    H     0.66211   0.20574   0.28395   0.00000  Uiso   1.00
H90    H     0.48540   0.06358   0.13921   0.00000  Uiso   1.00
H91    H     0.41844   0.08663   0.14192   0.00000  Uiso   1.00
H92    H     0.58204   0.24646   0.35876   0.00000  Uiso   1.00
N93    N     0.65011   0.15265   0.23783   0.00000  Uiso   1.00
N94    N     0.34989   0.18068   0.26217   0.00000  Uiso   1.00
N95    N     0.45281   0.07574   0.12014   0.00000  Uiso   1.00
N96    N     0.54772   0.25722   0.38065   0.00000  Uiso   1.00
N97    N     0.57017   0.30296   0.45699   0.00000  Uiso   1.00
N98    N     0.43077   0.02775   0.04079   0.00000  Uiso   1.00
O99    O     0.46308   0.24619   0.25299   0.00000  Uiso   1.00
O100   O     0.53692   0.08714   0.24702   0.00000  Uiso   1.00
O101   O     0.55946   0.23721   0.24519   0.00000  Uiso   1.00
O102   O     0.44054   0.09613   0.25482   0.00000  Uiso   1.00
O103   O     0.45181   0.17117   0.31998   0.00000  Uiso   1.00
O104   O     0.54819   0.16216   0.18003   0.00000  Uiso   1.00
O105   O     0.54819   0.16219   0.31218   0.00000  Uiso   1.00
O106   O     0.45181   0.17115   0.18783   0.00000  Uiso   1.00
Zn107  Zn    0.43565   0.17266   0.25521   0.00000  Uiso   1.00
Zn108  Zn    0.56435   0.16067   0.24479   0.00000  Uiso   1.00
C109   C     0.84859   0.26490   0.24884   0.00000  Uiso   1.00
C110   C     0.85879   0.21240   0.40604   0.00000  Uiso   1.00
C111   C     0.83035   0.16494   0.11622   0.00000  Uiso   1.00
C112   C     0.83626   0.16795   0.38377   0.00000  Uiso   1.00
C113   C     0.85297   0.20876   0.09345   0.00000  Uiso   1.00
C114   C     0.81348   0.12402   0.40641   0.00000  Uiso   1.00
C115   C     0.85400   0.20945   0.04727   0.00000  Uiso   1.00
C116   C     0.81256   0.12303   0.45264   0.00000  Uiso   1.00
C117   C     0.83232   0.16527   0.02353   0.00000  Uiso   1.00
C118   C     0.83433   0.16698   0.47651   0.00000  Uiso   1.00
C119   C     0.80891   0.11960   0.04678   0.00000  Uiso   1.00
C120   C     0.81808   0.06844   0.25115   0.00000  Uiso   1.00
C121   C     0.85789   0.21251   0.45331   0.00000  Uiso   1.00
C122   C     0.87693   0.25403   0.02491   0.00000  Uiso   1.00
C123   C     0.78983   0.07839   0.47488   0.00000  Uiso   1.00
C124   C     0.87924   0.25619   0.47827   0.00000  Uiso   1.00
C125   C     0.78781   0.07575   0.02136   0.00000  Uiso   1.00
C126   C     0.85662   0.31941   0.24819   0.00000  Uiso   1.00
C127   C     0.81005   0.01393   0.25179   0.00000  Uiso   1.00
C128   C     0.83427   0.16720   0.33629   0.00000  Uiso   1.00
C129   C     0.83239   0.16609   0.16371   0.00000  Uiso   1.00
C130   C     0.80809   0.12016   0.09418   0.00000  Uiso   1.00
H131   H     0.89339   0.28764   0.04375   0.00000  Uiso   1.00
H132   H     0.84859   0.26979   0.36165   0.00000  Uiso   1.00
H133   H     0.86991   0.24245   0.11205   0.00000  Uiso   1.00
H134   H     0.79640   0.09049   0.38769   0.00000  Uiso   1.00
H135   H     0.87999   0.00079   0.46929   0.00000  Uiso   1.00
H136   H     0.94581   0.30966   0.46629   0.00000  Uiso   1.00
H137   H     0.72754   0.03483   0.06174   0.00000  Uiso   1.00
H138   H     0.79529   0.01088   0.05838   0.00000  Uiso   1.00
H139   H     0.77350   0.04483   0.45590   0.00000  Uiso   1.00
H140   H     0.90061   0.00310   0.24477   0.00000  Uiso   1.00
H141   H     0.76606   0.33023   0.25520   0.00000  Uiso   1.00
H142   H     0.67122   0.12759   0.21605   0.00000  Uiso   1.00
H143   H     0.99544   0.20574   0.28395   0.00000  Uiso   1.00
H144   H     0.81873   0.06358   0.13921   0.00000  Uiso   1.00
H145   H     0.75177   0.08663   0.14192   0.00000  Uiso   1.00
H146   H     0.91538   0.24646   0.35876   0.00000  Uiso   1.00
N147   N     0.98344   0.15265   0.23783   0.00000  Uiso   1.00
N148   N     0.68322   0.18068   0.26217   0.00000  Uiso   1.00
N149   N     0.78615   0.07574   0.12014   0.00000  Uiso   1.00
N150   N     0.88105   0.25722   0.38065   0.00000  Uiso   1.00
N151   N     0.90350   0.30296   0.45699   0.00000  Uiso   1.00
N152   N     0.76410   0.02775   0.04079   0.00000  Uiso   1.00
O153   O     0.79642   0.24619   0.25299   0.00000  Uiso   1.00
O154   O     0.87025   0.08714   0.24702   0.00000  Uiso   1.00
O155   O     0.89280   0.23721   0.24519   0.00000  Uiso   1.00
O156   O     0.77387   0.09613   0.25482   0.00000  Uiso   1.00
O157   O     0.78514   0.17117   0.31998   0.00000  Uiso   1.00
O158   O     0.88153   0.16216   0.18003   0.00000  Uiso   1.00
O159   O     0.88152   0.16219   0.31218   0.00000  Uiso   1.00
O160   O     0.78515   0.17115   0.18783   0.00000  Uiso   1.00
Zn161  Zn    0.76898   0.17266   0.25521   0.00000  Uiso   1.00
Zn162  Zn    0.89769   0.16067   0.24479   0.00000  Uiso   1.00
C163   C     0.18192   0.59823   0.24884   0.00000  Uiso   1.00
C164   C     0.19213   0.54573   0.40604   0.00000  Uiso   1.00
C165   C     0.16368   0.49828   0.11622   0.00000  Uiso   1.00
C166   C     0.16959   0.50128   0.38377   0.00000  Uiso   1.00
C167   C     0.18630   0.54210   0.09345   0.00000  Uiso   1.00
C168   C     0.14681   0.45735   0.40641   0.00000  Uiso   1.00
C169   C     0.18733   0.54279   0.04727   0.00000  Uiso   1.00
C170   C     0.14590   0.45636   0.45264   0.00000  Uiso   1.00
C171   C     0.16565   0.49860   0.02353   0.00000  Uiso   1.00
C172   C     0.16767   0.50031   0.47651   0.00000  Uiso   1.00
C173   C     0.14224   0.45293   0.04678   0.00000  Uiso   1.00
C174   C     0.15141   0.40177   0.25115   0.00000  Uiso   1.00
C175   C     0.19123   0.54584   0.45331   0.00000  Uiso   1.00
C176   C     0.21027   0.58736   0.02491   0.00000  Uiso   1.00
C177   C     0.12316   0.41172   0.47488   0.00000  Uiso   1.00
C178   C     0.21258   0.58952   0.47827   0.00000  Uiso   1.00
C179   C     0.12115   0.40909   0.02136   0.00000  Uiso   1.00
C180   C     0.18995   0.65274   0.24819   0.00000  Uiso   1.00
C181   C     0.14338   0.34726   0.25179   0.00000  Uiso   1.00
C182   C     0.16761   0.50054   0.33629   0.00000  Uiso   1.00
C183   C     0.16572   0.49942   0.16371   0.00000  Uiso   1.00
C184   C     0.14142   0.45350   0.09418   0.00000  Uiso   1.00
H185   H     0.22673   0.62097   0.04375   0.00000  Uiso   1.00
H186   H     0.18192   0.60312   0.36165   0.00000  Uiso   1.00
H187   H     0.20324   0.57578   0.11205   0.00000  Uiso   1.00
H188   H     0.12973   0.42382   0.38769   0.00000  Uiso   1.00
H189   H     0.21333   0.33412   0.46929   0.00000  Uiso   1.00
H190   H     0.27914   0.64299   0.46629   0.00000  Uiso   1.00
H191   H     0.06088   0.36816   0.06174   0.00000  Uiso   1.00
H192   H     0.12863   0.34421   0.05838   0.00000  Uiso   1.00
H193   H     0.10683   0.37816   0.45590   0.00000  Uiso   1.00
H194   H     0.23394   0.33643   0.24477   0.00000  Uiso   1.00
H195   H     0.09939   0.66357   0.25520   0.00000  Uiso   1.00
H196   H     0.00456   0.46093   0.21605   0.00000  Uiso   1.00
H197   H     0.32878   0.53907   0.28395   0.00000  Uiso   1.00
H198   H     0.15207   0.39691   0.13921   0.00000  Uiso   1.00
H199   H     0.08511   0.41997   0.14192   0.00000  Uiso   1.00
H200   H     0.24871   0.57979   0.35876   0.00000  Uiso   1.00
N201   N     0.31678   0.48598   0.23783   0.00000  Uiso   1.00
N202   N     0.01656   0.51402   0.26217   0.00000  Uiso   1.00
N203   N     0.11948   0.40908   0.12014   0.00000  Uiso   1.00
N204   N     0.21438   0.59056   0.38065   0.00000  Uiso   1.00
N205   N     0.23683   0.63630   0.45699   0.00000  Uiso   1.00
N206   N     0.09743   0.36109   0.04079   0.00000  Uiso   1.00
O207   O     0.12975   0.57952   0.25299   0.00000  Uiso   1.00
O208   O     0.20358   0.42048   0.24702   0.00000  Uiso   1.00
O209   O     0.22613   0.57054   0.24519   0.00000  Uiso   1.00
O210   O     0.10720   0.42946   0.25482   0.00000  Uiso   1.00
O211   O     0.11847   0.50450   0.31998   0.00000  Uiso   1.00
O212   O     0.21486   0.49550   0.18003   0.00000  Uiso   1.00
O213   O     0.21485   0.49552   0.31218   0.00000  Uiso   1.00
O214   O     0.11848   0.50448   0.18783   0.00000  Uiso   1.00
Zn215  Zn    0.10231   0.50600   0.25521   0.00000  Uiso   1.00
Zn216  Zn    0.23102   0.49400   0.24479   0.00000  Uiso   1.00
C217   C     0.51525   0.59823   0.24884   0.00000  Uiso   1.00
C218   C     0.52546   0.54573   0.40604   0.00000  Uiso   1.00
C219   C     0.49702   0.49828   0.11622   0.00000  Uiso   1.00
C220   C     0.50292   0.50128   0.38377   0.00000  Uiso   1.00
C221   C     0.51964   0.54210   0.09345   0.00000  Uiso   1.00
C222   C     0.48014   0.45735   0.40641   0.00000  Uiso   1.00
C223   C     0.52067   0.54279   0.04727   0.00000  Uiso   1.00
C224   C     0.47923   0.45636   0.45264   0.00000  Uiso   1.00
C225   C     0.49898   0.49860   0.02353   0.00000  Uiso   1.00
C226   C     0.50100   0.50031   0.47651   0.00000  Uiso   1.00
C227   C     0.47557   0.45293   0.04678   0.00000  Uiso   1.00
C228   C     0.48475   0.40177   0.25115   0.00000  Uiso   1.00
C229   C     0.52456   0.54584   0.45331   0.00000  Uiso   1.00
C230   C     0.54360   0.58736   0.02491   0.00000  Uiso   1.00
C231   C     0.45650   0.41172   0.47488   0.00000  Uiso   1.00
C232   C     0.54591   0.58952   0.47827   0.00000  Uiso   1.00
C233   C     0.45448   0.40909   0.02136   0.00000  Uiso   1.00
C234   C     0.52329   0.65274   0.24819   0.00000  Uiso   1.00
C235   C     0.47671   0.34726   0.25179   0.00000  Uiso   1.00
C236   C     0.50094   0.50054   0.33629   0.00000  Uiso   1.00
C237   C     0.49905   0.49942   0.16371   0.00000  Uiso   1.00
C238   C     0.47475   0.45350   0.09418   0.00000  Uiso   1.00
H239   H     0.56006   0.62097   0.04375   0.00000  Uiso   1.00
H240   H     0.51526   0.60312   0.36165   0.00000  Uiso   1.00
H241   H     0.53658   0.57578   0.11205   0.00000  Uiso   1.00
H242   H     0.46307   0.42382   0.38769   0.00000  Uiso   1.00
H243   H     0.54666   0.33412   0.46929   0.00000  Uiso   1.00
H244   H     0.61247   0.64299   0.46629   0.00000  Uiso   1.00
H245   H     0.39421   0.36816   0.06174   0.00000  Uiso   1.00
H246   H     0.46196   0.34421   0.05838   0.00000  Uiso   1.00
H247   H     0.44016   0.37816   0.45590   0.00000  Uiso   1.00
H248   H     0.56728   0.33643   0.24477   0.00000  Uiso   1.00
H249   H     0.43272   0.66357   0.25520   0.00000  Uiso   1.00
H250   H     0.33789   0.46093   0.21605   0.00000  Uiso   1.00
H251   H     0.66211   0.53907   0.28395   0.00000  Uiso   1.00
H252   H     0.48540   0.39691   0.13921   0.00000  Uiso   1.00
H253   H     0.41844   0.41997   0.14192   0.00000  Uiso   1.00
H254   H     0.58204   0.57979   0.35876   0.00000  Uiso   1.00
N255   N     0.65011   0.48598   0.23783   0.00000  Uiso   1.00
N256   N     0.34989   0.51402   0.26217   0.00000  Uiso   1.00
N257   N     0.45281   0.40908   0.12014   0.00000  Uiso   1.00
N258   N     0.54772   0.59056   0.38065   0.00000  Uiso   1.00
N259   N     0.57017   0.63630   0.45699   0.00000  Uiso   1.00
N260   N     0.43077   0.36109   0.04079   0.00000  Uiso   1.00
O261   O     0.46308   0.57952   0.25299   0.00000  Uiso   1.00
O262   O     0.53692   0.42048   0.24702   0.00000  Uiso   1.00
O263   O     0.55946   0.57054   0.24519   0.00000  Uiso   1.00
O264   O     0.44054   0.42946   0.25482   0.00000  Uiso   1.00
O265   O     0.45181   0.50450   0.31998   0.00000  Uiso   1.00
O266   O     0.54819   0.49550   0.18003   0.00000  Uiso   1.00
O267   O     0.54819   0.49552   0.31218   0.00000  Uiso   1.00
O268   O     0.45181   0.50448   0.18783   0.00000  Uiso   1.00
Zn269  Zn    0.43565   0.50600   0.25521   0.00000  Uiso   1.00
Zn270  Zn    0.56435   0.49400   0.24479   0.00000  Uiso   1.00
C271   C     0.84859   0.59823   0.24884   0.00000  Uiso   1.00
C272   C     0.85879   0.54573   0.40604   0.00000  Uiso   1.00
C273   C     0.83035   0.49828   0.11622   0.00000  Uiso   1.00
C274   C     0.83626   0.50128   0.38377   0.00000  Uiso   1.00
C275   C     0.85297   0.54210   0.09345   0.00000  Uiso   1.00
C276   C     0.81348   0.45735   0.40641   0.00000  Uiso   1.00
C277   C     0.85400   0.54279   0.04727   0.00000  Uiso   1.00
C278   C     0.81256   0.45636   0.45264   0.00000  Uiso   1.00
C279   C     0.83232   0.49860   0.02353   0.00000  Uiso   1.00
C280   C     0.83433   0.50031   0.47651   0.00000  Uiso   1.00
C281   C     0.80891   0.45293   0.04678   0.00000  Uiso   1.00
C282   C     0.81808   0.40177   0.25115   0.00000  Uiso   1.00
C283   C     0.85789   0.54584   0.45331   0.00000  Uiso   1.00
C284   C     0.87693   0.58736   0.02491   0.00000  Uiso   1.00
C285   C     0.78983   0.41172   0.47488   0.00000  Uiso   1.00
C286   C     0.87924   0.58952   0.47827   0.00000  Uiso   1.00
C287   C     0.78781   0.40909   0.02136   0.00000  Uiso   1.00
C288   C     0.85662   0.65274   0.24819   0.00000  Uiso   1.00
C289   C     0.81005   0.34726   0.25179   0.00000  Uiso   1.00
C290   C     0.83427   0.50054   0.33629   0.00000  Uiso   1.00
C291   C     0.83239   0.49942   0.16371   0.00000  Uiso   1.00
C292   C     0.80809   0.45350   0.09418   0.00000  Uiso   1.00
H293   H     0.89339   0.62097   0.04375   0.00000  Uiso   1.00
H294   H     0.84859   0.60312   0.36165   0.00000  Uiso   1.00
H295   H     0.86991   0.57578   0.11205   0.00000  Uiso   1.00
H296   H     0.79640   0.42382   0.38769   0.00000  Uiso   1.00
H297   H     0.87999   0.33412   0.46929   0.00000  Uiso   1.00
H298   H     0.94581   0.64299   0.46629   0.00000  Uiso   1.00
H299   H     0.72754   0.36816   0.06174   0.00000  Uiso   1.00
H300   H     0.79529   0.34421   0.05838   0.00000  Uiso   1.00
H301   H     0.77350   0.37816   0.45590   0.00000  Uiso   1.00
H302   H     0.90061   0.33643   0.24477   0.00000  Uiso   1.00
H303   H     0.76606   0.66357   0.25520   0.00000  Uiso   1.00
H304   H     0.67122   0.46093   0.21605   0.00000  Uiso   1.00
H305   H     0.99544   0.53907   0.28395   0.00000  Uiso   1.00
H306   H     0.81873   0.39691   0.13921   0.00000  Uiso   1.00
H307   H     0.75177   0.41997   0.14192   0.00000  Uiso   1.00
H308   H     0.91538   0.57979   0.35876   0.00000  Uiso   1.00
N309   N     0.98344   0.48598   0.23783   0.00000  Uiso   1.00
N310   N     0.68322   0.51402   0.26217   0.00000  Uiso   1.00
N311   N     0.78615   0.40908   0.12014   0.00000  Uiso   1.00
N312   N     0.88105   0.59056   0.38065   0.00000  Uiso   1.00
N313   N     0.90350   0.63630   0.45699   0.00000  Uiso   1.00
N314   N     0.76410   0.36109   0.04079   0.00000  Uiso   1.00
O315   O     0.79642   0.57952   0.25299   0.00000  Uiso   1.00
O316   O     0.87025   0.42048   0.24702   0.00000  Uiso   1.00
O317   O     0.89280   0.57054   0.24519   0.00000  Uiso   1.00
O318   O     0.77387   0.42946   0.25482   0.00000  Uiso   1.00
O319   O     0.78514   0.50450   0.31998   0.00000  Uiso   1.00
O320   O     0.88153   0.49550   0.18003   0.00000  Uiso   1.00
O321   O     0.88152   0.49552   0.31218   0.00000  Uiso   1.00
O322   O     0.78515   0.50448   0.18783   0.00000  Uiso   1.00
Zn323  Zn    0.76898   0.50600   0.25521   0.00000  Uiso   1.00
Zn324  Zn    0.89769   0.49400   0.24479   0.00000  Uiso   1.00
C325   C     0.18192   0.93156   0.24884   0.00000  Uiso   1.00
C326   C     0.19213   0.87907   0.40604   0.00000  Uiso   1.00
C327   C     0.16368   0.83161   0.11622   0.00000  Uiso   1.00
C328   C     0.16959   0.83461   0.38377   0.00000  Uiso   1.00
C329   C     0.18630   0.87543   0.09345   0.00000  Uiso   1.00
C330   C     0.14681   0.79068   0.40641   0.00000  Uiso   1.00
C331   C     0.18733   0.87612   0.04727   0.00000  Uiso   1.00
C332   C     0.14590   0.78970   0.45264   0.00000  Uiso   1.00
C333   C     0.16565   0.83194   0.02353   0.00000  Uiso   1.00
C334   C     0.16767   0.83364   0.47651   0.00000  Uiso   1.00
C335   C     0.14224   0.78626   0.04678   0.00000  Uiso   1.00
C336   C     0.15141   0.73510   0.25115   0.00000  Uiso   1.00
C337   C     0.19123   0.87917   0.45331   0.00000  Uiso   1.00
C338   C     0.21027   0.92069   0.02491   0.00000  Uiso   1.00
C339   C     0.12316   0.74505   0.47488   0.00000  Uiso   1.00
C340   C     0.21258   0.92286   0.47827   0.00000  Uiso   1.00
C341   C     0.12115   0.74242   0.02136   0.00000  Uiso   1.00
C342   C     0.18995   0.98607   0.24819   0.00000  Uiso   1.00
C343   C     0.14338   0.68059   0.25179   0.00000  Uiso   1.00
C344   C     0.16761   0.83387   0.33629   0.00000  Uiso   1.00
C345   C     0.16572   0.83275   0.16371   0.00000  Uiso   1.00
C346   C     0.14142   0.78683   0.09418   0.00000  Uiso   1.00
H347   H     0.22673   0.95431   0.04375   0.00000  Uiso   1.00
H348   H     0.18192   0.93646   0.36165   0.00000  Uiso   1.00
H349   H     0.20324   0.90911   0.11205   0.00000  Uiso   1.00
H350   H     0.12973   0.75716   0.38769   0.00000  Uiso   1.00
H351   H     0.21333   0.66746   0.46929   0.00000  Uiso   1.00
H352   H     0.27914   0.97633   0.46629   0.00000  Uiso   1.00
H353   H     0.06088   0.70149   0.06174   0.00000  Uiso   1.00
H354   H     0.12863   0.67755   0.05838   0.00000  Uiso   1.00
H355   H     0.10683   0.71149   0.45590   0.00000  Uiso   1.00
H356   H     0.23394   0.66977   0.24477   0.00000  Uiso   1.00
H357   H     0.09939   0.99690   0.25520   0.00000  Uiso   1.00
H358   H     0.00456   0.79426   0.21605   0.00000  Uiso   1.00
H359   H     0.32878   0.87241   0.28395   0.00000  Uiso   1.00
H360   H     0.15207   0.73024   0.13921   0.00000  Uiso   1.00
H361   H     0.08511   0.75330   0.14192   0.00000  Uiso   1.00
H362   H     0.24871   0.91312   0.35876   0.00000  Uiso   1.00
N363   N     0.31678   0.81932   0.23783   0.00000  Uiso   1.00
N364   N     0.01656   0.84735   0.26217   0.00000  Uiso   1.00
N365   N     0.11948   0.74241   0.12014   0.00000  Uiso   1.00
N366   N     0.21438   0.92389   0.38065   0.00000  Uiso   1.00
N367   N     0.23683   0.96963   0.45699   0.00000  Uiso   1.00
N368   N     0.09743   0.69442   0.04079   0.00000  Uiso   1.00
O369   O     0.12975   0.91286   0.25299   0.00000  Uiso   1.00
O370   O     0.20358   0.75381   0.24702   0.00000  Uiso   1.00
O371   O     0.22613   0.90387   0.24519   0.00000  Uiso   1.00
O372   O     0.10720   0.76279   0.25482   0.00000  Uiso   1.00
O373   O     0.11847   0.83784   0.31998   0.00000  Uiso   1.00
O374   O     0.21486   0.82883   0.18003   0.00000  Uiso   1.00
O375   O     0.21485   0.82885   0.31218   0.00000  Uiso   1.00
O376   O     0.11848   0.83781   0.18783   0.00000  Uiso   1.00
Zn377  Zn    0.10231   0.83933   0.25521   0.00000  Uiso   1.00
Zn378  Zn    0.23102   0.82734   0.24479   0.00000  Uiso   1.00
C379   C     0.51525   0.93156   0.24884   0.00000  Uiso   1.00
C380   C     0.52546   0.87907   0.40604   0.00000  Uiso   1.00
C381   C     0.49702   0.83161   0.11622   0.00000  Uiso   1.00
C382   C     0.50292   0.83461   0.38377   0.00000  Uiso   1.00
C383   C     0.51964   0.87543   0.09345   0.00000  Uiso   1.00
C384   C     0.48014   0.79068   0.40641   0.00000  Uiso   1.00
C385   C     0.52067   0.87612   0.04727   0.00000  Uiso   1.00
C386   C     0.47923   0.78970   0.45264   0.00000  Uiso   1.00
C387   C     0.49898   0.83194   0.02353   0.00000  Uiso   1.00
C388   C     0.50100   0.83364   0.47651   0.00000  Uiso   1.00
C389   C     0.47557   0.78626   0.04678   0.00000  Uiso   1.00
C390   C     0.48475   0.73510   0.25115   0.00000  Uiso   1.00
C391   C     0.52456   0.87917   0.45331   0.00000  Uiso   1.00
C392   C     0.54360   0.92069   0.02491   0.00000  Uiso   1.00
C393   C     0.45650   0.74505   0.47488   0.00000  Uiso   1.00
C394   C     0.54591   0.92286   0.47827   0.00000  Uiso   1.00
C395   C     0.45448   0.74242   0.02136   0.00000  Uiso   1.00
C396   C     0.52329   0.98607   0.24819   0.00000  Uiso   1.00
C397   C     0.47671   0.68059   0.25179   0.00000  Uiso   1.00
C398   C     0.50094   0.83387   0.33629   0.00000  Uiso   1.00
C399   C     0.49905   0.83275   0.16371   0.00000  Uiso   1.00
C400   C     0.47475   0.78683   0.09418   0.00000  Uiso   1.00
H401   H     0.56006   0.95431   0.04375   0.00000  Uiso   1.00
H402   H     0.51526   0.93646   0.36165   0.00000  Uiso   1.00
H403   H     0.53658   0.90911   0.11205   0.00000  Uiso   1.00
H404   H     0.46307   0.75716   0.38769   0.00000  Uiso   1.00
H405   H     0.54666   0.66746   0.46929   0.00000  Uiso   1.00
H406   H     0.61247   0.97633   0.46629   0.00000  Uiso   1.00
H407   H     0.39421   0.70149   0.06174   0.00000  Uiso   1.00
H408   H     0.46196   0.67755   0.05838   0.00000  Uiso   1.00
H409   H     0.44016   0.71149   0.45590   0.00000  Uiso   1.00
H410   H     0.56728   0.66977   0.24477   0.00000  Uiso   1.00
H411   H     0.43272   0.99690   0.25520   0.00000  Uiso   1.00
H412   H     0.33789   0.79426   0.21605   0.00000  Uiso   1.00
H413   H     0.66211   0.87241   0.28395   0.00000  Uiso   1.00
H414   H     0.48540   0.73024   0.13921   0.00000  Uiso   1.00
H415   H     0.41844   0.75330   0.14192   0.00000  Uiso   1.00
H416   H     0.58204   0.91312   0.35876   0.00000  Uiso   1.00
N417   N     0.65011   0.81932   0.23783   0.00000  Uiso   1.00
N418   N     0.34989   0.84735   0.26217   0.00000  Uiso   1.00
N419   N     0.45281   0.74241   0.12014   0.00000  Uiso   1.00
N420   N     0.54772   0.92389   0.38065   0.00000  Uiso   1.00
N421   N     0.57017   0.96963   0.45699   0.00000  Uiso   1.00
N422   N     0.43077   0.69442   0.04079   0.00000  Uiso   1.00
O423   O     0.46308   0.91286   0.25299   0.00000  Uiso   1.00
O424   O     0.53692   0.75381   0.24702   0.00000  Uiso   1.00
O425   O     0.55946   0.90387   0.24519   0.00000  Uiso   1.00
O426   O     0.44054   0.76279   0.25482   0.00000  Uiso   1.00
O427   O     0.45181   0.83784   0.31998   0.00000  Uiso   1.00
O428   O     0.54819   0.82883   0.18003   0.00000  Uiso   1.00
O429   O     0.54819   0.82885   0.31218   0.00000  Uiso   1.00
O430   O     0.45181   0.83781   0.18783   0.00000  Uiso   1.00
Zn431  Zn    0.43565   0.83933   0.25521   0.00000  Uiso   1.00
Zn432  Zn    0.56435   0.82734   0.24479   0.00000  Uiso   1.00
C433   C     0.84859   0.93156   0.24884   0.00000  Uiso   1.00
C434   C     0.85879   0.87907   0.40604   0.00000  Uiso   1.00
C435   C     0.83035   0.83161   0.11622   0.00000  Uiso   1.00
C436   C     0.83626   0.83461   0.38377   0.00000  Uiso   1.00
C437   C     0.85297   0.87543   0.09345   0.00000  Uiso   1.00
C438   C     0.81348   0.79068   0.40641   0.00000  Uiso   1.00
C439   C     0.85400   0.87612   0.04727   0.00000  Uiso   1.00
C440   C     0.81256   0.78970   0.45264   0.00000  Uiso   1.00
C441   C     0.83232   0.83194   0.02353   0.00000  Uiso   1.00
C442   C     0.83433   0.83364   0.47651   0.00000  Uiso   1.00
C443   C     0.80891   0.78626   0.04678   0.00000  Uiso   1.00
C444   C     0.81808   0.73510   0.25115   0.00000  Uiso   1.00
C445   C     0.85789   0.87917   0.45331   0.00000  Uiso   1.00
C446   C     0.87693   0.92069   0.02491   0.00000  Uiso   1.00
C447   C     0.78983   0.74505   0.47488   0.00000  Uiso   1.00
C448   C     0.87924   0.92286   0.47827   0.00000  Uiso   1.00
C449   C     0.78781   0.74242   0.02136   0.00000  Uiso   1.00
C450   C     0.85662   0.98607   0.24819   0.00000  Uiso   1.00
C451   C     0.81005   0.68059   0.25179   0.00000  Uiso   1.00
C452   C     0.83427   0.83387   0.33629   0.00000  Uiso   1.00
C453   C     0.83239   0.83275   0.16371   0.00000  Uiso   1.00
C454   C     0.80809   0.78683   0.09418   0.00000  Uiso   1.00
H455   H     0.89339   0.95431   0.04375   0.00000  Uiso   1.00
H456   H     0.84859   0.93646   0.36165   0.00000  Uiso   1.00
H457   H     0.86991   0.90911   0.11205   0.00000  Uiso   1.00
H458   H     0.79640   0.75716   0.38769   0.00000  Uiso   1.00
H459   H     0.87999   0.66746   0.46929   0.00000  Uiso   1.00
H460   H     0.94581   0.97633   0.46629   0.00000  Uiso   1.00
H461   H     0.72754   0.70149   0.06174   0.00000  Uiso   1.00
H462   H     0.79529   0.67755   0.05838   0.00000  Uiso   1.00
H463   H     0.77350   0.71149   0.45590   0.00000  Uiso   1.00
H464   H     0.90061   0.66977   0.24477   0.00000  Uiso   1.00
H465   H     0.76606   0.99690   0.25520   0.00000  Uiso   1.00
H466   H     0.67122   0.79426   0.21605   0.00000  Uiso   1.00
H467   H     0.99544   0.87241   0.28395   0.00000  Uiso   1.00
H468   H     0.81873   0.73024   0.13921   0.00000  Uiso   1.00
H469   H     0.75177   0.75330   0.14192   0.00000  Uiso   1.00
H470   H     0.91538   0.91312   0.35876   0.00000  Uiso   1.00
N471   N     0.98344   0.81932   0.23783   0.00000  Uiso   1.00
N472   N     0.68322   0.84735   0.26217   0.00000  Uiso   1.00
N473   N     0.78615   0.74241   0.12014   0.00000  Uiso   1.00
N474   N     0.88105   0.92389   0.38065   0.00000  Uiso   1.00
N475   N     0.90350   0.96963   0.45699   0.00000  Uiso   1.00
N476   N     0.76410   0.69442   0.04079   0.00000  Uiso   1.00
O477   O     0.79642   0.91286   0.25299   0.00000  Uiso   1.00
O478   O     0.87025   0.75381   0.24702   0.00000  Uiso   1.00
O479   O     0.89280   0.90387   0.24519   0.00000  Uiso   1.00
O480   O     0.77387   0.76279   0.25482   0.00000  Uiso   1.00
O481   O     0.78514   0.83784   0.31998   0.00000  Uiso   1.00
O482   O     0.88153   0.82883   0.18003   0.00000  Uiso   1.00
O483   O     0.88152   0.82885   0.31218   0.00000  Uiso   1.00
O484   O     0.78515   0.83781   0.18783   0.00000  Uiso   1.00
Zn485  Zn    0.76898   0.83933   0.25521   0.00000  Uiso   1.00
Zn486  Zn    0.89769   0.82734   0.24479   0.00000  Uiso   1.00
C487   C     0.18192   0.26490   0.74884   0.00000  Uiso   1.00
C488   C     0.19213   0.21240   0.90604   0.00000  Uiso   1.00
C489   C     0.16368   0.16494   0.61622   0.00000  Uiso   1.00
C490   C     0.16959   0.16795   0.88377   0.00000  Uiso   1.00
C491   C     0.18630   0.20876   0.59345   0.00000  Uiso   1.00
C492   C     0.14681   0.12402   0.90641   0.00000  Uiso   1.00
C493   C     0.18733   0.20945   0.54727   0.00000  Uiso   1.00
C494   C     0.14590   0.12303   0.95264   0.00000  Uiso   1.00
C495   C     0.16565   0.16527   0.52353   0.00000  Uiso   1.00
C496   C     0.16767   0.16698   0.97651   0.00000  Uiso   1.00
C497   C     0.14224   0.11960   0.54678   0.00000  Uiso   1.00
C498   C     0.15141   0.06844   0.75115   0.00000  Uiso   1.00
C499   C     0.19123   0.21251   0.95331   0.00000  Uiso   1.00
C500   C     0.21027   0.25403   0.52491   0.00000  Uiso   1.00
C501   C     0.12316   0.07839   0.97488   0.00000  Uiso   1.00
C502   C     0.21258   0.25619   0.97827   0.00000  Uiso   1.00
C503   C     0.12115   0.07575   0.52136   0.00000  Uiso   1.00
C504   C     0.18995   0.31941   0.74819   0.00000  Uiso   1.00
C505   C     0.14338   0.01393   0.75179   0.00000  Uiso   1.00
C506   C     0.16761   0.16720   0.83629   0.00000  Uiso   1.00
C507   C     0.16572   0.16609   0.66371   0.00000  Uiso   1.00
C508   C     0.14142   0.12016   0.59418   0.00000  Uiso   1.00
H509   H     0.22673   0.28764   0.54375   0.00000  Uiso   1.00
H510   H     0.18192   0.26979   0.86165   0.00000  Uiso   1.00
H511   H     0.20324   0.24245   0.61205   0.00000  Uiso   1.00
H512   H     0.12973   0.09049   0.88769   0.00000  Uiso   1.00
H513   H     0.21333   0.00079   0.96929   0.00000  Uiso   1.00
H514   H     0.27914   0.30966   0.96629   0.00000  Uiso   1.00
H515   H     0.06088   0.03483   0.56174   0.00000  Uiso   1.00
H516   H     0.12863   0.01088   0.55838   0.00000  Uiso   1.00
H517   H     0.10683   0.04483   0.95590   0.00000  Uiso   1.00
H518   H     0.23394   0.00310   0.74477   0.00000  Uiso   1.00
H519   H     0.09939   0.33023   0.75520   0.00000  Uiso   1.00
H520   H     0.00456   0.12759   0.71605   0.00000  Uiso   1.00
H521   H     0.32878   0.20574   0.78395   0.00000  Uiso   1.00
H522   H     0.15207   0.06358   0.63921   0.00000  Uiso   1.00
H523   H     0.08511   0.08663   0.64192   0.00000  Uiso   1.00
H524   H     0.24871   0.24646   0.85876   0.00000  Uiso   1.00
N525   N     0.31678   0.15265   0.73783   0.00000  Uiso   1.00
N526   N     0.01656   0.18068   0.76217   0.00000  Uiso   1.00
N527   N     0.11948   0.07574   0.62014   0.00000  Uiso   1.00
N528   N     0.21438   0.25722   0.88065   0.00000  Uiso   1.00
N529   N     0.23683   0.30296   0.95699   0.00000  Uiso   1.00
N530   N     0.09743   0.02775   0.54079   0.00000  Uiso   1.00
O531   O     0.12975   0.24619   0.75299   0.00000  Uiso   1.00
O532   O     0.20358   0.08714   0.74702   0.00000  Uiso   1.00
O533   O     0.22613   0.23721   0.74519   0.00000  Uiso   1.00
O534   O     0.10720   0.09613   0.75482   0.00000  Uiso   1.00
O535   O     0.11847   0.17117   0.81998   0.00000  Uiso   1.00
O536   O     0.21486   0.16216   0.68003   0.00000  Uiso   1.00
O537   O     0.21485   0.16219   0.81218   0.00000  Uiso   1.00
O538   O     0.11848   0.17115   0.68783   0.00000  Uiso   1.00
Zn539  Zn    0.10231   0.17266   0.75521   0.00000  Uiso   1.00
Zn540  Zn    0.23102   0.16067   0.74479   0.00000  Uiso   1.00
C541   C     0.51525   0.26490   0.74884   0.00000  Uiso   1.00
C542   C     0.52546   0.21240   0.90604   0.00000  Uiso   1.00
C543   C     0.49702   0.16494   0.61622   0.00000  Uiso   1.00
C544   C     0.50292   0.16795   0.88377   0.00000  Uiso   1.00
C545   C     0.51964   0.20876   0.59345   0.00000  Uiso   1.00
C546   C     0.48014   0.12402   0.90641   0.00000  Uiso   1.00
C547   C     0.52067   0.20945   0.54727   0.00000  Uiso   1.00
C548   C     0.47923   0.12303   0.95264   0.00000  Uiso   1.00
C549   C     0.49898   0.16527   0.52353   0.00000  Uiso   1.00
C550   C     0.50100   0.16698   0.97651   0.00000  Uiso   1.00
C551   C     0.47557   0.11960   0.54678   0.00000  Uiso   1.00
C552   C     0.48475   0.06844   0.75115   0.00000  Uiso   1.00
C553   C     0.52456   0.21251   0.95331   0.00000  Uiso   1.00
C554   C     0.54360   0.25403   0.52491   0.00000  Uiso   1.00
C555   C     0.45650   0.07839   0.97488   0.00000  Uiso   1.00
C556   C     0.54591   0.25619   0.97827   0.00000  Uiso   1.00
C557   C     0.45448   0.07575   0.52136   0.00000  Uiso   1.00
C558   C     0.52329   0.31941   0.74819   0.00000  Uiso   1.00
C559   C     0.47671   0.01393   0.75179   0.00000  Uiso   1.00
C560   C     0.50094   0.16720   0.83629   0.00000  Uiso   1.00
C561   C     0.49905   0.16609   0.66371   0.00000  Uiso   1.00
C562   C     0.47475   0.12016   0.59418   0.00000  Uiso   1.00
H563   H     0.56006   0.28764   0.54375   0.00000  Uiso   1.00
H564   H     0.51526   0.26979   0.86165   0.00000  Uiso   1.00
H565   H     0.53658   0.24245   0.61205   0.00000  Uiso   1.00
H566   H     0.46307   0.09049   0.88769   0.00000  Uiso   1.00
H567   H     0.54666   0.00079   0.96929   0.00000  Uiso   1.00
H568   H     0.61247   0.30966   0.96629   0.00000  Uiso   1.00
H569   H     0.39421   0.03483   0.56174   0.00000  Uiso   1.00
H570   H     0.46196   0.01088   0.55838   0.00000  Uiso   1.00
H571   H     0.44016   0.04483   0.95590   0.00000  Uiso   1.00
H572   H     0.56728   0.00310   0.74477   0.00000  Uiso   1.00
H573   H     0.43272   0.33023   0.75520   0.00000  Uiso   1.00
H574   H     0.33789   0.12759   0.71605   0.00000  Uiso   1.00
H575   H     0.66211   0.20574   0.78395   0.00000  Uiso   1.00
H576   H     0.48540   0.06358   0.63921   0.00000  Uiso   1.00
H577   H     0.41844   0.08663   0.64192   0.00000  Uiso   1.00
H578   H     0.58204   0.24646   0.85876   0.00000  Uiso   1.00
N579   N     0.65011   0.15265   0.73783   0.00000  Uiso   1.00
N580   N     0.34989   0.18068   0.76217   0.00000  Uiso   1.00
N581   N     0.45281   0.07574   0.62014   0.00000  Uiso   1.00
N582   N     0.54772   0.25722   0.88065   0.00000  Uiso   1.00
N583   N     0.57017   0.30296   0.95699   0.00000  Uiso   1.00
N584   N     0.43077   0.02775   0.54079   0.00000  Uiso   1.00
O585   O     0.46308   0.24619   0.75299   0.00000  Uiso   1.00
O586   O     0.53692   0.08714   0.74702   0.00000  Uiso   1.00
O587   O     0.55946   0.23721   0.74519   0.00000  Uiso   1.00
O588   O     0.44054   0.09613   0.75482   0.00000  Uiso   1.00
O589   O     0.45181   0.17117   0.81998   0.00000  Uiso   1.00
O590   O     0.54819   0.16216   0.68003   0.00000  Uiso   1.00
O591   O     0.54819   0.16219   0.81218   0.00000  Uiso   1.00
O592   O     0.45181   0.17115   0.68783   0.00000  Uiso   1.00
Zn593  Zn    0.43565   0.17266   0.75521   0.00000  Uiso   1.00
Zn594  Zn    0.56435   0.16067   0.74479   0.00000  Uiso   1.00
C595   C     0.84859   0.26490   0.74884   0.00000  Uiso   1.00
C596   C     0.85879   0.21240   0.90604   0.00000  Uiso   1.00
C597   C     0.83035   0.16494   0.61622   0.00000  Uiso   1.00
C598   C     0.83626   0.16795   0.88377   0.00000  Uiso   1.00
C599   C     0.85297   0.20876   0.59345   0.00000  Uiso   1.00
C600   C     0.81348   0.12402   0.90641   0.00000  Uiso   1.00
C601   C     0.85400   0.20945   0.54727   0.00000  Uiso   1.00
C602   C     0.81256   0.12303   0.95264   0.00000  Uiso   1.00
C603   C     0.83232   0.16527   0.52353   0.00000  Uiso   1.00
C604   C     0.83433   0.16698   0.97651   0.00000  Uiso   1.00
C605   C     0.80891   0.11960   0.54678   0.00000  Uiso   1.00
C606   C     0.81808   0.06844   0.75115   0.00000  Uiso   1.00
C607   C     0.85789   0.21251   0.95331   0.00000  Uiso   1.00
C608   C     0.87693   0.25403   0.52491   0.00000  Uiso   1.00
C609   C     0.78983   0.07839   0.97488   0.00000  Uiso   1.00
C610   C     0.87924   0.25619   0.97827   0.00000  Uiso   1.00
C611   C     0.78781   0.07575   0.52136   0.00000  Uiso   1.00
C612   C     0.85662   0.31941   0.74819   0.00000  Uiso   1.00
C613   C     0.81005   0.01393   0.75179   0.00000  Uiso   1.00
C614   C     0.83427   0.16720   0.83629   0.00000  Uiso   1.00
C615   C     0.83239   0.16609   0.66371   0.00000  Uiso   1.00
C616   C     0.80809   0.12016   0.59418   0.00000  Uiso   1.00
H617   H     0.89339   0.28764   0.54375   0.00000  Uiso   1.00
H618   H     0.84859   0.26979   0.86165   0.00000  Uiso   1.00
H619   H     0.86991   0.24245   0.61205   0.00000  Uiso   1.00
H620   H     0.79640   0.09049   0.88769   0.00000  Uiso   1.00
H621   H     0.87999   0.00079   0.96929   0.00000  Uiso   1.00
H622   H     0.94581   0.30966   0.96629   0.00000  Uiso   1.00
H623   H     0.72754   0.03483   0.56174   0.00000  Uiso   1.00
H624   H     0.79529   0.01088   0.55838   0.00000  Uiso   1.00
H625   H     0.77350   0.04483   0.95590   0.00000  Uiso   1.00
H626   H     0.90061   0.00310   0.74477   0.00000  Uiso   1.00
H627   H     0.76606   0.33023   0.75520   0.00000  Uiso   1.00
H628   H     0.67122   0.12759   0.71605   0.00000  Uiso   1.00
H629   H     0.99544   0.20574   0.78395   0.00000  Uiso   1.00
H630   H     0.81873   0.06358   0.63921   0.00000  Uiso   1.00
H631   H     0.75177   0.08663   0.64192   0.00000  Uiso   1.00
H632   H     0.91538   0.24646   0.85876   0.00000  Uiso   1.00
N633   N     0.98344   0.15265   0.73783   0.00000  Uiso   1.00
N634   N     0.68322   0.18068   0.76217   0.00000  Uiso   1.00
N635   N     0.78615   0.07574   0.62014   0.00000  Uiso   1.00
N636   N     0.88105   0.25722   0.88065   0.00000  Uiso   1.00
N637   N     0.90350   0.30296   0.95699   0.00000  Uiso   1.00
N638   N     0.76410   0.02775   0.54079   0.00000  Uiso   1.00
O639   O     0.79642   0.24619   0.75299   0.00000  Uiso   1.00
O640   O     0.87025   0.08714   0.74702   0.00000  Uiso   1.00
O641   O     0.89280   0.23721   0.74519   0.00000  Uiso   1.00
O642   O     0.77387   0.09613   0.75482   0.00000  Uiso   1.00
O643   O     0.78514   0.17117   0.81998   0.00000  Uiso   1.00
O644   O     0.88153   0.16216   0.68003   0.00000  Uiso   1.00
O645   O     0.88152   0.16219   0.81218   0.00000  Uiso   1.00
O646   O     0.78515   0.17115   0.68783   0.00000  Uiso   1.00
Zn647  Zn    0.76898   0.17266   0.75521   0.00000  Uiso   1.00
Zn648  Zn    0.89769   0.16067   0.74479   0.00000  Uiso   1.00
C649   C     0.18192   0.59823   0.74884   0.00000  Uiso   1.00
C650   C     0.19213   0.54573   0.90604   0.00000  Uiso   1.00
C651   C     0.16368   0.49828   0.61622   0.00000  Uiso   1.00
C652   C     0.16959   0.50128   0.88377   0.00000  Uiso   1.00
C653   C     0.18630   0.54210   0.59345   0.00000  Uiso   1.00
C654   C     0.14681   0.45735   0.90641   0.00000  Uiso   1.00
C655   C     0.18733   0.54279   0.54727   0.00000  Uiso   1.00
C656   C     0.14590   0.45636   0.95264   0.00000  Uiso   1.00
C657   C     0.16565   0.49860   0.52353   0.00000  Uiso   1.00
C658   C     0.16767   0.50031   0.97651   0.00000  Uiso   1.00
C659   C     0.14224   0.45293   0.54678   0.00000  Uiso   1.00
C660   C     0.15141   0.40177   0.75115   0.00000  Uiso   1.00
C661   C     0.19123   0.54584   0.95331   0.00000  Uiso   1.00
C662   C     0.21027   0.58736   0.52491   0.00000  Uiso   1.00
C663   C     0.12316   0.41172   0.97488   0.00000  Uiso   1.00
C664   C     0.21258   0.58952   0.97827   0.00000  Uiso   1.00
C665   C     0.12115   0.40909   0.52136   0.00000  Uiso   1.00
C666   C     0.18995   0.65274   0.74819   0.00000  Uiso   1.00
C667   C     0.14338   0.34726   0.75179   0.00000  Uiso   1.00
C668   C     0.16761   0.50054   0.83629   0.00000  Uiso   1.00
C669   C     0.16572   0.49942   0.66371   0.00000  Uiso   1.00
C670   C     0.14142   0.45350   0.59418   0.00000  Uiso   1.00
H671   H     0.22673   0.62097   0.54375   0.00000  Uiso   1.00
H672   H     0.18192   0.60312   0.86165   0.00000  Uiso   1.00
H673   H     0.20324   0.57578   0.61205   0.00000  Uiso   1.00
H674   H     0.12973   0.42382   0.88769   0.00000  Uiso   1.00
H675   H     0.21333   0.33412   0.96929   0.00000  Uiso   1.00
H676   H     0.27914   0.64299   0.96629   0.00000  Uiso   1.00
H677   H     0.06088   0.36816   0.56174   0.00000  Uiso   1.00
H678   H     0.12863   0.34421   0.55838   0.00000  Uiso   1.00
H679   H     0.10683   0.37816   0.95590   0.00000  Uiso   1.00
H680   H     0.23394   0.33643   0.74477   0.00000  Uiso   1.00
H681   H     0.09939   0.66357   0.75520   0.00000  Uiso   1.00
H682   H     0.00456   0.46093   0.71605   0.00000  Uiso   1.00
H683   H     0.32878   0.53907   0.78395   0.00000  Uiso   1.00
H684   H     0.15207   0.39691   0.63921   0.00000  Uiso   1.00
H685   H     0.08511   0.41997   0.64192   0.00000  Uiso   1.00
H686   H     0.24871   0.57979   0.85876   0.00000  Uiso   1.00
N687   N     0.31678   0.48598   0.73783   0.00000  Uiso   1.00
N688   N     0.01656   0.51402   0.76217   0.00000  Uiso   1.00
N689   N     0.11948   0.40908   0.62014   0.00000  Uiso   1.00
N690   N     0.21438   0.59056   0.88065   0.00000  Uiso   1.00
N691   N     0.23683   0.63630   0.95699   0.00000  Uiso   1.00
N692   N     0.09743   0.36109   0.54079   0.00000  Uiso   1.00
O693   O     0.12975   0.57952   0.75299   0.00000  Uiso   1.00
O694   O     0.20358   0.42048   0.74702   0.00000  Uiso   1.00
O695   O     0.22613   0.57054   0.74519   0.00000  Uiso   1.00
O696   O     0.10720   0.42946   0.75482   0.00000  Uiso   1.00
O697   O     0.11847   0.50450   0.81998   0.00000  Uiso   1.00
O698   O     0.21486   0.49550   0.68003   0.00000  Uiso   1.00
O699   O     0.21485   0.49552   0.81218   0.00000  Uiso   1.00
O700   O     0.11848   0.50448   0.68783   0.00000  Uiso   1.00
Zn701  Zn    0.10231   0.50600   0.75521   0.00000  Uiso   1.00
Zn702  Zn    0.23102   0.49400   0.74479   0.00000  Uiso   1.00
C703   C     0.51525   0.59823   0.74884   0.00000  Uiso   1.00
C704   C     0.52546   0.54573   0.90604   0.00000  Uiso   1.00
C705   C     0.49702   0.49828   0.61622   0.00000  Uiso   1.00
C706   C     0.50292   0.50128   0.88377   0.00000  Uiso   1.00
C707   C     0.51964   0.54210   0.59345   0.00000  Uiso   1.00
C708   C     0.48014   0.45735   0.90641   0.00000  Uiso   1.00
C709   C     0.52067   0.54279   0.54727   0.00000  Uiso   1.00
C710   C     0.47923   0.45636   0.95264   0.00000  Uiso   1.00
C711   C     0.49898   0.49860   0.52353   0.00000  Uiso   1.00
C712   C     0.50100   0.50031   0.97651   0.00000  Uiso   1.00
C713   C     0.47557   0.45293   0.54678   0.00000  Uiso   1.00
C714   C     0.48475   0.40177   0.75115   0.00000  Uiso   1.00
C715   C     0.52456   0.54584   0.95331   0.00000  Uiso   1.00
C716   C     0.54360   0.58736   0.52491   0.00000  Uiso   1.00
C717   C     0.45650   0.41172   0.97488   0.00000  Uiso   1.00
C718   C     0.54591   0.58952   0.97827   0.00000  Uiso   1.00
C719   C     0.45448   0.40909   0.52136   0.00000  Uiso   1.00
C720   C     0.52329   0.65274   0.74819   0.00000  Uiso   1.00
C721   C     0.47671   0.34726   0.75179   0.00000  Uiso   1.00
C722   C     0.50094   0.50054   0.83629   0.00000  Uiso   1.00
C723   C     0.49905   0.49942   0.66371   0.00000  Uiso   1.00
C724   C     0.47475   0.45350   0.59418   0.00000  Uiso   1.00
H725   H     0.56006   0.62097   0.54375   0.00000  Uiso   1.00
H726   H     0.51526   0.60312   0.86165   0.00000  Uiso   1.00
H727   H     0.53658   0.57578   0.61205   0.00000  Uiso   1.00
H728   H     0.46307   0.42382   0.88769   0.00000  Uiso   1.00
H729   H     0.54666   0.33412   0.96929   0.00000  Uiso   1.00
H730   H     0.61247   0.64299   0.96629   0.00000  Uiso   1.00
H731   H     0.39421   0.36816   0.56174   0.00000  Uiso   1.00
H732   H     0.46196   0.34421   0.55838   0.00000  Uiso   1.00
H733   H     0.44016   0.37816   0.95590   0.00000  Uiso   1.00
H734   H     0.56728   0.33643   0.74477   0.00000  Uiso   1.00
H735   H     0.43272   0.66357   0.75520   0.00000  Uiso   1.00
H736   H     0.33789   0.46093   0.71605   0.00000  Uiso   1.00
H737   H     0.66211   0.53907   0.78395   0.00000  Uiso   1.00
H738   H     0.48540   0.39691   0.63921   0.00000  Uiso   1.00
H739   H     0.41844   0.41997   0.64192   0.00000  Uiso   1.00
H740   H     0.58204   0.57979   0.85876   0.00000  Uiso   1.00
N741   N     0.65011   0.48598   0.73783   0.00000  Uiso   1.00
N742   N     0.34989   0.51402   0.76217   0.00000  Uiso   1.00
N743   N     0.45281   0.40908   0.62014   0.00000  Uiso   1.00
N744   N     0.54772   0.59056   0.88065   0.00000  Uiso   1.00
N745   N     0.57017   0.63630   0.95699   0.00000  Uiso   1.00
N746   N     0.43077   0.36109   0.54079   0.00000  Uiso   1.00
O747   O     0.46308   0.57952   0.75299   0.00000  Uiso   1.00
O748   O     0.53692   0.42048   0.74702   0.00000  Uiso   1.00
O749   O     0.55946   0.57054   0.74519   0.00000  Uiso   1.00
O750   O     0.44054   0.42946   0.75482   0.00000  Uiso   1.00
O751   O     0.45181   0.50450   0.81998   0.00000  Uiso   1.00
O752   O     0.54819   0.49550   0.68003   0.00000  Uiso   1.00
O753   O     0.54819   0.49552   0.81218   0.00000  Uiso   1.00
O754   O     0.45181   0.50448   0.68783   0.00000  Uiso   1.00
Zn755  Zn    0.43565   0.50600   0.75521   0.00000  Uiso   1.00
Zn756  Zn    0.56435   0.49400   0.74479   0.00000  Uiso   1.00
C757   C     0.84859   0.59823   0.74884   0.00000  Uiso   1.00
C758   C     0.85879   0.54573   0.90604   0.00000  Uiso   1.00
C759   C     0.83035   0.49828   0.61622   0.00000  Uiso   1.00
C760   C     0.83626   0.50128   0.88377   0.00000  Uiso   1.00
C761   C     0.85297   0.54210   0.59345   0.00000  Uiso   1.00
C762   C     0.81348   0.45735   0.90641   0.00000  Uiso   1.00
C763   C     0.85400   0.54279   0.54727   0.00000  Uiso   1.00
C764   C     0.81256   0.45636   0.95264   0.00000  Uiso   1.00
C765   C     0.83232   0.49860   0.52353   0.00000  Uiso   1.00
C766   C     0.83433   0.50031   0.97651   0.00000  Uiso   1.00
C767   C     0.80891   0.45293   0.54678   0.00000  Uiso   1.00
C768   C     0.81808   0.40177   0.75115   0.00000  Uiso   1.00
C769   C     0.85789   0.54584   0.95331   0.00000  Uiso   1.00
C770   C     0.87693   0.58736   0.52491   0.00000  Uiso   1.00
C771   C     0.78983   0.41172   0.97488   0.00000  Uiso   1.00
C772   C     0.87924   0.58952   0.97827   0.00000  Uiso   1.00
C773   C     0.78781   0.40909   0.52136   0.00000  Uiso   1.00
C774   C     0.85662   0.65274   0.74819   0.00000  Uiso   1.00
C775   C     0.81005   0.34726   0.75179   0.00000  Uiso   1.00
C776   C     0.83427   0.50054   0.83629   0.00000  Uiso   1.00
C777   C     0.83239   0.49942   0.66371   0.00000  Uiso   1.00
C778   C     0.80809   0.45350   0.59418   0.00000  Uiso   1.00
H779   H     0.89339   0.62097   0.54375   0.00000  Uiso   1.00
H780   H     0.84859   0.60312   0.86165   0.00000  Uiso   1.00
H781   H     0.86991   0.57578   0.61205   0.00000  Uiso   1.00
H782   H     0.79640   0.42382   0.88769   0.00000  Uiso   1.00
H783   H     0.87999   0.33412   0.96929   0.00000  Uiso   1.00
H784   H     0.94581   0.64299   0.96629   0.00000  Uiso   1.00
H785   H     0.72754   0.36816   0.56174   0.00000  Uiso   1.00
H786   H     0.79529   0.34421   0.55838   0.00000  Uiso   1.00
H787   H     0.77350   0.37816   0.95590   0.00000  Uiso   1.00
H788   H     0.90061   0.33643   0.74477   0.00000  Uiso   1.00
H789   H     0.76606   0.66357   0.75520   0.00000  Uiso   1.00
H790   H     0.67122   0.46093   0.71605   0.00000  Uiso   1.00
H791   H     0.99544   0.53907   0.78395   0.00000  Uiso   1.00
H792   H     0.81873   0.39691   0.63921   0.00000  Uiso   1.00
H793   H     0.75177   0.41997   0.64192   0.00000  Uiso   1.00
H794   H     0.91538   0.57979   0.85876   0.00000  Uiso   1.00
N795   N     0.98344   0.48598   0.73783   0.00000  Uiso   1.00
N796   N     0.68322   0.51402   0.76217   0.00000  Uiso   1.00
N797   N     0.78615   0.40908   0.62014   0.00000  Uiso   1.00
N798   N     0.88105   0.59056   0.88065   0.00000  Uiso   1.00
N799   N     0.90350   0.63630   0.95699   0.00000  Uiso   1.00
N800   N     0.76410   0.36109   0.54079   0.00000  Uiso   1.00
O801   O     0.79642   0.57952   0.75299   0.00000  Uiso   1.00
O802   O     0.87025   0.42048   0.74702   0.00000  Uiso   1.00
O803   O     0.89280   0.57054   0.74519   0.00000  Uiso   1.00
O804   O     0.77387   0.42946   0.75482   0.00000  Uiso   1.00
O805   O     0.78514   0.50450   0.81998   0.00000  Uiso   1.00
O806   O     0.88153   0.49550   0.68003   0.00000  Uiso   1.00
O807   O     0.88152   0.49552   0.81218   0.00000  Uiso   1.00
O808   O     0.78515   0.50448   0.68783   0.00000  Uiso   1.00
Zn809  Zn    0.76898   0.50600   0.75521   0.00000  Uiso   1.00
Zn810  Zn    0.89769   0.49400   0.74479   0.00000  Uiso   1.00
C811   C     0.18192   0.93156   0.74884   0.00000  Uiso   1.00
C812   C     0.19213   0.87907   0.90604   0.00000  Uiso   1.00
C813   C     0.16368   0.83161   0.61622   0.00000  Uiso   1.00
C814   C     0.16959   0.83461   0.88377   0.00000  Uiso   1.00
C815   C     0.18630   0.87543   0.59345   0.00000  Uiso   1.00
C816   C     0.14681   0.79068   0.90641   0.00000  Uiso   1.00
C817   C     0.18733   0.87612   0.54727   0.00000  Uiso   1.00
C818   C     0.14590   0.78970   0.95264   0.00000  Uiso   1.00
C819   C     0.16565   0.83194   0.52353   0.00000  Uiso   1.00
C820   C     0.16767   0.83364   0.97651   0.00000  Uiso   1.00
C821   C     0.14224   0.78626   0.54678   0.00000  Uiso   1.00
C822   C     0.15141   0.73510   0.75115   0.00000  Uiso   1.00
C823   C     0.19123   0.87917   0.95331   0.00000  Uiso   1.00
C824   C     0.21027   0.92069   0.52491   0.00000  Uiso   1.00
C825   C     0.12316   0.74505   0.97488   0.00000  Uiso   1.00
C826   C     0.21258   0.92286   0.97827   0.00000  Uiso   1.00
C827   C     0.12115   0.74242   0.52136   0.00000  Uiso   1.00
C828   C     0.18995   0.98607   0.74819   0.00000  Uiso   1.00
C829   C     0.14338   0.68059   0.75179   0.00000  Uiso   1.00
C830   C     0.16761   0.83387   0.83629   0.00000  Uiso   1.00
C831   C     0.16572   0.83275   0.66371   0.00000  Uiso   1.00
C832   C     0.14142   0.78683   0.59418   0.00000  Uiso   1.00
H833   H     0.22673   0.95431   0.54375   0.00000  Uiso   1.00
H834   H     0.18192   0.93646   0.86165   0.00000  Uiso   1.00
H835   H     0.20324   0.90911   0.61205   0.00000  Uiso   1.00
H836   H     0.12973   0.75716   0.88769   0.00000  Uiso   1.00
H837   H     0.21333   0.66746   0.96929   0.00000  Uiso   1.00
H838   H     0.27914   0.97633   0.96629   0.00000  Uiso   1.00
H839   H     0.06088   0.70149   0.56174   0.00000  Uiso   1.00
H840   H     0.12863   0.67755   0.55838   0.00000  Uiso   1.00
H841   H     0.10683   0.71149   0.95590   0.00000  Uiso   1.00
H842   H     0.23394   0.66977   0.74477   0.00000  Uiso   1.00
H843   H     0.09939   0.99690   0.75520   0.00000  Uiso   1.00
H844   H     0.00456   0.79426   0.71605   0.00000  Uiso   1.00
H845   H     0.32878   0.87241   0.78395   0.00000  Uiso   1.00
H846   H     0.15207   0.73024   0.63921   0.00000  Uiso   1.00
H847   H     0.08511   0.75330   0.64192   0.00000  Uiso   1.00
H848   H     0.24871   0.91312   0.85876   0.00000  Uiso   1.00
N849   N     0.31678   0.81932   0.73783   0.00000  Uiso   1.00
N850   N     0.01656   0.84735   0.76217   0.00000  Uiso   1.00
N851   N     0.11948   0.74241   0.62014   0.00000  Uiso   1.00
N852   N     0.21438   0.92389   0.88065   0.00000  Uiso   1.00
N853   N     0.23683   0.96963   0.95699   0.00000  Uiso   1.00
N854   N     0.09743   0.69442   0.54079   0.00000  Uiso   1.00
O855   O     0.12975   0.91286   0.75299   0.00000  Uiso   1.00
O856   O     0.20358   0.75381   0.74702   0.00000  Uiso   1.00
O857   O     0.22613   0.90387   0.74519   0.00000  Uiso   1.00
O858   O     0.10720   0.76279   0.75482   0.00000  Uiso   1.00
O859   O     0.11847   0.83784   0.81998   0.00000  Uiso   1.00
O860   O     0.21486   0.82883   0.68003   0.00000  Uiso   1.00
O861   O     0.21485   0.82885   0.81218   0.00000  Uiso   1.00
O862   O     0.11848   0.83781   0.68783   0.00000  Uiso   1.00
Zn863  Zn    0.10231   0.83933   0.75521   0.00000  Uiso   1.00
Zn864  Zn    0.23102   0.82734   0.74479   0.00000  Uiso   1.00
C865   C     0.51525   0.93156   0.74884   0.00000  Uiso   1.00
C866   C     0.52546   0.87907   0.90604   0.00000  Uiso   1.00
C867   C     0.49702   0.83161   0.61622   0.00000  Uiso   1.00
C868   C     0.50292   0.83461   0.88377   0.00000  Uiso   1.00
C869   C     0.51964   0.87543   0.59345   0.00000  Uiso   1.00
C870   C     0.48014   0.79068   0.90641   0.00000  Uiso   1.00
C871   C     0.52067   0.87612   0.54727   0.00000  Uiso   1.00
C872   C     0.47923   0.78970   0.95264   0.00000  Uiso   1.00
C873   C     0.49898   0.83194   0.52353   0.00000  Uiso   1.00
C874   C     0.50100   0.83364   0.97651   0.00000  Uiso   1.00
C875   C     0.47557   0.78626   0.54678   0.00000  Uiso   1.00
C876   C     0.48475   0.73510   0.75115   0.00000  Uiso   1.00
C877   C     0.52456   0.87917   0.95331   0.00000  Uiso   1.00
C878   C     0.54360   0.92069   0.52491   0.00000  Uiso   1.00
C879   C     0.45650   0.74505   0.97488   0.00000  Uiso   1.00
C880   C     0.54591   0.92286   0.97827   0.00000  Uiso   1.00
C881   C     0.45448   0.74242   0.52136   0.00000  Uiso   1.00
C882   C     0.52329   0.98607   0.74819   0.00000  Uiso   1.00
C883   C     0.47671   0.68059   0.75179   0.00000  Uiso   1.00
C884   C     0.50094   0.83387   0.83629   0.00000  Uiso   1.00
C885   C     0.49905   0.83275   0.66371   0.00000  Uiso   1.00
C886   C     0.47475   0.78683   0.59418   0.00000  Uiso   1.00
H887   H     0.56006   0.95431   0.54375   0.00000  Uiso   1.00
H888   H     0.51526   0.93646   0.86165   0.00000  Uiso   1.00
H889   H     0.53658   0.90911   0.61205   0.00000  Uiso   1.00
H890   H     0.46307   0.75716   0.88769   0.00000  Uiso   1.00
H891   H     0.54666   0.66746   0.96929   0.00000  Uiso   1.00
H892   H     0.61247   0.97633   0.96629   0.00000  Uiso   1.00
H893   H     0.39421   0.70149   0.56174   0.00000  Uiso   1.00
H894   H     0.46196   0.67755   0.55838   0.00000  Uiso   1.00
H895   H     0.44016   0.71149   0.95590   0.00000  Uiso   1.00
H896   H     0.56728   0.66977   0.74477   0.00000  Uiso   1.00
H897   H     0.43272   0.99690   0.75520   0.00000  Uiso   1.00
H898   H     0.33789   0.79426   0.71605   0.00000  Uiso   1.00
H899   H     0.66211   0.87241   0.78395   0.00000  Uiso   1.00
H900   H     0.48540   0.73024   0.63921   0.00000  Uiso   1.00
H901   H     0.41844   0.75330   0.64192   0.00000  Uiso   1.00
H902   H     0.58204   0.91312   0.85876   0.00000  Uiso   1.00
N903   N     0.65011   0.81932   0.73783   0.00000  Uiso   1.00
N904   N     0.34989   0.84735   0.76217   0.00000  Uiso   1.00
N905   N     0.45281   0.74241   0.62014   0.00000  Uiso   1.00
N906   N     0.54772   0.92389   0.88065   0.00000  Uiso   1.00
N907   N     0.57017   0.96963   0.95699   0.00000  Uiso   1.00
N908   N     0.43077   0.69442   0.54079   0.00000  Uiso   1.00
O909   O     0.46308   0.91286   0.75299   0.00000  Uiso   1.00
O910   O     0.53692   0.75381   0.74702   0.00000  Uiso   1.00
O911   O     0.55946   0.90387   0.74519   0.00000  Uiso   1.00
O912   O     0.44054   0.76279   0.75482   0.00000  Uiso   1.00
O913   O     0.45181   0.83784   0.81998   0.00000  Uiso   1.00
O914   O     0.54819   0.82883   0.68003   0.00000  Uiso   1.00
O915   O     0.54819   0.82885   0.81218   0.00000  Uiso   1.00
O916   O     0.45181   0.83781   0.68783   0.00000  Uiso   1.00
Zn917  Zn    0.43565   0.83933   0.75521   0.00000  Uiso   1.00
Zn918  Zn    0.56435   0.82734   0.74479   0.00000  Uiso   1.00
C919   C     0.84859   0.93156   0.74884   0.00000  Uiso   1.00
C920   C     0.85879   0.87907   0.90604   0.00000  Uiso   1.00
C921   C     0.83035   0.83161   0.61622   0.00000  Uiso   1.00
C922   C     0.83626   0.83461   0.88377   0.00000  Uiso   1.00
C923   C     0.85297   0.87543   0.59345   0.00000  Uiso   1.00
C924   C     0.81348   0.79068   0.90641   0.00000  Uiso   1.00
C925   C     0.85400   0.87612   0.54727   0.00000  Uiso   1.00
C926   C     0.81256   0.78970   0.95264   0.00000  Uiso   1.00
C927   C     0.83232   0.83194   0.52353   0.00000  Uiso   1.00
C928   C     0.83433   0.83364   0.97651   0.00000  Uiso   1.00
C929   C     0.80891   0.78626   0.54678   0.00000  Uiso   1.00
C930   C     0.81808   0.73510   0.75115   0.00000  Uiso   1.00
C931   C     0.85789   0.87917   0.95331   0.00000  Uiso   1.00
C932   C     0.87693   0.92069   0.52491   0.00000  Uiso   1.00
C933   C     0.78983   0.74505   0.97488   0.00000  Uiso   1.00
C934   C     0.87924   0.92286   0.97827   0.00000  Uiso   1.00
C935   C     0.78781   0.74242   0.52136   0.00000  Uiso   1.00
C936   C     0.85662   0.98607   0.74819   0.00000  Uiso   1.00
C937   C     0.81005   0.68059   0.75179   0.00000  Uiso   1.00
C938   C     0.83427   0.83387   0.83629   0.00000  Uiso   1.00
C939   C     0.83239   0.83275   0.66371   0.00000  Uiso   1.00
C940   C     0.80809   0.78683   0.59418   0.00000  Uiso   1.00
H941   H     0.89339   0.95431   0.54375   0.00000  Uiso   1.00
H942   H     0.84859   0.93646   0.86165   0.00000  Uiso   1.00
H943   H     0.86991   0.90911   0.61205   0.00000  Uiso   1.00
H944   H     0.79640   0.75716   0.88769   0.00000  Uiso   1.00
H945   H     0.87999   0.66746   0.96929   0.00000  Uiso   1.00
H946   H     0.94581   0.97633   0.96629   0.00000  Uiso   1.00
H947   H     0.72754   0.70149   0.56174   0.00000  Uiso   1.00
H948   H     0.79529   0.67755   0.55838   0.00000  Uiso   1.00
H949   H     0.77350   0.71149   0.95590   0.00000  Uiso   1.00
H950   H     0.90061   0.66977   0.74477   0.00000  Uiso   1.00
H951   H     0.76606   0.99690   0.75520   0.00000  Uiso   1.00
H952   H     0.67122   0.79426   0.71605   0.00000  Uiso   1.00
H953   H     0.99544   0.87241   0.78395   0.00000  Uiso   1.00
H954   H     0.81873   0.73024   0.63921   0.00000  Uiso   1.00
H955   H     0.75177   0.75330   0.64192   0.00000  Uiso   1.00
H956   H     0.91538   0.91312   0.85876   0.00000  Uiso   1.00
N957   N     0.98344   0.81932   0.73783   0.00000  Uiso   1.00
N958   N     0.68322   0.84735   0.76217   0.00000  Uiso   1.00
N959   N     0.78615   0.74241   0.62014   0.00000  Uiso   1.00
N960   N     0.88105   0.92389   0.88065   0.00000  Uiso   1.00
N961   N     0.90350   0.96963   0.95699   0.00000  Uiso   1.00
N962   N     0.76410   0.69442   0.54079   0.00000  Uiso   1.00
O963   O     0.79642   0.91286   0.75299   0.00000  Uiso   1.00
O964   O     0.87025   0.75381   0.74702   0.00000  Uiso   1.00
O965   O     0.89280   0.90387   0.74519   0.00000  Uiso   1.00
O966   O     0.77387   0.76279   0.75482   0.00000  Uiso   1.00
O967   O     0.78514   0.83784   0.81998   0.00000  Uiso   1.00
O968   O     0.88153   0.82883   0.68003   0.00000  Uiso   1.00
O969   O     0.88152   0.82885   0.81218   0.00000  Uiso   1.00
O970   O     0.78515   0.83781   0.68783   0.00000  Uiso   1.00
Zn971  Zn    0.76898   0.83933   0.75521   0.00000  Uiso   1.00
Zn972  Zn    0.89769   0.82734   0.74479   0.00000  Uiso   1.00
loop_
_geom_bond_atom_site_label_1
_geom_bond_atom_site_label_2
_geom_bond_distance
_geom_bond_site_symmetry_2
_ccdc_geom_bond_type
C1     O47     1.287   .     A
C1     C18     1.401   .     S
C1     O45     1.278   .     A
C2     C4      1.401   .     A
C2     N42     1.438   .     S
C2     C13     1.407   .     A
C3     C21     1.419   .     S
C3     C22     1.402   .     A
C3     C5      1.381   .     A
C4     C6      1.382   .     A
C4     C20     1.419   .     S
C5     H25     1.087   .     S
C5     C7      1.375   .     A
C6     H26     1.087   .     S
C6     C8      1.377   .     A
C7     C9      1.411   .     A
C7     C14     1.393   .     A
C8     C15     1.391   .     A
C8     C10     1.409   .     A
C9     C11     1.431   .     A
C9     C496    1.400   1_554 S
C10    C13     1.429   .     A
C10    C495    1.400   .     S
C11    C22     1.411   .     A
C11    C17     1.426   .     A
C12    O48     1.287   .     A
C12    C19     1.401   .     S
C12    O46     1.278   .     A
C13    C16     1.418   .     A
C14    H23     1.085   .     S
C14    C502    1.389   1_554 S
C15    H31     1.085   .     S
C15    C503    1.385   .     S
C16    N43     1.434   .     S
C16    C500    1.389   .     S
C17    N44     1.433   .     S
C17    C501    1.385   1_554 S
C18    C181    1.335   .     S
C18    H194    1.088   .     S
C19    C342    1.335   1_545 S
C19    H357    1.088   1_545 S
C20    O49     1.285   .     A
C20    O51     1.286   .     A
C21    O50     1.285   .     A
C21    O52     1.286   .     A
C22    N41     1.436   .     S
H24    N42     1.046   .     S
H27    N367    1.046   1_545 S
H28    N43     1.046   .     S
H29    N44     1.045   .     S
H30    N44     1.045   .     S
H32    C342    1.088   1_545 S
H33    C181    1.088   .     S
H34    N147    1.029   1_455 S
H35    N94     1.029   .     S
H36    N41     1.046   .     S
H37    N41     1.045   .     S
H38    N42     1.045   .     S
N39    Zn54    2.019   .     S
N39    H88     1.029   .     S
N39    N94     1.276   .     S
N40    Zn53    2.019   .     S
N40    N147    1.276   1_455 S
N40    H143    1.029   1_455 S
N43    H189    1.046   .     S
O45    Zn53    1.955   .     S
O46    Zn54    1.955   .     S
O47    Zn54    1.976   .     S
O48    Zn53    1.976   .     S
O49    Zn53    1.993   .     S
O50    Zn54    1.993   .     S
O51    Zn54    2.018   .     S
O52    Zn53    2.018   .     S
C55    O101    1.287   .     A
C55    C72     1.401   .     S
C55    O99     1.278   .     A
C56    C58     1.401   .     A
C56    N96     1.438   .     S
C56    C67     1.407   .     A
C57    C75     1.419   .     S
C57    C76     1.402   .     A
C57    C59     1.381   .     A
C58    C60     1.382   .     A
C58    C74     1.419   .     S
C59    H79     1.087   .     S
C59    C61     1.375   .     A
C60    H80     1.087   .     S
C60    C62     1.377   .     A
C61    C63     1.411   .     A
C61    C68     1.393   .     A
C62    C69     1.391   .     A
C62    C64     1.409   .     A
C63    C65     1.431   .     A
C63    C550    1.400   1_554 S
C64    C67     1.429   .     A
C64    C549    1.400   .     S
C65    C76     1.411   .     A
C65    C71     1.426   .     A
C66    O102    1.287   .     A
C66    C73     1.401   .     S
C66    O100    1.278   .     A
C67    C70     1.418   .     A
C68    H77     1.085   .     S
C68    C556    1.389   1_554 S
C69    H85     1.085   .     S
C69    C557    1.385   .     S
C70    N97     1.434   .     S
C70    C554    1.389   .     S
C71    N98     1.433   .     S
C71    C555    1.385   1_554 S
C72    C235    1.335   .     S
C72    H248    1.088   .     S
C73    C396    1.335   1_545 S
C73    H411    1.088   1_545 S
C74    O103    1.285   .     A
C74    O105    1.286   .     A
C75    O104    1.285   .     A
C75    O106    1.286   .     A
C76    N95     1.436   .     S
H78    N96     1.046   .     S
H81    N421    1.046   1_545 S
H82    N97     1.046   .     S
H83    N98     1.045   .     S
H84    N98     1.045   .     S
H86    C396    1.088   1_545 S
H87    C235    1.088   .     S
H89    N148    1.029   .     S
H90    N95     1.046   .     S
H91    N95     1.045   .     S
H92    N96     1.045   .     S
N93    Zn108   2.019   .     S
N93    H142    1.029   .     S
N93    N148    1.276   .     S
N94    Zn107   2.019   .     S
N97    H243    1.046   .     S
O99    Zn107   1.955   .     S
O100   Zn108   1.955   .     S
O101   Zn108   1.976   .     S
O102   Zn107   1.976   .     S
O103   Zn107   1.993   .     S
O104   Zn108   1.993   .     S
O105   Zn108   2.018   .     S
O106   Zn107   2.018   .     S
C109   O155    1.287   .     A
C109   C126    1.401   .     S
C109   O153    1.278   .     A
C110   C112    1.401   .     A
C110   N150    1.438   .     S
C110   C121    1.407   .     A
C111   C129    1.419   .     S
C111   C130    1.402   .     A
C111   C113    1.381   .     A
C112   C114    1.382   .     A
C112   C128    1.419   .     S
C113   H133    1.087   .     S
C113   C115    1.375   .     A
C114   H134    1.087   .     S
C114   C116    1.377   .     A
C115   C117    1.411   .     A
C115   C122    1.393   .     A
C116   C123    1.391   .     A
C116   C118    1.409   .     A
C117   C119    1.431   .     A
C117   C604    1.400   1_554 S
C118   C121    1.429   .     A
C118   C603    1.400   .     S
C119   C130    1.411   .     A
C119   C125    1.426   .     A
C120   O156    1.287   .     A
C120   C127    1.401   .     S
C120   O154    1.278   .     A
C121   C124    1.418   .     A
C122   H131    1.085   .     S
C122   C610    1.389   1_554 S
C123   H139    1.085   .     S
C123   C611    1.385   .     S
C124   N151    1.434   .     S
C124   C608    1.389   .     S
C125   N152    1.433   .     S
C125   C609    1.385   1_554 S
C126   C289    1.335   .     S
C126   H302    1.088   .     S
C127   C450    1.335   1_545 S
C127   H465    1.088   1_545 S
C128   O157    1.285   .     A
C128   O159    1.286   .     A
C129   O158    1.285   .     A
C129   O160    1.286   .     A
C130   N149    1.436   .     S
H132   N150    1.046   .     S
H135   N475    1.046   1_545 S
H136   N151    1.046   .     S
H137   N152    1.045   .     S
H138   N152    1.045   .     S
H140   C450    1.088   1_545 S
H141   C289    1.088   .     S
H143   N40     1.029   1_655 S
H144   N149    1.046   .     S
H145   N149    1.045   .     S
H146   N150    1.045   .     S
N147   Zn162   2.019   .     S
N147   H34     1.029   1_655 S
N147   N40     1.276   1_655 S
N148   Zn161   2.019   .     S
N151   H297    1.046   .     S
O153   Zn161   1.955   .     S
O154   Zn162   1.955   .     S
O155   Zn162   1.976   .     S
O156   Zn161   1.976   .     S
O157   Zn161   1.993   .     S
O158   Zn162   1.993   .     S
O159   Zn162   2.018   .     S
O160   Zn161   2.018   .     S
C163   O209    1.287   .     A
C163   C180    1.401   .     S
C163   O207    1.278   .     A
C164   C166    1.401   .     A
C164   N204    1.438   .     S
C164   C175    1.407   .     A
C165   C183    1.419   .     S
C165   C184    1.402   .     A
C165   C167    1.381   .     A
C166   C168    1.382   .     A
C166   C182    1.419   .     S
C167   H187    1.087   .     S
C167   C169    1.375   .     A
C168   H188    1.087   .     S
C168   C170    1.377   .     A
C169   C171    1.411   .     A
C169   C176    1.393   .     A
C170   C177    1.391   .     A
C170   C172    1.409   .     A
C171   C173    1.431   .     A
C171   C658    1.400   1_554 S
C172   C175    1.429   .     A
C172   C657    1.400   .     S
C173   C184    1.411   .     A
C173   C179    1.426   .     A
C174   O210    1.287   .     A
C174   C181    1.401   .     S
C174   O208    1.278   .     A
C175   C178    1.418   .     A
C176   H185    1.085   .     S
C176   C664    1.389   1_554 S
C177   H193    1.085   .     S
C177   C665    1.385   .     S
C178   N205    1.434   .     S
C178   C662    1.389   .     S
C179   N206    1.433   .     S
C179   C663    1.385   1_554 S
C180   C343    1.335   .     S
C180   H356    1.088   .     S
C182   O211    1.285   .     A
C182   O213    1.286   .     A
C183   O212    1.285   .     A
C183   O214    1.286   .     A
C184   N203    1.436   .     S
H186   N204    1.046   .     S
H190   N205    1.046   .     S
H191   N206    1.045   .     S
H192   N206    1.045   .     S
H195   C343    1.088   .     S
H196   N309    1.029   1_455 S
H197   N256    1.029   .     S
H198   N203    1.046   .     S
H199   N203    1.045   .     S
H200   N204    1.045   .     S
N201   Zn216   2.019   .     S
N201   H250    1.029   .     S
N201   N256    1.276   .     S
N202   Zn215   2.019   .     S
N202   N309    1.276   1_455 S
N202   H305    1.029   1_455 S
N205   H351    1.046   .     S
O207   Zn215   1.955   .     S
O208   Zn216   1.955   .     S
O209   Zn216   1.976   .     S
O210   Zn215   1.976   .     S
O211   Zn215   1.993   .     S
O212   Zn216   1.993   .     S
O213   Zn216   2.018   .     S
O214   Zn215   2.018   .     S
C217   O263    1.287   .     A
C217   C234    1.401   .     S
C217   O261    1.278   .     A
C218   C220    1.401   .     A
C218   N258    1.438   .     S
C218   C229    1.407   .     A
C219   C237    1.419   .     S
C219   C238    1.402   .     A
C219   C221    1.381   .     A
C220   C222    1.382   .     A
C220   C236    1.419   .     S
C221   H241    1.087   .     S
C221   C223    1.375   .     A
C222   H242    1.087   .     S
C222   C224    1.377   .     A
C223   C225    1.411   .     A
C223   C230    1.393   .     A
C224   C231    1.391   .     A
C224   C226    1.409   .     A
C225   C227    1.431   .     A
C225   C712    1.400   1_554 S
C226   C229    1.429   .     A
C226   C711    1.400   .     S
C227   C238    1.411   .     A
C227   C233    1.426   .     A
C228   O264    1.287   .     A
C228   C235    1.401   .     S
C228   O262    1.278   .     A
C229   C232    1.418   .     A
C230   H239    1.085   .     S
C230   C718    1.389   1_554 S
C231   H247    1.085   .     S
C231   C719    1.385   .     S
C232   N259    1.434   .     S
C232   C716    1.389   .     S
C233   N260    1.433   .     S
C233   C717    1.385   1_554 S
C234   C397    1.335   .     S
C234   H410    1.088   .     S
C236   O265    1.285   .     A
C236   O267    1.286   .     A
C237   O266    1.285   .     A
C237   O268    1.286   .     A
C238   N257    1.436   .     S
H240   N258    1.046   .     S
H244   N259    1.046   .     S
H245   N260    1.045   .     S
H246   N260    1.045   .     S
H249   C397    1.088   .     S
H251   N310    1.029   .     S
H252   N257    1.046   .     S
H253   N257    1.045   .     S
H254   N258    1.045   .     S
N255   Zn270   2.019   .     S
N255   H304    1.029   .     S
N255   N310    1.276   .     S
N256   Zn269   2.019   .     S
N259   H405    1.046   .     S
O261   Zn269   1.955   .     S
O262   Zn270   1.955   .     S
O263   Zn270   1.976   .     S
O264   Zn269   1.976   .     S
O265   Zn269   1.993   .     S
O266   Zn270   1.993   .     S
O267   Zn270   2.018   .     S
O268   Zn269   2.018   .     S
C271   O317    1.287   .     A
C271   C288    1.401   .     S
C271   O315    1.278   .     A
C272   C274    1.401   .     A
C272   N312    1.438   .     S
C272   C283    1.407   .     A
C273   C291    1.419   .     S
C273   C292    1.402   .     A
C273   C275    1.381   .     A
C274   C276    1.382   .     A
C274   C290    1.419   .     S
C275   H295    1.087   .     S
C275   C277    1.375   .     A
C276   H296    1.087   .     S
C276   C278    1.377   .     A
C277   C279    1.411   .     A
C277   C284    1.393   .     A
C278   C285    1.391   .     A
C278   C280    1.409   .     A
C279   C281    1.431   .     A
C279   C766    1.400   1_554 S
C280   C283    1.429   .     A
C280   C765    1.400   .     S
C281   C292    1.411   .     A
C281   C287    1.426   .     A
C282   O318    1.287   .     A
C282   C289    1.401   .     S
C282   O316    1.278   .     A
C283   C286    1.418   .     A
C284   H293    1.085   .     S
C284   C772    1.389   1_554 S
C285   H301    1.085   .     S
C285   C773    1.385   .     S
C286   N313    1.434   .     S
C286   C770    1.389   .     S
C287   N314    1.433   .     S
C287   C771    1.385   1_554 S
C288   C451    1.335   .     S
C288   H464    1.088   .     S
C290   O319    1.285   .     A
C290   O321    1.286   .     A
C291   O320    1.285   .     A
C291   O322    1.286   .     A
C292   N311    1.436   .     S
H294   N312    1.046   .     S
H298   N313    1.046   .     S
H299   N314    1.045   .     S
H300   N314    1.045   .     S
H303   C451    1.088   .     S
H305   N202    1.029   1_655 S
H306   N311    1.046   .     S
H307   N311    1.045   .     S
H308   N312    1.045   .     S
N309   Zn324   2.019   .     S
N309   H196    1.029   1_655 S
N309   N202    1.276   1_655 S
N310   Zn323   2.019   .     S
N313   H459    1.046   .     S
O315   Zn323   1.955   .     S
O316   Zn324   1.955   .     S
O317   Zn324   1.976   .     S
O318   Zn323   1.976   .     S
O319   Zn323   1.993   .     S
O320   Zn324   1.993   .     S
O321   Zn324   2.018   .     S
O322   Zn323   2.018   .     S
C325   O371    1.287   .     A
C325   C342    1.401   .     S
C325   O369    1.278   .     A
C326   C328    1.401   .     A
C326   N366    1.438   .     S
C326   C337    1.407   .     A
C327   C345    1.419   .     S
C327   C346    1.402   .     A
C327   C329    1.381   .     A
C328   C330    1.382   .     A
C328   C344    1.419   .     S
C329   H349    1.087   .     S
C329   C331    1.375   .     A
C330   H350    1.087   .     S
C330   C332    1.377   .     A
C331   C333    1.411   .     A
C331   C338    1.393   .     A
C332   C339    1.391   .     A
C332   C334    1.409   .     A
C333   C335    1.431   .     A
C333   C820    1.400   1_554 S
C334   C337    1.429   .     A
C334   C819    1.400   .     S
C335   C346    1.411   .     A
C335   C341    1.426   .     A
C336   O372    1.287   .     A
C336   C343    1.401   .     S
C336   O370    1.278   .     A
C337   C340    1.418   .     A
C338   H347    1.085   .     S
C338   C826    1.389   1_554 S
C339   H355    1.085   .     S
C339   C827    1.385   .     S
C340   N367    1.434   .     S
C340   C824    1.389   .     S
C341   N368    1.433   .     S
C341   C825    1.385   1_554 S
C342   C19     1.335   1_565 S
C342   H32     1.088   1_565 S
C344   O373    1.285   .     A
C344   O375    1.286   .     A
C345   O374    1.285   .     A
C345   O376    1.286   .     A
C346   N365    1.436   .     S
H348   N366    1.046   .     S
H352   N367    1.046   .     S
H353   N368    1.045   .     S
H354   N368    1.045   .     S
H357   C19     1.088   1_565 S
H358   N471    1.029   1_455 S
H359   N418    1.029   .     S
H360   N365    1.046   .     S
H361   N365    1.045   .     S
H362   N366    1.045   .     S
N363   Zn378   2.019   .     S
N363   H412    1.029   .     S
N363   N418    1.276   .     S
N364   Zn377   2.019   .     S
N364   N471    1.276   1_455 S
N364   H467    1.029   1_455 S
N367   H27     1.046   1_565 S
O369   Zn377   1.955   .     S
O370   Zn378   1.955   .     S
O371   Zn378   1.976   .     S
O372   Zn377   1.976   .     S
O373   Zn377   1.993   .     S
O374   Zn378   1.993   .     S
O375   Zn378   2.018   .     S
O376   Zn377   2.018   .     S
C379   O425    1.287   .     A
C379   C396    1.401   .     S
C379   O423    1.278   .     A
C380   C382    1.401   .     A
C380   N420    1.438   .     S
C380   C391    1.407   .     A
C381   C399    1.419   .     S
C381   C400    1.402   .     A
C381   C383    1.381   .     A
C382   C384    1.382   .     A
C382   C398    1.419   .     S
C383   H403    1.087   .     S
C383   C385    1.375   .     A
C384   H404    1.087   .     S
C384   C386    1.377   .     A
C385   C387    1.411   .     A
C385   C392    1.393   .     A
C386   C393    1.391   .     A
C386   C388    1.409   .     A
C387   C389    1.431   .     A
C387   C874    1.400   1_554 S
C388   C391    1.429   .     A
C388   C873    1.400   .     S
C389   C400    1.411   .     A
C389   C395    1.426   .     A
C390   O426    1.287   .     A
C390   C397    1.401   .     S
C390   O424    1.278   .     A
C391   C394    1.418   .     A
C392   H401    1.085   .     S
C392   C880    1.389   1_554 S
C393   H409    1.085   .     S
C393   C881    1.385   .     S
C394   N421    1.434   .     S
C394   C878    1.389   .     S
C395   N422    1.433   .     S
C395   C879    1.385   1_554 S
C396   C73     1.335   1_565 S
C396   H86     1.088   1_565 S
C398   O427    1.285   .     A
C398   O429    1.286   .     A
C399   O428    1.285   .     A
C399   O430    1.286   .     A
C400   N419    1.436   .     S
H402   N420    1.046   .     S
H406   N421    1.046   .     S
H407   N422    1.045   .     S
H408   N422    1.045   .     S
H411   C73     1.088   1_565 S
H413   N472    1.029   .     S
H414   N419    1.046   .     S
H415   N419    1.045   .     S
H416   N420    1.045   .     S
N417   Zn432   2.019   .     S
N417   H466    1.029   .     S
N417   N472    1.276   .     S
N418   Zn431   2.019   .     S
N421   H81     1.046   1_565 S
O423   Zn431   1.955   .     S
O424   Zn432   1.955   .     S
O425   Zn432   1.976   .     S
O426   Zn431   1.976   .     S
O427   Zn431   1.993   .     S
O428   Zn432   1.993   .     S
O429   Zn432   2.018   .     S
O430   Zn431   2.018   .     S
C433   O479    1.287   .     A
C433   C450    1.401   .     S
C433   O477    1.278   .     A
C434   C436    1.401   .     A
C434   N474    1.438   .     S
C434   C445    1.407   .     A
C435   C453    1.419   .     S
C435   C454    1.402   .     A
C435   C437    1.381   .     A
C436   C438    1.382   .     A
C436   C452    1.419   .     S
C437   H457    1.087   .     S
C437   C439    1.375   .     A
C438   H458    1.087   .     S
C438   C440    1.377   .     A
C439   C441    1.411   .     A
C439   C446    1.393   .     A
C440   C447    1.391   .     A
C440   C442    1.409   .     A
C441   C443    1.431   .     A
C441   C928    1.400   1_554 S
C442   C445    1.429   .     A
C442   C927    1.400   .     S
C443   C454    1.411   .     A
C443   C449    1.426   .     A
C444   O480    1.287   .     A
C444   C451    1.401   .     S
C444   O478    1.278   .     A
C445   C448    1.418   .     A
C446   H455    1.085   .     S
C446   C934    1.389   1_554 S
C447   H463    1.085   .     S
C447   C935    1.385   .     S
C448   N475    1.434   .     S
C448   C932    1.389   .     S
C449   N476    1.433   .     S
C449   C933    1.385   1_554 S
C450   C127    1.335   1_565 S
C450   H140    1.088   1_565 S
C452   O481    1.285   .     A
C452   O483    1.286   .     A
C453   O482    1.285   .     A
C453   O484    1.286   .     A
C454   N473    1.436   .     S
H456   N474    1.046   .     S
H460   N475    1.046   .     S
H461   N476    1.045   .     S
H462   N476    1.045   .     S
H465   C127    1.088   1_565 S
H467   N364    1.029   1_655 S
H468   N473    1.046   .     S
H469   N473    1.045   .     S
H470   N474    1.045   .     S
N471   Zn486   2.019   .     S
N471   H358    1.029   1_655 S
N471   N364    1.276   1_655 S
N472   Zn485   2.019   .     S
N475   H135    1.046   1_565 S
O477   Zn485   1.955   .     S
O478   Zn486   1.955   .     S
O479   Zn486   1.976   .     S
O480   Zn485   1.976   .     S
O481   Zn485   1.993   .     S
O482   Zn486   1.993   .     S
O483   Zn486   2.018   .     S
O484   Zn485   2.018   .     S
C487   O533    1.287   .     A
C487   C504    1.401   .     S
C487   O531    1.278   .     A
C488   C490    1.401   .     A
C488   N528    1.438   .     S
C488   C499    1.407   .     A
C489   C507    1.419   .     S
C489   C508    1.402   .     A
C489   C491    1.381   .     A
C490   C492    1.382   .     A
C490   C506    1.419   .     S
C491   H511    1.087   .     S
C491   C493    1.375   .     A
C492   H512    1.087   .     S
C492   C494    1.377   .     A
C493   C495    1.411   .     A
C493   C500    1.393   .     A
C494   C501    1.391   .     A
C494   C496    1.409   .     A
C495   C497    1.431   .     A
C496   C499    1.429   .     A
C496   C9      1.400   1_556 S
C497   C508    1.411   .     A
C497   C503    1.426   .     A
C498   O534    1.287   .     A
C498   C505    1.401   .     S
C498   O532    1.278   .     A
C499   C502    1.418   .     A
C500   H509    1.085   .     S
C501   H517    1.085   .     S
C501   C17     1.385   1_556 S
C502   N529    1.434   .     S
C502   C14     1.389   1_556 S
C503   N530    1.433   .     S
C504   C667    1.335   .     S
C504   H680    1.088   .     S
C505   C828    1.335   1_545 S
C505   H843    1.088   1_545 S
C506   O535    1.285   .     A
C506   O537    1.286   .     A
C507   O536    1.285   .     A
C507   O538    1.286   .     A
C508   N527    1.436   .     S
H510   N528    1.046   .     S
H513   N853    1.046   1_545 S
H514   N529    1.046   .     S
H515   N530    1.045   .     S
H516   N530    1.045   .     S
H518   C828    1.088   1_545 S
H519   C667    1.088   .     S
H520   N633    1.029   1_455 S
H521   N580    1.029   .     S
H522   N527    1.046   .     S
H523   N527    1.045   .     S
H524   N528    1.045   .     S
N525   Zn540   2.019   .     S
N525   H574    1.029   .     S
N525   N580    1.276   .     S
N526   Zn539   2.019   .     S
N526   N633    1.276   1_455 S
N526   H629    1.029   1_455 S
N529   H675    1.046   .     S
O531   Zn539   1.955   .     S
O532   Zn540   1.955   .     S
O533   Zn540   1.976   .     S
O534   Zn539   1.976   .     S
O535   Zn539   1.993   .     S
O536   Zn540   1.993   .     S
O537   Zn540   2.018   .     S
O538   Zn539   2.018   .     S
C541   O587    1.287   .     A
C541   C558    1.401   .     S
C541   O585    1.278   .     A
C542   C544    1.401   .     A
C542   N582    1.438   .     S
C542   C553    1.407   .     A
C543   C561    1.419   .     S
C543   C562    1.402   .     A
C543   C545    1.381   .     A
C544   C546    1.382   .     A
C544   C560    1.419   .     S
C545   H565    1.087   .     S
C545   C547    1.375   .     A
C546   H566    1.087   .     S
C546   C548    1.377   .     A
C547   C549    1.411   .     A
C547   C554    1.393   .     A
C548   C555    1.391   .     A
C548   C550    1.409   .     A
C549   C551    1.431   .     A
C550   C553    1.429   .     A
C550   C63     1.400   1_556 S
C551   C562    1.411   .     A
C551   C557    1.426   .     A
C552   O588    1.287   .     A
C552   C559    1.401   .     S
C552   O586    1.278   .     A
C553   C556    1.418   .     A
C554   H563    1.085   .     S
C555   H571    1.085   .     S
C555   C71     1.385   1_556 S
C556   N583    1.434   .     S
C556   C68     1.389   1_556 S
C557   N584    1.433   .     S
C558   C721    1.335   .     S
C558   H734    1.088   .     S
C559   C882    1.335   1_545 S
C559   H897    1.088   1_545 S
C560   O589    1.285   .     A
C560   O591    1.286   .     A
C561   O590    1.285   .     A
C561   O592    1.286   .     A
C562   N581    1.436   .     S
H564   N582    1.046   .     S
H567   N907    1.046   1_545 S
H568   N583    1.046   .     S
H569   N584    1.045   .     S
H570   N584    1.045   .     S
H572   C882    1.088   1_545 S
H573   C721    1.088   .     S
H575   N634    1.029   .     S
H576   N581    1.046   .     S
H577   N581    1.045   .     S
H578   N582    1.045   .     S
N579   Zn594   2.019   .     S
N579   H628    1.029   .     S
N579   N634    1.276   .     S
N580   Zn593   2.019   .     S
N583   H729    1.046   .     S
O585   Zn593   1.955   .     S
O586   Zn594   1.955   .     S
O587   Zn594   1.976   .     S
O588   Zn593   1.976   .     S
O589   Zn593   1.993   .     S
O590   Zn594   1.993   .     S
O591   Zn594   2.018   .     S
O592   Zn593   2.018   .     S
C595   O641    1.287   .     A
C595   C612    1.401   .     S
C595   O639    1.278   .     A
C596   C598    1.401   .     A
C596   N636    1.438   .     S
C596   C607    1.407   .     A
C597   C615    1.419   .     S
C597   C616    1.402   .     A
C597   C599    1.381   .     A
C598   C600    1.382   .     A
C598   C614    1.419   .     S
C599   H619    1.087   .     S
C599   C601    1.375   .     A
C600   H620    1.087   .     S
C600   C602    1.377   .     A
C601   C603    1.411   .     A
C601   C608    1.393   .     A
C602   C609    1.391   .     A
C602   C604    1.409   .     A
C603   C605    1.431   .     A
C604   C607    1.429   .     A
C604   C117    1.400   1_556 S
C605   C616    1.411   .     A
C605   C611    1.426   .     A
C606   O642    1.287   .     A
C606   C613    1.401   .     S
C606   O640    1.278   .     A
C607   C610    1.418   .     A
C608   H617    1.085   .     S
C609   H625    1.085   .     S
C609   C125    1.385   1_556 S
C610   N637    1.434   .     S
C610   C122    1.389   1_556 S
C611   N638    1.433   .     S
C612   C775    1.335   .     S
C612   H788    1.088   .     S
C613   C936    1.335   1_545 S
C613   H951    1.088   1_545 S
C614   O643    1.285   .     A
C614   O645    1.286   .     A
C615   O644    1.285   .     A
C615   O646    1.286   .     A
C616   N635    1.436   .     S
H618   N636    1.046   .     S
H621   N961    1.046   1_545 S
H622   N637    1.046   .     S
H623   N638    1.045   .     S
H624   N638    1.045   .     S
H626   C936    1.088   1_545 S
H627   C775    1.088   .     S
H629   N526    1.029   1_655 S
H630   N635    1.046   .     S
H631   N635    1.045   .     S
H632   N636    1.045   .     S
N633   Zn648   2.019   .     S
N633   H520    1.029   1_655 S
N633   N526    1.276   1_655 S
N634   Zn647   2.019   .     S
N637   H783    1.046   .     S
O639   Zn647   1.955   .     S
O640   Zn648   1.955   .     S
O641   Zn648   1.976   .     S
O642   Zn647   1.976   .     S
O643   Zn647   1.993   .     S
O644   Zn648   1.993   .     S
O645   Zn648   2.018   .     S
O646   Zn647   2.018   .     S
C649   O695    1.287   .     A
C649   C666    1.401   .     S
C649   O693    1.278   .     A
C650   C652    1.401   .     A
C650   N690    1.438   .     S
C650   C661    1.407   .     A
C651   C669    1.419   .     S
C651   C670    1.402   .     A
C651   C653    1.381   .     A
C652   C654    1.382   .     A
C652   C668    1.419   .     S
C653   H673    1.087   .     S
C653   C655    1.375   .     A
C654   H674    1.087   .     S
C654   C656    1.377   .     A
C655   C657    1.411   .     A
C655   C662    1.393   .     A
C656   C663    1.391   .     A
C656   C658    1.409   .     A
C657   C659    1.431   .     A
C658   C661    1.429   .     A
C658   C171    1.400   1_556 S
C659   C670    1.411   .     A
C659   C665    1.426   .     A
C660   O696    1.287   .     A
C660   C667    1.401   .     S
C660   O694    1.278   .     A
C661   C664    1.418   .     A
C662   H671    1.085   .     S
C663   H679    1.085   .     S
C663   C179    1.385   1_556 S
C664   N691    1.434   .     S
C664   C176    1.389   1_556 S
C665   N692    1.433   .     S
C666   C829    1.335   .     S
C666   H842    1.088   .     S
C668   O697    1.285   .     A
C668   O699    1.286   .     A
C669   O698    1.285   .     A
C669   O700    1.286   .     A
C670   N689    1.436   .     S
H672   N690    1.046   .     S
H676   N691    1.046   .     S
H677   N692    1.045   .     S
H678   N692    1.045   .     S
H681   C829    1.088   .     S
H682   N795    1.029   1_455 S
H683   N742    1.029   .     S
H684   N689    1.046   .     S
H685   N689    1.045   .     S
H686   N690    1.045   .     S
N687   Zn702   2.019   .     S
N687   H736    1.029   .     S
N687   N742    1.276   .     S
N688   Zn701   2.019   .     S
N688   N795    1.276   1_455 S
N688   H791    1.029   1_455 S
N691   H837    1.046   .     S
O693   Zn701   1.955   .     S
O694   Zn702   1.955   .     S
O695   Zn702   1.976   .     S
O696   Zn701   1.976   .     S
O697   Zn701   1.993   .     S
O698   Zn702   1.993   .     S
O699   Zn702   2.018   .     S
O700   Zn701   2.018   .     S
C703   O749    1.287   .     A
C703   C720    1.401   .     S
C703   O747    1.278   .     A
C704   C706    1.401   .     A
C704   N744    1.438   .     S
C704   C715    1.407   .     A
C705   C723    1.419   .     S
C705   C724    1.402   .     A
C705   C707    1.381   .     A
C706   C708    1.382   .     A
C706   C722    1.419   .     S
C707   H727    1.087   .     S
C707   C709    1.375   .     A
C708   H728    1.087   .     S
C708   C710    1.377   .     A
C709   C711    1.411   .     A
C709   C716    1.393   .     A
C710   C717    1.391   .     A
C710   C712    1.409   .     A
C711   C713    1.431   .     A
C712   C715    1.429   .     A
C712   C225    1.400   1_556 S
C713   C724    1.411   .     A
C713   C719    1.426   .     A
C714   O750    1.287   .     A
C714   C721    1.401   .     S
C714   O748    1.278   .     A
C715   C718    1.418   .     A
C716   H725    1.085   .     S
C717   H733    1.085   .     S
C717   C233    1.385   1_556 S
C718   N745    1.434   .     S
C718   C230    1.389   1_556 S
C719   N746    1.433   .     S
C720   C883    1.335   .     S
C720   H896    1.088   .     S
C722   O751    1.285   .     A
C722   O753    1.286   .     A
C723   O752    1.285   .     A
C723   O754    1.286   .     A
C724   N743    1.436   .     S
H726   N744    1.046   .     S
H730   N745    1.046   .     S
H731   N746    1.045   .     S
H732   N746    1.045   .     S
H735   C883    1.088   .     S
H737   N796    1.029   .     S
H738   N743    1.046   .     S
H739   N743    1.045   .     S
H740   N744    1.045   .     S
N741   Zn756   2.019   .     S
N741   H790    1.029   .     S
N741   N796    1.276   .     S
N742   Zn755   2.019   .     S
N745   H891    1.046   .     S
O747   Zn755   1.955   .     S
O748   Zn756   1.955   .     S
O749   Zn756   1.976   .     S
O750   Zn755   1.976   .     S
O751   Zn755   1.993   .     S
O752   Zn756   1.993   .     S
O753   Zn756   2.018   .     S
O754   Zn755   2.018   .     S
C757   O803    1.287   .     A
C757   C774    1.401   .     S
C757   O801    1.278   .     A
C758   C760    1.401   .     A
C758   N798    1.438   .     S
C758   C769    1.407   .     A
C759   C777    1.419   .     S
C759   C778    1.402   .     A
C759   C761    1.381   .     A
C760   C762    1.382   .     A
C760   C776    1.419   .     S
C761   H781    1.087   .     S
C761   C763    1.375   .     A
C762   H782    1.087   .     S
C762   C764    1.377   .     A
C763   C765    1.411   .     A
C763   C770    1.393   .     A
C764   C771    1.391   .     A
C764   C766    1.409   .     A
C765   C767    1.431   .     A
C766   C769    1.429   .     A
C766   C279    1.400   1_556 S
C767   C778    1.411   .     A
C767   C773    1.426   .     A
C768   O804    1.287   .     A
C768   C775    1.401   .     S
C768   O802    1.278   .     A
C769   C772    1.418   .     A
C770   H779    1.085   .     S
C771   H787    1.085   .     S
C771   C287    1.385   1_556 S
C772   N799    1.434   .     S
C772   C284    1.389   1_556 S
C773   N800    1.433   .     S
C774   C937    1.335   .     S
C774   H950    1.088   .     S
C776   O805    1.285   .     A
C776   O807    1.286   .     A
C777   O806    1.285   .     A
C777   O808    1.286   .     A
C778   N797    1.436   .     S
H780   N798    1.046   .     S
H784   N799    1.046   .     S
H785   N800    1.045   .     S
H786   N800    1.045   .     S
H789   C937    1.088   .     S
H791   N688    1.029   1_655 S
H792   N797    1.046   .     S
H793   N797    1.045   .     S
H794   N798    1.045   .     S
N795   Zn810   2.019   .     S
N795   H682    1.029   1_655 S
N795   N688    1.276   1_655 S
N796   Zn809   2.019   .     S
N799   H945    1.046   .     S
O801   Zn809   1.955   .     S
O802   Zn810   1.955   .     S
O803   Zn810   1.976   .     S
O804   Zn809   1.976   .     S
O805   Zn809   1.993   .     S
O806   Zn810   1.993   .     S
O807   Zn810   2.018   .     S
O808   Zn809   2.018   .     S
C811   O857    1.287   .     A
C811   C828    1.401   .     S
C811   O855    1.278   .     A
C812   C814    1.401   .     A
C812   N852    1.438   .     S
C812   C823    1.407   .     A
C813   C831    1.419   .     S
C813   C832    1.402   .     A
C813   C815    1.381   .     A
C814   C816    1.382   .     A
C814   C830    1.419   .     S
C815   H835    1.087   .     S
C815   C817    1.375   .     A
C816   H836    1.087   .     S
C816   C818    1.377   .     A
C817   C819    1.411   .     A
C817   C824    1.393   .     A
C818   C825    1.391   .     A
C818   C820    1.409   .     A
C819   C821    1.431   .     A
C820   C823    1.429   .     A
C820   C333    1.400   1_556 S
C821   C832    1.411   .     A
C821   C827    1.426   .     A
C822   O858    1.287   .     A
C822   C829    1.401   .     S
C822   O856    1.278   .     A
C823   C826    1.418   .     A
C824   H833    1.085   .     S
C825   H841    1.085   .     S
C825   C341    1.385   1_556 S
C826   N853    1.434   .     S
C826   C338    1.389   1_556 S
C827   N854    1.433   .     S
C828   C505    1.335   1_565 S
C828   H518    1.088   1_565 S
C830   O859    1.285   .     A
C830   O861    1.286   .     A
C831   O860    1.285   .     A
C831   O862    1.286   .     A
C832   N851    1.436   .     S
H834   N852    1.046   .     S
H838   N853    1.046   .     S
H839   N854    1.045   .     S
H840   N854    1.045   .     S
H843   C505    1.088   1_565 S
H844   N957    1.029   1_455 S
H845   N904    1.029   .     S
H846   N851    1.046   .     S
H847   N851    1.045   .     S
H848   N852    1.045   .     S
N849   Zn864   2.019   .     S
N849   H898    1.029   .     S
N849   N904    1.276   .     S
N850   Zn863   2.019   .     S
N850   N957    1.276   1_455 S
N850   H953    1.029   1_455 S
N853   H513    1.046   1_565 S
O855   Zn863   1.955   .     S
O856   Zn864   1.955   .     S
O857   Zn864   1.976   .     S
O858   Zn863   1.976   .     S
O859   Zn863   1.993   .     S
O860   Zn864   1.993   .     S
O861   Zn864   2.018   .     S
O862   Zn863   2.018   .     S
C865   O911    1.287   .     A
C865   C882    1.401   .     S
C865   O909    1.278   .     A
C866   C868    1.401   .     A
C866   N906    1.438   .     S
C866   C877    1.407   .     A
C867   C885    1.419   .     S
C867   C886    1.402   .     A
C867   C869    1.381   .     A
C868   C870    1.382   .     A
C868   C884    1.419   .     S
C869   H889    1.087   .     S
C869   C871    1.375   .     A
C870   H890    1.087   .     S
C870   C872    1.377   .     A
C871   C873    1.411   .     A
C871   C878    1.393   .     A
C872   C879    1.391   .     A
C872   C874    1.409   .     A
C873   C875    1.431   .     A
C874   C877    1.429   .     A
C874   C387    1.400   1_556 S
C875   C886    1.411   .     A
C875   C881    1.426   .     A
C876   O912    1.287   .     A
C876   C883    1.401   .     S
C876   O910    1.278   .     A
C877   C880    1.418   .     A
C878   H887    1.085   .     S
C879   H895    1.085   .     S
C879   C395    1.385   1_556 S
C880   N907    1.434   .     S
C880   C392    1.389   1_556 S
C881   N908    1.433   .     S
C882   C559    1.335   1_565 S
C882   H572    1.088   1_565 S
C884   O913    1.285   .     A
C884   O915    1.286   .     A
C885   O914    1.285   .     A
C885   O916    1.286   .     A
C886   N905    1.436   .     S
H888   N906    1.046   .     S
H892   N907    1.046   .     S
H893   N908    1.045   .     S
H894   N908    1.045   .     S
H897   C559    1.088   1_565 S
H899   N958    1.029   .     S
H900   N905    1.046   .     S
H901   N905    1.045   .     S
H902   N906    1.045   .     S
N903   Zn918   2.019   .     S
N903   H952    1.029   .     S
N903   N958    1.276   .     S
N904   Zn917   2.019   .     S
N907   H567    1.046   1_565 S
O909   Zn917   1.955   .     S
O910   Zn918   1.955   .     S
O911   Zn918   1.976   .     S
O912   Zn917   1.976   .     S
O913   Zn917   1.993   .     S
O914   Zn918   1.993   .     S
O915   Zn918   2.018   .     S
O916   Zn917   2.018   .     S
C919   O965    1.287   .     A
C919   C936    1.401   .     S
C919   O963    1.278   .     A
C920   C922    1.401   .     A
C920   N960    1.438   .     S
C920   C931    1.407   .     A
C921   C939    1.419   .     S
C921   C940    1.402   .     A
C921   C923    1.381   .     A
C922   C924    1.382   .     A
C922   C938    1.419   .     S
C923   H943    1.087   .     S
C923   C925    1.375   .     A
C924   H944    1.087   .     S
C924   C926    1.377   .     A
C925   C927    1.411   .     A
C925   C932    1.393   .     A
C926   C933    1.391   .     A
C926   C928    1.409   .     A
C927   C929    1.431   .     A
C928   C931    1.429   .     A
C928   C441    1.400   1_556 S
C929   C940    1.411   .     A
C929   C935    1.426   .     A
C930   O966    1.287   .     A
C930   C937    1.401   .     S
C930   O964    1.278   .     A
C931   C934    1.418   .     A
C932   H941    1.085   .     S
C933   H949    1.085   .     S
C933   C449    1.385   1_556 S
C934   N961    1.434   .     S
C934   C446    1.389   1_556 S
C935   N962    1.433   .     S
C936   C613    1.335   1_565 S
C936   H626    1.088   1_565 S
C938   O967    1.285   .     A
C938   O969    1.286   .     A
C939   O968    1.285   .     A
C939   O970    1.286   .     A
C940   N959    1.436   .     S
H942   N960    1.046   .     S
H946   N961    1.046   .     S
H947   N962    1.045   .     S
H948   N962    1.045   .     S
H951   C613    1.088   1_565 S
H953   N850    1.029   1_655 S
H954   N959    1.046   .     S
H955   N959    1.045   .     S
H956   N960    1.045   .     S
N957   Zn972   2.019   .     S
N957   H844    1.029   1_655 S
N957   N850    1.276   1_655 S
N958   Zn971   2.019   .     S
N961   H621    1.046   1_565 S
O963   Zn971   1.955   .     S
O964   Zn972   1.955   .     S
O965   Zn972   1.976   .     S
O966   Zn971   1.976   .     S
O967   Zn971   1.993   .     S
O968   Zn972   1.993   .     S
O969   Zn972   2.018   .     S
O970   Zn971   2.018   .     S
