data_str_m3_o2_o10_pcu_sym.193
_audit_creation_date              2020-01-03
_audit_creation_method            'Materials Studio'
_symmetry_space_group_name_H-M    'P1'
_symmetry_Int_Tables_number       1
_symmetry_cell_setting            triclinic
loop_
_symmetry_equiv_pos_as_xyz
  x,y,z
_cell_length_a                    26.1389
_cell_length_b                    29.8911
_cell_length_c                    28.3100
_cell_angle_alpha                 90.3066
_cell_angle_beta                  98.5219
_cell_angle_gamma                 89.7444
loop_
_atom_site_label
_atom_site_type_symbol
_atom_site_fract_x
_atom_site_fract_y
_atom_site_fract_z
_atom_site_U_iso_or_equiv
_atom_site_adp_type
_atom_site_occupancy
C1     C     0.16752   0.16411   0.24999   0.00000  Uiso   1.00
C2     C     0.16539   0.33612   0.24999   0.00000  Uiso   1.00
C3     C     0.19676   0.21943   0.05618   0.00000  Uiso   1.00
C4     C     0.18490   0.28729   0.45043   0.00000  Uiso   1.00
C5     C     0.19638   0.21994   0.10587   0.00000  Uiso   1.00
C6     C     0.18510   0.28624   0.40068   0.00000  Uiso   1.00
C7     C     0.13711   0.28039   0.09839   0.00000  Uiso   1.00
C8     C     0.14895   0.21373   0.39568   0.00000  Uiso   1.00
C9     C     0.13687   0.28139   0.04860   0.00000  Uiso   1.00
C10    C     0.14876   0.21324   0.44539   0.00000  Uiso   1.00
C11    C     0.16679   0.25048   0.02671   0.00000  Uiso   1.00
C12    C     0.16663   0.25043   0.47356   0.00000  Uiso   1.00
C13    C     0.06726   0.25013   0.23772   0.00000  Uiso   1.00
C14    C     0.26601   0.25104   0.26233   0.00000  Uiso   1.00
C15    C     0.01275   0.25309   0.23095   0.00000  Uiso   1.00
C16    C     0.32058   0.25093   0.26947   0.00000  Uiso   1.00
C17    C     0.21464   0.04662   0.26577   0.00000  Uiso   1.00
C18    C     0.13325   0.45379   0.28140   0.00000  Uiso   1.00
C19    C     0.21554   0.09350   0.26361   0.00000  Uiso   1.00
C20    C     0.13200   0.40687   0.27981   0.00000  Uiso   1.00
C21    C     0.16873   0.11651   0.24987   0.00000  Uiso   1.00
C22    C     0.16250   0.38414   0.25009   0.00000  Uiso   1.00
C23    C     0.12208   0.09428   0.23706   0.00000  Uiso   1.00
C24    C     0.19162   0.40728   0.22081   0.00000  Uiso   1.00
C25    C     0.12119   0.04830   0.23837   0.00000  Uiso   1.00
C26    C     0.19252   0.45326   0.22208   0.00000  Uiso   1.00
C27    C     0.16690   0.02460   0.25298   0.00000  Uiso   1.00
C28    C     0.16439   0.47637   0.25268   0.00000  Uiso   1.00
H29    H     0.08639   0.11262   0.22637   0.00000  Uiso   1.00
H30    H     0.21467   0.38969   0.19775   0.00000  Uiso   1.00
H31    H     0.08487   0.03105   0.22783   0.00000  Uiso   1.00
H32    H     0.21544   0.47099   0.19935   0.00000  Uiso   1.00
N33    N     0.16667   0.24999   0.12623   0.00000  Uiso   1.00
N34    N     0.16667   0.25001   0.37376   0.00000  Uiso   1.00
O35    O     0.16667   0.18454   0.28974   0.00000  Uiso   1.00
O36    O     0.16666   0.31547   0.21026   0.00000  Uiso   1.00
O37    O     0.16667   0.18453   0.21026   0.00000  Uiso   1.00
O38    O     0.16666   0.31547   0.28974   0.00000  Uiso   1.00
O39    O     0.09058   0.25000   0.28044   0.00000  Uiso   1.00
O40    O     0.24275   0.25000   0.21955   0.00000  Uiso   1.00
O41    O     0.09058   0.25000   0.20096   0.00000  Uiso   1.00
O42    O     0.24275   0.25001   0.29903   0.00000  Uiso   1.00
Zn43   Zn    0.16667   0.25001   0.30307   0.00000  Uiso   1.00
Zn44   Zn    0.16667   0.25000   0.19693   0.00000  Uiso   1.00
N45    N     0.32064   0.25947   0.18300   0.00000  Uiso   1.00
H46    H     0.00139   0.23979   0.15774   0.00000  Uiso   1.00
C47    C     0.31434   0.30580   0.16866   0.00000  Uiso   1.00
H48    H     0.29035   0.30770   0.13291   0.00000  Uiso   1.00
H49    H     0.01928   0.32109   0.16667   0.00000  Uiso   1.00
H50    H     0.29445   0.32501   0.19439   0.00000  Uiso   1.00
N51    N     0.01253   0.24821   0.31790   0.00000  Uiso   1.00
H52    H     0.33254   0.27142   0.34033   0.00000  Uiso   1.00
C53    C     0.01530   0.20364   0.33788   0.00000  Uiso   1.00
H54    H     0.03524   0.20492   0.37530   0.00000  Uiso   1.00
H55    H     0.03755   0.18116   0.31704   0.00000  Uiso   1.00
H56    H     0.30928   0.18984   0.33805   0.00000  Uiso   1.00
N57    N     0.26120   0.02149   0.27850   0.00000  Uiso   1.00
H58    H     0.29374   0.03507   0.26779   0.00000  Uiso   1.00
C59    C     0.27017   0.00589   0.32731   0.00000  Uiso   1.00
H60    H     0.30738   0.48725   0.33374   0.00000  Uiso   1.00
H61    H     0.23905   0.48276   0.33409   0.00000  Uiso   1.00
H62    H     0.27218   0.03464   0.35255   0.00000  Uiso   1.00
N63    N     0.10194   0.47840   0.30978   0.00000  Uiso   1.00
H64    H     0.06647   0.46441   0.31216   0.00000  Uiso   1.00
C65    C     0.12852   0.49394   0.35531   0.00000  Uiso   1.00
H66    H     0.10081   0.01209   0.37476   0.00000  Uiso   1.00
H67    H     0.15982   0.01751   0.35007   0.00000  Uiso   1.00
H68    H     0.14500   0.46522   0.37734   0.00000  Uiso   1.00
N69    N     0.26259   0.11771   0.27578   0.00000  Uiso   1.00
H70    H     0.28769   0.10447   0.30379   0.00000  Uiso   1.00
C71    C     0.28791   0.12901   0.23533   0.00000  Uiso   1.00
H72    H     0.29871   0.09825   0.21689   0.00000  Uiso   1.00
H73    H     0.32355   0.14833   0.24754   0.00000  Uiso   1.00
H74    H     0.26216   0.14993   0.20974   0.00000  Uiso   1.00
N75    N     0.10081   0.38240   0.30790   0.00000  Uiso   1.00
H76    H     0.09811   0.39603   0.34096   0.00000  Uiso   1.00
C77    C     0.05142   0.36828   0.28235   0.00000  Uiso   1.00
H78    H     0.02670   0.39779   0.27109   0.00000  Uiso   1.00
H79    H     0.03136   0.34710   0.30591   0.00000  Uiso   1.00
H80    H     0.05695   0.34830   0.25034   0.00000  Uiso   1.00
F81    F     0.22693   0.18925   0.03710   0.00000  Uiso   1.00
F82    F     0.20368   0.32373   0.47600   0.00000  Uiso   1.00
F83    F     0.22609   0.19027   0.13372   0.00000  Uiso   1.00
F84    F     0.20478   0.32156   0.37973   0.00000  Uiso   1.00
F85    F     0.10745   0.30991   0.11883   0.00000  Uiso   1.00
F86    F     0.13134   0.17738   0.36964   0.00000  Uiso   1.00
F87    F     0.10679   0.31179   0.02184   0.00000  Uiso   1.00
F88    F     0.13043   0.17679   0.46577   0.00000  Uiso   1.00
C89    C     0.50086   0.16411   0.24999   0.00000  Uiso   1.00
C90    C     0.49872   0.33612   0.24999   0.00000  Uiso   1.00
C91    C     0.53009   0.21943   0.05618   0.00000  Uiso   1.00
C92    C     0.51823   0.28729   0.45043   0.00000  Uiso   1.00
C93    C     0.52972   0.21994   0.10587   0.00000  Uiso   1.00
C94    C     0.51843   0.28624   0.40068   0.00000  Uiso   1.00
C95    C     0.47045   0.28039   0.09839   0.00000  Uiso   1.00
C96    C     0.48228   0.21373   0.39568   0.00000  Uiso   1.00
C97    C     0.47020   0.28139   0.04860   0.00000  Uiso   1.00
C98    C     0.48209   0.21324   0.44539   0.00000  Uiso   1.00
C99    C     0.50013   0.25048   0.02671   0.00000  Uiso   1.00
C100   C     0.49996   0.25043   0.47356   0.00000  Uiso   1.00
C101   C     0.40059   0.25013   0.23772   0.00000  Uiso   1.00
C102   C     0.59935   0.25104   0.26233   0.00000  Uiso   1.00
C103   C     0.34608   0.25309   0.23095   0.00000  Uiso   1.00
C104   C     0.65392   0.25093   0.26947   0.00000  Uiso   1.00
C105   C     0.54797   0.04662   0.26577   0.00000  Uiso   1.00
C106   C     0.46658   0.45379   0.28140   0.00000  Uiso   1.00
C107   C     0.54887   0.09350   0.26361   0.00000  Uiso   1.00
C108   C     0.46533   0.40687   0.27981   0.00000  Uiso   1.00
C109   C     0.50206   0.11651   0.24987   0.00000  Uiso   1.00
C110   C     0.49583   0.38414   0.25009   0.00000  Uiso   1.00
C111   C     0.45541   0.09428   0.23706   0.00000  Uiso   1.00
C112   C     0.52495   0.40728   0.22081   0.00000  Uiso   1.00
C113   C     0.45453   0.04830   0.23837   0.00000  Uiso   1.00
C114   C     0.52585   0.45326   0.22208   0.00000  Uiso   1.00
C115   C     0.50024   0.02460   0.25298   0.00000  Uiso   1.00
C116   C     0.49772   0.47637   0.25268   0.00000  Uiso   1.00
H117   H     0.41972   0.11262   0.22637   0.00000  Uiso   1.00
H118   H     0.54800   0.38969   0.19775   0.00000  Uiso   1.00
H119   H     0.41820   0.03105   0.22783   0.00000  Uiso   1.00
H120   H     0.54877   0.47099   0.19935   0.00000  Uiso   1.00
N121   N     0.50000   0.24999   0.12623   0.00000  Uiso   1.00
N122   N     0.50000   0.25001   0.37376   0.00000  Uiso   1.00
O123   O     0.50000   0.18454   0.28974   0.00000  Uiso   1.00
O124   O     0.50000   0.31547   0.21026   0.00000  Uiso   1.00
O125   O     0.50000   0.18453   0.21026   0.00000  Uiso   1.00
O126   O     0.50000   0.31547   0.28974   0.00000  Uiso   1.00
O127   O     0.42392   0.25000   0.28044   0.00000  Uiso   1.00
O128   O     0.57608   0.25000   0.21955   0.00000  Uiso   1.00
O129   O     0.42392   0.25000   0.20096   0.00000  Uiso   1.00
O130   O     0.57608   0.25001   0.29903   0.00000  Uiso   1.00
Zn131  Zn    0.50000   0.25001   0.30307   0.00000  Uiso   1.00
Zn132  Zn    0.50000   0.25000   0.19693   0.00000  Uiso   1.00
N133   N     0.65398   0.25947   0.18300   0.00000  Uiso   1.00
H134   H     0.33473   0.23979   0.15774   0.00000  Uiso   1.00
C135   C     0.64767   0.30580   0.16866   0.00000  Uiso   1.00
H136   H     0.62368   0.30770   0.13291   0.00000  Uiso   1.00
H137   H     0.35262   0.32109   0.16667   0.00000  Uiso   1.00
H138   H     0.62779   0.32501   0.19439   0.00000  Uiso   1.00
N139   N     0.34587   0.24821   0.31790   0.00000  Uiso   1.00
H140   H     0.66587   0.27142   0.34033   0.00000  Uiso   1.00
C141   C     0.34864   0.20364   0.33788   0.00000  Uiso   1.00
H142   H     0.36858   0.20492   0.37530   0.00000  Uiso   1.00
H143   H     0.37089   0.18116   0.31704   0.00000  Uiso   1.00
H144   H     0.64262   0.18984   0.33805   0.00000  Uiso   1.00
N145   N     0.59453   0.02149   0.27850   0.00000  Uiso   1.00
H146   H     0.62707   0.03507   0.26779   0.00000  Uiso   1.00
C147   C     0.60351   0.00589   0.32731   0.00000  Uiso   1.00
H148   H     0.64071   0.48725   0.33374   0.00000  Uiso   1.00
H149   H     0.57238   0.48276   0.33409   0.00000  Uiso   1.00
H150   H     0.60551   0.03464   0.35255   0.00000  Uiso   1.00
N151   N     0.43528   0.47840   0.30978   0.00000  Uiso   1.00
H152   H     0.39980   0.46441   0.31216   0.00000  Uiso   1.00
C153   C     0.46185   0.49394   0.35531   0.00000  Uiso   1.00
H154   H     0.43415   0.01209   0.37476   0.00000  Uiso   1.00
H155   H     0.49315   0.01751   0.35007   0.00000  Uiso   1.00
H156   H     0.47833   0.46522   0.37734   0.00000  Uiso   1.00
N157   N     0.59592   0.11771   0.27578   0.00000  Uiso   1.00
H158   H     0.62102   0.10447   0.30379   0.00000  Uiso   1.00
C159   C     0.62124   0.12901   0.23533   0.00000  Uiso   1.00
H160   H     0.63204   0.09825   0.21689   0.00000  Uiso   1.00
H161   H     0.65688   0.14833   0.24754   0.00000  Uiso   1.00
H162   H     0.59549   0.14993   0.20974   0.00000  Uiso   1.00
N163   N     0.43414   0.38240   0.30790   0.00000  Uiso   1.00
H164   H     0.43144   0.39603   0.34096   0.00000  Uiso   1.00
C165   C     0.38476   0.36828   0.28235   0.00000  Uiso   1.00
H166   H     0.36003   0.39779   0.27109   0.00000  Uiso   1.00
H167   H     0.36469   0.34710   0.30591   0.00000  Uiso   1.00
H168   H     0.39029   0.34830   0.25034   0.00000  Uiso   1.00
F169   F     0.56027   0.18925   0.03710   0.00000  Uiso   1.00
F170   F     0.53701   0.32373   0.47600   0.00000  Uiso   1.00
F171   F     0.55942   0.19027   0.13372   0.00000  Uiso   1.00
F172   F     0.53812   0.32156   0.37973   0.00000  Uiso   1.00
F173   F     0.44079   0.30991   0.11883   0.00000  Uiso   1.00
F174   F     0.46467   0.17738   0.36964   0.00000  Uiso   1.00
F175   F     0.44012   0.31179   0.02184   0.00000  Uiso   1.00
F176   F     0.46377   0.17679   0.46577   0.00000  Uiso   1.00
C177   C     0.83419   0.16411   0.24999   0.00000  Uiso   1.00
C178   C     0.83205   0.33612   0.24999   0.00000  Uiso   1.00
C179   C     0.86342   0.21943   0.05618   0.00000  Uiso   1.00
C180   C     0.85156   0.28729   0.45043   0.00000  Uiso   1.00
C181   C     0.86305   0.21994   0.10587   0.00000  Uiso   1.00
C182   C     0.85176   0.28624   0.40068   0.00000  Uiso   1.00
C183   C     0.80378   0.28039   0.09839   0.00000  Uiso   1.00
C184   C     0.81562   0.21373   0.39568   0.00000  Uiso   1.00
C185   C     0.80353   0.28139   0.04860   0.00000  Uiso   1.00
C186   C     0.81542   0.21324   0.44539   0.00000  Uiso   1.00
C187   C     0.83346   0.25048   0.02671   0.00000  Uiso   1.00
C188   C     0.83329   0.25043   0.47356   0.00000  Uiso   1.00
C189   C     0.73392   0.25013   0.23772   0.00000  Uiso   1.00
C190   C     0.93268   0.25104   0.26233   0.00000  Uiso   1.00
C191   C     0.67941   0.25309   0.23095   0.00000  Uiso   1.00
C192   C     0.98725   0.25093   0.26947   0.00000  Uiso   1.00
C193   C     0.88130   0.04662   0.26577   0.00000  Uiso   1.00
C194   C     0.79992   0.45379   0.28140   0.00000  Uiso   1.00
C195   C     0.88220   0.09350   0.26361   0.00000  Uiso   1.00
C196   C     0.79867   0.40687   0.27981   0.00000  Uiso   1.00
C197   C     0.83539   0.11651   0.24987   0.00000  Uiso   1.00
C198   C     0.82917   0.38414   0.25009   0.00000  Uiso   1.00
C199   C     0.78875   0.09428   0.23706   0.00000  Uiso   1.00
C200   C     0.85829   0.40728   0.22081   0.00000  Uiso   1.00
C201   C     0.78786   0.04830   0.23837   0.00000  Uiso   1.00
C202   C     0.85918   0.45326   0.22208   0.00000  Uiso   1.00
C203   C     0.83357   0.02460   0.25298   0.00000  Uiso   1.00
C204   C     0.83105   0.47637   0.25268   0.00000  Uiso   1.00
H205   H     0.75306   0.11262   0.22637   0.00000  Uiso   1.00
H206   H     0.88134   0.38969   0.19775   0.00000  Uiso   1.00
H207   H     0.75153   0.03105   0.22783   0.00000  Uiso   1.00
H208   H     0.88211   0.47099   0.19935   0.00000  Uiso   1.00
N209   N     0.83333   0.24999   0.12623   0.00000  Uiso   1.00
N210   N     0.83333   0.25001   0.37376   0.00000  Uiso   1.00
O211   O     0.83334   0.18454   0.28974   0.00000  Uiso   1.00
O212   O     0.83333   0.31547   0.21026   0.00000  Uiso   1.00
O213   O     0.83334   0.18453   0.21026   0.00000  Uiso   1.00
O214   O     0.83333   0.31547   0.28974   0.00000  Uiso   1.00
O215   O     0.75725   0.25000   0.28044   0.00000  Uiso   1.00
O216   O     0.90942   0.25000   0.21955   0.00000  Uiso   1.00
O217   O     0.75725   0.25000   0.20096   0.00000  Uiso   1.00
O218   O     0.90942   0.25001   0.29903   0.00000  Uiso   1.00
Zn219  Zn    0.83333   0.25001   0.30307   0.00000  Uiso   1.00
Zn220  Zn    0.83333   0.25000   0.19693   0.00000  Uiso   1.00
N221   N     0.98731   0.25947   0.18300   0.00000  Uiso   1.00
H222   H     0.66806   0.23979   0.15774   0.00000  Uiso   1.00
C223   C     0.98100   0.30580   0.16866   0.00000  Uiso   1.00
H224   H     0.95701   0.30770   0.13291   0.00000  Uiso   1.00
H225   H     0.68595   0.32109   0.16667   0.00000  Uiso   1.00
H226   H     0.96112   0.32501   0.19439   0.00000  Uiso   1.00
N227   N     0.67920   0.24821   0.31790   0.00000  Uiso   1.00
H228   H     0.99921   0.27142   0.34033   0.00000  Uiso   1.00
C229   C     0.68197   0.20364   0.33788   0.00000  Uiso   1.00
H230   H     0.70191   0.20492   0.37530   0.00000  Uiso   1.00
H231   H     0.70422   0.18116   0.31704   0.00000  Uiso   1.00
H232   H     0.97595   0.18984   0.33805   0.00000  Uiso   1.00
N233   N     0.92786   0.02149   0.27850   0.00000  Uiso   1.00
H234   H     0.96041   0.03507   0.26779   0.00000  Uiso   1.00
C235   C     0.93684   0.00589   0.32731   0.00000  Uiso   1.00
H236   H     0.97404   0.48725   0.33374   0.00000  Uiso   1.00
H237   H     0.90572   0.48276   0.33409   0.00000  Uiso   1.00
H238   H     0.93885   0.03464   0.35255   0.00000  Uiso   1.00
N239   N     0.76861   0.47840   0.30978   0.00000  Uiso   1.00
H240   H     0.73314   0.46441   0.31216   0.00000  Uiso   1.00
C241   C     0.79518   0.49394   0.35531   0.00000  Uiso   1.00
H242   H     0.76748   0.01209   0.37476   0.00000  Uiso   1.00
H243   H     0.82648   0.01751   0.35007   0.00000  Uiso   1.00
H244   H     0.81167   0.46522   0.37734   0.00000  Uiso   1.00
N245   N     0.92925   0.11771   0.27578   0.00000  Uiso   1.00
H246   H     0.95435   0.10447   0.30379   0.00000  Uiso   1.00
C247   C     0.95458   0.12901   0.23533   0.00000  Uiso   1.00
H248   H     0.96537   0.09825   0.21689   0.00000  Uiso   1.00
H249   H     0.99022   0.14833   0.24754   0.00000  Uiso   1.00
H250   H     0.92883   0.14993   0.20974   0.00000  Uiso   1.00
N251   N     0.76748   0.38240   0.30790   0.00000  Uiso   1.00
H252   H     0.76477   0.39603   0.34096   0.00000  Uiso   1.00
C253   C     0.71809   0.36828   0.28235   0.00000  Uiso   1.00
H254   H     0.69336   0.39779   0.27109   0.00000  Uiso   1.00
H255   H     0.69803   0.34710   0.30591   0.00000  Uiso   1.00
H256   H     0.72362   0.34830   0.25034   0.00000  Uiso   1.00
F257   F     0.89360   0.18925   0.03710   0.00000  Uiso   1.00
F258   F     0.87034   0.32373   0.47600   0.00000  Uiso   1.00
F259   F     0.89275   0.19027   0.13372   0.00000  Uiso   1.00
F260   F     0.87145   0.32156   0.37973   0.00000  Uiso   1.00
F261   F     0.77412   0.30991   0.11883   0.00000  Uiso   1.00
F262   F     0.79800   0.17738   0.36964   0.00000  Uiso   1.00
F263   F     0.77346   0.31179   0.02184   0.00000  Uiso   1.00
F264   F     0.79710   0.17679   0.46577   0.00000  Uiso   1.00
C265   C     0.16752   0.66411   0.24999   0.00000  Uiso   1.00
C266   C     0.16539   0.83612   0.24999   0.00000  Uiso   1.00
C267   C     0.19676   0.71943   0.05618   0.00000  Uiso   1.00
C268   C     0.18490   0.78729   0.45043   0.00000  Uiso   1.00
C269   C     0.19638   0.71994   0.10587   0.00000  Uiso   1.00
C270   C     0.18510   0.78624   0.40068   0.00000  Uiso   1.00
C271   C     0.13711   0.78039   0.09839   0.00000  Uiso   1.00
C272   C     0.14895   0.71373   0.39568   0.00000  Uiso   1.00
C273   C     0.13687   0.78139   0.04860   0.00000  Uiso   1.00
C274   C     0.14876   0.71324   0.44539   0.00000  Uiso   1.00
C275   C     0.16679   0.75048   0.02671   0.00000  Uiso   1.00
C276   C     0.16663   0.75043   0.47356   0.00000  Uiso   1.00
C277   C     0.06726   0.75013   0.23772   0.00000  Uiso   1.00
C278   C     0.26601   0.75104   0.26233   0.00000  Uiso   1.00
C279   C     0.01275   0.75309   0.23095   0.00000  Uiso   1.00
C280   C     0.32058   0.75093   0.26947   0.00000  Uiso   1.00
C281   C     0.21464   0.54662   0.26577   0.00000  Uiso   1.00
C282   C     0.13325   0.95379   0.28140   0.00000  Uiso   1.00
C283   C     0.21554   0.59350   0.26361   0.00000  Uiso   1.00
C284   C     0.13200   0.90687   0.27981   0.00000  Uiso   1.00
C285   C     0.16873   0.61651   0.24987   0.00000  Uiso   1.00
C286   C     0.16250   0.88414   0.25009   0.00000  Uiso   1.00
C287   C     0.12208   0.59428   0.23706   0.00000  Uiso   1.00
C288   C     0.19162   0.90728   0.22081   0.00000  Uiso   1.00
C289   C     0.12119   0.54830   0.23837   0.00000  Uiso   1.00
C290   C     0.19252   0.95326   0.22208   0.00000  Uiso   1.00
C291   C     0.16690   0.52460   0.25298   0.00000  Uiso   1.00
C292   C     0.16439   0.97637   0.25268   0.00000  Uiso   1.00
H293   H     0.08639   0.61262   0.22637   0.00000  Uiso   1.00
H294   H     0.21467   0.88969   0.19775   0.00000  Uiso   1.00
H295   H     0.08487   0.53105   0.22783   0.00000  Uiso   1.00
H296   H     0.21544   0.97099   0.19935   0.00000  Uiso   1.00
N297   N     0.16667   0.74999   0.12623   0.00000  Uiso   1.00
N298   N     0.16667   0.75001   0.37376   0.00000  Uiso   1.00
O299   O     0.16667   0.68454   0.28974   0.00000  Uiso   1.00
O300   O     0.16666   0.81547   0.21026   0.00000  Uiso   1.00
O301   O     0.16667   0.68453   0.21026   0.00000  Uiso   1.00
O302   O     0.16666   0.81547   0.28974   0.00000  Uiso   1.00
O303   O     0.09058   0.75000   0.28044   0.00000  Uiso   1.00
O304   O     0.24275   0.75000   0.21955   0.00000  Uiso   1.00
O305   O     0.09058   0.75000   0.20096   0.00000  Uiso   1.00
O306   O     0.24275   0.75001   0.29903   0.00000  Uiso   1.00
Zn307  Zn    0.16667   0.75001   0.30307   0.00000  Uiso   1.00
Zn308  Zn    0.16667   0.75000   0.19693   0.00000  Uiso   1.00
N309   N     0.32064   0.75947   0.18300   0.00000  Uiso   1.00
H310   H     0.00139   0.73979   0.15774   0.00000  Uiso   1.00
C311   C     0.31434   0.80580   0.16866   0.00000  Uiso   1.00
H312   H     0.29035   0.80770   0.13291   0.00000  Uiso   1.00
H313   H     0.01928   0.82109   0.16667   0.00000  Uiso   1.00
H314   H     0.29445   0.82501   0.19439   0.00000  Uiso   1.00
N315   N     0.01253   0.74821   0.31790   0.00000  Uiso   1.00
H316   H     0.33254   0.77142   0.34033   0.00000  Uiso   1.00
C317   C     0.01530   0.70364   0.33788   0.00000  Uiso   1.00
H318   H     0.03524   0.70492   0.37530   0.00000  Uiso   1.00
H319   H     0.03755   0.68116   0.31704   0.00000  Uiso   1.00
H320   H     0.30928   0.68984   0.33805   0.00000  Uiso   1.00
N321   N     0.26120   0.52149   0.27850   0.00000  Uiso   1.00
H322   H     0.29374   0.53507   0.26779   0.00000  Uiso   1.00
C323   C     0.27017   0.50589   0.32731   0.00000  Uiso   1.00
H324   H     0.30738   0.98725   0.33374   0.00000  Uiso   1.00
H325   H     0.23905   0.98276   0.33409   0.00000  Uiso   1.00
H326   H     0.27218   0.53464   0.35255   0.00000  Uiso   1.00
N327   N     0.10194   0.97840   0.30978   0.00000  Uiso   1.00
H328   H     0.06647   0.96441   0.31216   0.00000  Uiso   1.00
C329   C     0.12852   0.99394   0.35531   0.00000  Uiso   1.00
H330   H     0.10081   0.51209   0.37476   0.00000  Uiso   1.00
H331   H     0.15982   0.51751   0.35007   0.00000  Uiso   1.00
H332   H     0.14500   0.96522   0.37734   0.00000  Uiso   1.00
N333   N     0.26259   0.61771   0.27578   0.00000  Uiso   1.00
H334   H     0.28769   0.60447   0.30379   0.00000  Uiso   1.00
C335   C     0.28791   0.62901   0.23533   0.00000  Uiso   1.00
H336   H     0.29871   0.59825   0.21689   0.00000  Uiso   1.00
H337   H     0.32355   0.64833   0.24754   0.00000  Uiso   1.00
H338   H     0.26216   0.64993   0.20974   0.00000  Uiso   1.00
N339   N     0.10081   0.88240   0.30790   0.00000  Uiso   1.00
H340   H     0.09811   0.89603   0.34096   0.00000  Uiso   1.00
C341   C     0.05142   0.86828   0.28235   0.00000  Uiso   1.00
H342   H     0.02670   0.89779   0.27109   0.00000  Uiso   1.00
H343   H     0.03136   0.84710   0.30591   0.00000  Uiso   1.00
H344   H     0.05695   0.84830   0.25034   0.00000  Uiso   1.00
F345   F     0.22693   0.68925   0.03710   0.00000  Uiso   1.00
F346   F     0.20368   0.82373   0.47600   0.00000  Uiso   1.00
F347   F     0.22609   0.69027   0.13372   0.00000  Uiso   1.00
F348   F     0.20478   0.82156   0.37973   0.00000  Uiso   1.00
F349   F     0.10745   0.80991   0.11883   0.00000  Uiso   1.00
F350   F     0.13134   0.67738   0.36964   0.00000  Uiso   1.00
F351   F     0.10679   0.81179   0.02184   0.00000  Uiso   1.00
F352   F     0.13043   0.67679   0.46577   0.00000  Uiso   1.00
C353   C     0.50086   0.66411   0.24999   0.00000  Uiso   1.00
C354   C     0.49872   0.83612   0.24999   0.00000  Uiso   1.00
C355   C     0.53009   0.71943   0.05618   0.00000  Uiso   1.00
C356   C     0.51823   0.78729   0.45043   0.00000  Uiso   1.00
C357   C     0.52972   0.71994   0.10587   0.00000  Uiso   1.00
C358   C     0.51843   0.78624   0.40068   0.00000  Uiso   1.00
C359   C     0.47045   0.78039   0.09839   0.00000  Uiso   1.00
C360   C     0.48228   0.71373   0.39568   0.00000  Uiso   1.00
C361   C     0.47020   0.78139   0.04860   0.00000  Uiso   1.00
C362   C     0.48209   0.71324   0.44539   0.00000  Uiso   1.00
C363   C     0.50013   0.75048   0.02671   0.00000  Uiso   1.00
C364   C     0.49996   0.75043   0.47356   0.00000  Uiso   1.00
C365   C     0.40059   0.75013   0.23772   0.00000  Uiso   1.00
C366   C     0.59935   0.75104   0.26233   0.00000  Uiso   1.00
C367   C     0.34608   0.75309   0.23095   0.00000  Uiso   1.00
C368   C     0.65392   0.75093   0.26947   0.00000  Uiso   1.00
C369   C     0.54797   0.54662   0.26577   0.00000  Uiso   1.00
C370   C     0.46658   0.95379   0.28140   0.00000  Uiso   1.00
C371   C     0.54887   0.59350   0.26361   0.00000  Uiso   1.00
C372   C     0.46533   0.90687   0.27981   0.00000  Uiso   1.00
C373   C     0.50206   0.61651   0.24987   0.00000  Uiso   1.00
C374   C     0.49583   0.88414   0.25009   0.00000  Uiso   1.00
C375   C     0.45541   0.59428   0.23706   0.00000  Uiso   1.00
C376   C     0.52495   0.90728   0.22081   0.00000  Uiso   1.00
C377   C     0.45453   0.54830   0.23837   0.00000  Uiso   1.00
C378   C     0.52585   0.95326   0.22208   0.00000  Uiso   1.00
C379   C     0.50024   0.52460   0.25298   0.00000  Uiso   1.00
C380   C     0.49772   0.97637   0.25268   0.00000  Uiso   1.00
H381   H     0.41972   0.61262   0.22637   0.00000  Uiso   1.00
H382   H     0.54800   0.88969   0.19775   0.00000  Uiso   1.00
H383   H     0.41820   0.53105   0.22783   0.00000  Uiso   1.00
H384   H     0.54877   0.97099   0.19935   0.00000  Uiso   1.00
N385   N     0.50000   0.74999   0.12623   0.00000  Uiso   1.00
N386   N     0.50000   0.75001   0.37376   0.00000  Uiso   1.00
O387   O     0.50000   0.68454   0.28974   0.00000  Uiso   1.00
O388   O     0.50000   0.81547   0.21026   0.00000  Uiso   1.00
O389   O     0.50000   0.68453   0.21026   0.00000  Uiso   1.00
O390   O     0.50000   0.81547   0.28974   0.00000  Uiso   1.00
O391   O     0.42392   0.75000   0.28044   0.00000  Uiso   1.00
O392   O     0.57608   0.75000   0.21955   0.00000  Uiso   1.00
O393   O     0.42392   0.75000   0.20096   0.00000  Uiso   1.00
O394   O     0.57608   0.75001   0.29903   0.00000  Uiso   1.00
Zn395  Zn    0.50000   0.75001   0.30307   0.00000  Uiso   1.00
Zn396  Zn    0.50000   0.75000   0.19693   0.00000  Uiso   1.00
N397   N     0.65398   0.75947   0.18300   0.00000  Uiso   1.00
H398   H     0.33473   0.73979   0.15774   0.00000  Uiso   1.00
C399   C     0.64767   0.80580   0.16866   0.00000  Uiso   1.00
H400   H     0.62368   0.80770   0.13291   0.00000  Uiso   1.00
H401   H     0.35262   0.82109   0.16667   0.00000  Uiso   1.00
H402   H     0.62779   0.82501   0.19439   0.00000  Uiso   1.00
N403   N     0.34587   0.74821   0.31790   0.00000  Uiso   1.00
H404   H     0.66587   0.77142   0.34033   0.00000  Uiso   1.00
C405   C     0.34864   0.70364   0.33788   0.00000  Uiso   1.00
H406   H     0.36858   0.70492   0.37530   0.00000  Uiso   1.00
H407   H     0.37089   0.68116   0.31704   0.00000  Uiso   1.00
H408   H     0.64262   0.68984   0.33805   0.00000  Uiso   1.00
N409   N     0.59453   0.52149   0.27850   0.00000  Uiso   1.00
H410   H     0.62707   0.53507   0.26779   0.00000  Uiso   1.00
C411   C     0.60351   0.50589   0.32731   0.00000  Uiso   1.00
H412   H     0.64071   0.98725   0.33374   0.00000  Uiso   1.00
H413   H     0.57238   0.98276   0.33409   0.00000  Uiso   1.00
H414   H     0.60551   0.53464   0.35255   0.00000  Uiso   1.00
N415   N     0.43528   0.97840   0.30978   0.00000  Uiso   1.00
H416   H     0.39980   0.96441   0.31216   0.00000  Uiso   1.00
C417   C     0.46185   0.99394   0.35531   0.00000  Uiso   1.00
H418   H     0.43415   0.51209   0.37476   0.00000  Uiso   1.00
H419   H     0.49315   0.51751   0.35007   0.00000  Uiso   1.00
H420   H     0.47833   0.96522   0.37734   0.00000  Uiso   1.00
N421   N     0.59592   0.61771   0.27578   0.00000  Uiso   1.00
H422   H     0.62102   0.60447   0.30379   0.00000  Uiso   1.00
C423   C     0.62124   0.62901   0.23533   0.00000  Uiso   1.00
H424   H     0.63204   0.59825   0.21689   0.00000  Uiso   1.00
H425   H     0.65688   0.64833   0.24754   0.00000  Uiso   1.00
H426   H     0.59549   0.64993   0.20974   0.00000  Uiso   1.00
N427   N     0.43414   0.88240   0.30790   0.00000  Uiso   1.00
H428   H     0.43144   0.89603   0.34096   0.00000  Uiso   1.00
C429   C     0.38476   0.86828   0.28235   0.00000  Uiso   1.00
H430   H     0.36003   0.89779   0.27109   0.00000  Uiso   1.00
H431   H     0.36469   0.84710   0.30591   0.00000  Uiso   1.00
H432   H     0.39029   0.84830   0.25034   0.00000  Uiso   1.00
F433   F     0.56027   0.68925   0.03710   0.00000  Uiso   1.00
F434   F     0.53701   0.82373   0.47600   0.00000  Uiso   1.00
F435   F     0.55942   0.69027   0.13372   0.00000  Uiso   1.00
F436   F     0.53812   0.82156   0.37973   0.00000  Uiso   1.00
F437   F     0.44079   0.80991   0.11883   0.00000  Uiso   1.00
F438   F     0.46467   0.67738   0.36964   0.00000  Uiso   1.00
F439   F     0.44012   0.81179   0.02184   0.00000  Uiso   1.00
F440   F     0.46377   0.67679   0.46577   0.00000  Uiso   1.00
C441   C     0.83419   0.66411   0.24999   0.00000  Uiso   1.00
C442   C     0.83205   0.83612   0.24999   0.00000  Uiso   1.00
C443   C     0.86342   0.71943   0.05618   0.00000  Uiso   1.00
C444   C     0.85156   0.78729   0.45043   0.00000  Uiso   1.00
C445   C     0.86305   0.71994   0.10587   0.00000  Uiso   1.00
C446   C     0.85176   0.78624   0.40068   0.00000  Uiso   1.00
C447   C     0.80378   0.78039   0.09839   0.00000  Uiso   1.00
C448   C     0.81562   0.71373   0.39568   0.00000  Uiso   1.00
C449   C     0.80353   0.78139   0.04860   0.00000  Uiso   1.00
C450   C     0.81542   0.71324   0.44539   0.00000  Uiso   1.00
C451   C     0.83346   0.75048   0.02671   0.00000  Uiso   1.00
C452   C     0.83329   0.75043   0.47356   0.00000  Uiso   1.00
C453   C     0.73392   0.75013   0.23772   0.00000  Uiso   1.00
C454   C     0.93268   0.75104   0.26233   0.00000  Uiso   1.00
C455   C     0.67941   0.75309   0.23095   0.00000  Uiso   1.00
C456   C     0.98725   0.75093   0.26947   0.00000  Uiso   1.00
C457   C     0.88130   0.54662   0.26577   0.00000  Uiso   1.00
C458   C     0.79992   0.95379   0.28140   0.00000  Uiso   1.00
C459   C     0.88220   0.59350   0.26361   0.00000  Uiso   1.00
C460   C     0.79867   0.90687   0.27981   0.00000  Uiso   1.00
C461   C     0.83539   0.61651   0.24987   0.00000  Uiso   1.00
C462   C     0.82917   0.88414   0.25009   0.00000  Uiso   1.00
C463   C     0.78875   0.59428   0.23706   0.00000  Uiso   1.00
C464   C     0.85829   0.90728   0.22081   0.00000  Uiso   1.00
C465   C     0.78786   0.54830   0.23837   0.00000  Uiso   1.00
C466   C     0.85918   0.95326   0.22208   0.00000  Uiso   1.00
C467   C     0.83357   0.52460   0.25298   0.00000  Uiso   1.00
C468   C     0.83105   0.97637   0.25268   0.00000  Uiso   1.00
H469   H     0.75306   0.61262   0.22637   0.00000  Uiso   1.00
H470   H     0.88134   0.88969   0.19775   0.00000  Uiso   1.00
H471   H     0.75153   0.53105   0.22783   0.00000  Uiso   1.00
H472   H     0.88211   0.97099   0.19935   0.00000  Uiso   1.00
N473   N     0.83333   0.74999   0.12623   0.00000  Uiso   1.00
N474   N     0.83333   0.75001   0.37376   0.00000  Uiso   1.00
O475   O     0.83334   0.68454   0.28974   0.00000  Uiso   1.00
O476   O     0.83333   0.81547   0.21026   0.00000  Uiso   1.00
O477   O     0.83334   0.68453   0.21026   0.00000  Uiso   1.00
O478   O     0.83333   0.81547   0.28974   0.00000  Uiso   1.00
O479   O     0.75725   0.75000   0.28044   0.00000  Uiso   1.00
O480   O     0.90942   0.75000   0.21955   0.00000  Uiso   1.00
O481   O     0.75725   0.75000   0.20096   0.00000  Uiso   1.00
O482   O     0.90942   0.75001   0.29903   0.00000  Uiso   1.00
Zn483  Zn    0.83333   0.75001   0.30307   0.00000  Uiso   1.00
Zn484  Zn    0.83333   0.75000   0.19693   0.00000  Uiso   1.00
N485   N     0.98731   0.75947   0.18300   0.00000  Uiso   1.00
H486   H     0.66806   0.73979   0.15774   0.00000  Uiso   1.00
C487   C     0.98100   0.80580   0.16866   0.00000  Uiso   1.00
H488   H     0.95701   0.80770   0.13291   0.00000  Uiso   1.00
H489   H     0.68595   0.82109   0.16667   0.00000  Uiso   1.00
H490   H     0.96112   0.82501   0.19439   0.00000  Uiso   1.00
N491   N     0.67920   0.74821   0.31790   0.00000  Uiso   1.00
H492   H     0.99921   0.77142   0.34033   0.00000  Uiso   1.00
C493   C     0.68197   0.70364   0.33788   0.00000  Uiso   1.00
H494   H     0.70191   0.70492   0.37530   0.00000  Uiso   1.00
H495   H     0.70422   0.68116   0.31704   0.00000  Uiso   1.00
H496   H     0.97595   0.68984   0.33805   0.00000  Uiso   1.00
N497   N     0.92786   0.52149   0.27850   0.00000  Uiso   1.00
H498   H     0.96041   0.53507   0.26779   0.00000  Uiso   1.00
C499   C     0.93684   0.50589   0.32731   0.00000  Uiso   1.00
H500   H     0.97404   0.98725   0.33374   0.00000  Uiso   1.00
H501   H     0.90572   0.98276   0.33409   0.00000  Uiso   1.00
H502   H     0.93885   0.53464   0.35255   0.00000  Uiso   1.00
N503   N     0.76861   0.97840   0.30978   0.00000  Uiso   1.00
H504   H     0.73314   0.96441   0.31216   0.00000  Uiso   1.00
C505   C     0.79518   0.99394   0.35531   0.00000  Uiso   1.00
H506   H     0.76748   0.51209   0.37476   0.00000  Uiso   1.00
H507   H     0.82648   0.51751   0.35007   0.00000  Uiso   1.00
H508   H     0.81167   0.96522   0.37734   0.00000  Uiso   1.00
N509   N     0.92925   0.61771   0.27578   0.00000  Uiso   1.00
H510   H     0.95435   0.60447   0.30379   0.00000  Uiso   1.00
C511   C     0.95458   0.62901   0.23533   0.00000  Uiso   1.00
H512   H     0.96537   0.59825   0.21689   0.00000  Uiso   1.00
H513   H     0.99022   0.64833   0.24754   0.00000  Uiso   1.00
H514   H     0.92883   0.64993   0.20974   0.00000  Uiso   1.00
N515   N     0.76748   0.88240   0.30790   0.00000  Uiso   1.00
H516   H     0.76477   0.89603   0.34096   0.00000  Uiso   1.00
C517   C     0.71809   0.86828   0.28235   0.00000  Uiso   1.00
H518   H     0.69336   0.89779   0.27109   0.00000  Uiso   1.00
H519   H     0.69803   0.84710   0.30591   0.00000  Uiso   1.00
H520   H     0.72362   0.84830   0.25034   0.00000  Uiso   1.00
F521   F     0.89360   0.68925   0.03710   0.00000  Uiso   1.00
F522   F     0.87034   0.82373   0.47600   0.00000  Uiso   1.00
F523   F     0.89275   0.69027   0.13372   0.00000  Uiso   1.00
F524   F     0.87145   0.82156   0.37973   0.00000  Uiso   1.00
F525   F     0.77412   0.80991   0.11883   0.00000  Uiso   1.00
F526   F     0.79800   0.67738   0.36964   0.00000  Uiso   1.00
F527   F     0.77346   0.81179   0.02184   0.00000  Uiso   1.00
F528   F     0.79710   0.67679   0.46577   0.00000  Uiso   1.00
C529   C     0.16752   0.16411   0.74999   0.00000  Uiso   1.00
C530   C     0.16539   0.33612   0.74999   0.00000  Uiso   1.00
C531   C     0.19676   0.21943   0.55618   0.00000  Uiso   1.00
C532   C     0.18490   0.28729   0.95043   0.00000  Uiso   1.00
C533   C     0.19638   0.21994   0.60587   0.00000  Uiso   1.00
C534   C     0.18510   0.28624   0.90068   0.00000  Uiso   1.00
C535   C     0.13711   0.28039   0.59839   0.00000  Uiso   1.00
C536   C     0.14895   0.21373   0.89568   0.00000  Uiso   1.00
C537   C     0.13687   0.28139   0.54860   0.00000  Uiso   1.00
C538   C     0.14876   0.21324   0.94539   0.00000  Uiso   1.00
C539   C     0.16679   0.25048   0.52671   0.00000  Uiso   1.00
C540   C     0.16663   0.25043   0.97356   0.00000  Uiso   1.00
C541   C     0.06726   0.25013   0.73772   0.00000  Uiso   1.00
C542   C     0.26601   0.25104   0.76233   0.00000  Uiso   1.00
C543   C     0.01275   0.25309   0.73095   0.00000  Uiso   1.00
C544   C     0.32058   0.25093   0.76947   0.00000  Uiso   1.00
C545   C     0.21464   0.04662   0.76577   0.00000  Uiso   1.00
C546   C     0.13325   0.45379   0.78140   0.00000  Uiso   1.00
C547   C     0.21554   0.09350   0.76361   0.00000  Uiso   1.00
C548   C     0.13200   0.40687   0.77981   0.00000  Uiso   1.00
C549   C     0.16873   0.11651   0.74987   0.00000  Uiso   1.00
C550   C     0.16250   0.38414   0.75009   0.00000  Uiso   1.00
C551   C     0.12208   0.09428   0.73706   0.00000  Uiso   1.00
C552   C     0.19162   0.40728   0.72081   0.00000  Uiso   1.00
C553   C     0.12119   0.04830   0.73837   0.00000  Uiso   1.00
C554   C     0.19252   0.45326   0.72208   0.00000  Uiso   1.00
C555   C     0.16690   0.02460   0.75298   0.00000  Uiso   1.00
C556   C     0.16439   0.47637   0.75268   0.00000  Uiso   1.00
H557   H     0.08639   0.11262   0.72637   0.00000  Uiso   1.00
H558   H     0.21467   0.38969   0.69775   0.00000  Uiso   1.00
H559   H     0.08487   0.03105   0.72783   0.00000  Uiso   1.00
H560   H     0.21544   0.47099   0.69935   0.00000  Uiso   1.00
N561   N     0.16667   0.24999   0.62623   0.00000  Uiso   1.00
N562   N     0.16667   0.25001   0.87376   0.00000  Uiso   1.00
O563   O     0.16667   0.18454   0.78974   0.00000  Uiso   1.00
O564   O     0.16666   0.31547   0.71026   0.00000  Uiso   1.00
O565   O     0.16667   0.18453   0.71026   0.00000  Uiso   1.00
O566   O     0.16666   0.31547   0.78974   0.00000  Uiso   1.00
O567   O     0.09058   0.25000   0.78044   0.00000  Uiso   1.00
O568   O     0.24275   0.25000   0.71955   0.00000  Uiso   1.00
O569   O     0.09058   0.25000   0.70096   0.00000  Uiso   1.00
O570   O     0.24275   0.25001   0.79903   0.00000  Uiso   1.00
Zn571  Zn    0.16667   0.25001   0.80307   0.00000  Uiso   1.00
Zn572  Zn    0.16667   0.25000   0.69693   0.00000  Uiso   1.00
N573   N     0.32064   0.25947   0.68300   0.00000  Uiso   1.00
H574   H     0.00139   0.23979   0.65774   0.00000  Uiso   1.00
C575   C     0.31434   0.30580   0.66866   0.00000  Uiso   1.00
H576   H     0.29035   0.30770   0.63291   0.00000  Uiso   1.00
H577   H     0.01928   0.32109   0.66667   0.00000  Uiso   1.00
H578   H     0.29445   0.32501   0.69439   0.00000  Uiso   1.00
N579   N     0.01253   0.24821   0.81790   0.00000  Uiso   1.00
H580   H     0.33254   0.27142   0.84033   0.00000  Uiso   1.00
C581   C     0.01530   0.20364   0.83788   0.00000  Uiso   1.00
H582   H     0.03524   0.20492   0.87530   0.00000  Uiso   1.00
H583   H     0.03755   0.18116   0.81704   0.00000  Uiso   1.00
H584   H     0.30928   0.18984   0.83805   0.00000  Uiso   1.00
N585   N     0.26120   0.02149   0.77850   0.00000  Uiso   1.00
H586   H     0.29374   0.03507   0.76779   0.00000  Uiso   1.00
C587   C     0.27017   0.00589   0.82731   0.00000  Uiso   1.00
H588   H     0.30738   0.48725   0.83374   0.00000  Uiso   1.00
H589   H     0.23905   0.48276   0.83409   0.00000  Uiso   1.00
H590   H     0.27218   0.03464   0.85255   0.00000  Uiso   1.00
N591   N     0.10194   0.47840   0.80978   0.00000  Uiso   1.00
H592   H     0.06647   0.46441   0.81216   0.00000  Uiso   1.00
C593   C     0.12852   0.49394   0.85531   0.00000  Uiso   1.00
H594   H     0.10081   0.01209   0.87476   0.00000  Uiso   1.00
H595   H     0.15982   0.01751   0.85007   0.00000  Uiso   1.00
H596   H     0.14500   0.46522   0.87734   0.00000  Uiso   1.00
N597   N     0.26259   0.11771   0.77578   0.00000  Uiso   1.00
H598   H     0.28769   0.10447   0.80379   0.00000  Uiso   1.00
C599   C     0.28791   0.12901   0.73533   0.00000  Uiso   1.00
H600   H     0.29871   0.09825   0.71689   0.00000  Uiso   1.00
H601   H     0.32355   0.14833   0.74754   0.00000  Uiso   1.00
H602   H     0.26216   0.14993   0.70974   0.00000  Uiso   1.00
N603   N     0.10081   0.38240   0.80790   0.00000  Uiso   1.00
H604   H     0.09811   0.39603   0.84096   0.00000  Uiso   1.00
C605   C     0.05142   0.36828   0.78235   0.00000  Uiso   1.00
H606   H     0.02670   0.39779   0.77109   0.00000  Uiso   1.00
H607   H     0.03136   0.34710   0.80591   0.00000  Uiso   1.00
H608   H     0.05695   0.34830   0.75034   0.00000  Uiso   1.00
F609   F     0.22693   0.18925   0.53710   0.00000  Uiso   1.00
F610   F     0.20368   0.32373   0.97600   0.00000  Uiso   1.00
F611   F     0.22609   0.19027   0.63372   0.00000  Uiso   1.00
F612   F     0.20478   0.32156   0.87973   0.00000  Uiso   1.00
F613   F     0.10745   0.30991   0.61883   0.00000  Uiso   1.00
F614   F     0.13134   0.17738   0.86964   0.00000  Uiso   1.00
F615   F     0.10679   0.31179   0.52184   0.00000  Uiso   1.00
F616   F     0.13043   0.17679   0.96577   0.00000  Uiso   1.00
C617   C     0.50086   0.16411   0.74999   0.00000  Uiso   1.00
C618   C     0.49872   0.33612   0.74999   0.00000  Uiso   1.00
C619   C     0.53009   0.21943   0.55618   0.00000  Uiso   1.00
C620   C     0.51823   0.28729   0.95043   0.00000  Uiso   1.00
C621   C     0.52972   0.21994   0.60587   0.00000  Uiso   1.00
C622   C     0.51843   0.28624   0.90068   0.00000  Uiso   1.00
C623   C     0.47045   0.28039   0.59839   0.00000  Uiso   1.00
C624   C     0.48228   0.21373   0.89568   0.00000  Uiso   1.00
C625   C     0.47020   0.28139   0.54860   0.00000  Uiso   1.00
C626   C     0.48209   0.21324   0.94539   0.00000  Uiso   1.00
C627   C     0.50013   0.25048   0.52671   0.00000  Uiso   1.00
C628   C     0.49996   0.25043   0.97356   0.00000  Uiso   1.00
C629   C     0.40059   0.25013   0.73772   0.00000  Uiso   1.00
C630   C     0.59935   0.25104   0.76233   0.00000  Uiso   1.00
C631   C     0.34608   0.25309   0.73095   0.00000  Uiso   1.00
C632   C     0.65392   0.25093   0.76947   0.00000  Uiso   1.00
C633   C     0.54797   0.04662   0.76577   0.00000  Uiso   1.00
C634   C     0.46658   0.45379   0.78140   0.00000  Uiso   1.00
C635   C     0.54887   0.09350   0.76361   0.00000  Uiso   1.00
C636   C     0.46533   0.40687   0.77981   0.00000  Uiso   1.00
C637   C     0.50206   0.11651   0.74987   0.00000  Uiso   1.00
C638   C     0.49583   0.38414   0.75009   0.00000  Uiso   1.00
C639   C     0.45541   0.09428   0.73706   0.00000  Uiso   1.00
C640   C     0.52495   0.40728   0.72081   0.00000  Uiso   1.00
C641   C     0.45453   0.04830   0.73837   0.00000  Uiso   1.00
C642   C     0.52585   0.45326   0.72208   0.00000  Uiso   1.00
C643   C     0.50024   0.02460   0.75298   0.00000  Uiso   1.00
C644   C     0.49772   0.47637   0.75268   0.00000  Uiso   1.00
H645   H     0.41972   0.11262   0.72637   0.00000  Uiso   1.00
H646   H     0.54800   0.38969   0.69775   0.00000  Uiso   1.00
H647   H     0.41820   0.03105   0.72783   0.00000  Uiso   1.00
H648   H     0.54877   0.47099   0.69935   0.00000  Uiso   1.00
N649   N     0.50000   0.24999   0.62623   0.00000  Uiso   1.00
N650   N     0.50000   0.25001   0.87376   0.00000  Uiso   1.00
O651   O     0.50000   0.18454   0.78974   0.00000  Uiso   1.00
O652   O     0.50000   0.31547   0.71026   0.00000  Uiso   1.00
O653   O     0.50000   0.18453   0.71026   0.00000  Uiso   1.00
O654   O     0.50000   0.31547   0.78974   0.00000  Uiso   1.00
O655   O     0.42392   0.25000   0.78044   0.00000  Uiso   1.00
O656   O     0.57608   0.25000   0.71955   0.00000  Uiso   1.00
O657   O     0.42392   0.25000   0.70096   0.00000  Uiso   1.00
O658   O     0.57608   0.25001   0.79903   0.00000  Uiso   1.00
Zn659  Zn    0.50000   0.25001   0.80307   0.00000  Uiso   1.00
Zn660  Zn    0.50000   0.25000   0.69693   0.00000  Uiso   1.00
N661   N     0.65398   0.25947   0.68300   0.00000  Uiso   1.00
H662   H     0.33473   0.23979   0.65774   0.00000  Uiso   1.00
C663   C     0.64767   0.30580   0.66866   0.00000  Uiso   1.00
H664   H     0.62368   0.30770   0.63291   0.00000  Uiso   1.00
H665   H     0.35262   0.32109   0.66667   0.00000  Uiso   1.00
H666   H     0.62779   0.32501   0.69439   0.00000  Uiso   1.00
N667   N     0.34587   0.24821   0.81790   0.00000  Uiso   1.00
H668   H     0.66587   0.27142   0.84033   0.00000  Uiso   1.00
C669   C     0.34864   0.20364   0.83788   0.00000  Uiso   1.00
H670   H     0.36858   0.20492   0.87530   0.00000  Uiso   1.00
H671   H     0.37089   0.18116   0.81704   0.00000  Uiso   1.00
H672   H     0.64262   0.18984   0.83805   0.00000  Uiso   1.00
N673   N     0.59453   0.02149   0.77850   0.00000  Uiso   1.00
H674   H     0.62707   0.03507   0.76779   0.00000  Uiso   1.00
C675   C     0.60351   0.00589   0.82731   0.00000  Uiso   1.00
H676   H     0.64071   0.48725   0.83374   0.00000  Uiso   1.00
H677   H     0.57238   0.48276   0.83409   0.00000  Uiso   1.00
H678   H     0.60551   0.03464   0.85255   0.00000  Uiso   1.00
N679   N     0.43528   0.47840   0.80978   0.00000  Uiso   1.00
H680   H     0.39980   0.46441   0.81216   0.00000  Uiso   1.00
C681   C     0.46185   0.49394   0.85531   0.00000  Uiso   1.00
H682   H     0.43415   0.01209   0.87476   0.00000  Uiso   1.00
H683   H     0.49315   0.01751   0.85007   0.00000  Uiso   1.00
H684   H     0.47833   0.46522   0.87734   0.00000  Uiso   1.00
N685   N     0.59592   0.11771   0.77578   0.00000  Uiso   1.00
H686   H     0.62102   0.10447   0.80379   0.00000  Uiso   1.00
C687   C     0.62124   0.12901   0.73533   0.00000  Uiso   1.00
H688   H     0.63204   0.09825   0.71689   0.00000  Uiso   1.00
H689   H     0.65688   0.14833   0.74754   0.00000  Uiso   1.00
H690   H     0.59549   0.14993   0.70974   0.00000  Uiso   1.00
N691   N     0.43414   0.38240   0.80790   0.00000  Uiso   1.00
H692   H     0.43144   0.39603   0.84096   0.00000  Uiso   1.00
C693   C     0.38476   0.36828   0.78235   0.00000  Uiso   1.00
H694   H     0.36003   0.39779   0.77109   0.00000  Uiso   1.00
H695   H     0.36469   0.34710   0.80591   0.00000  Uiso   1.00
H696   H     0.39029   0.34830   0.75034   0.00000  Uiso   1.00
F697   F     0.56027   0.18925   0.53710   0.00000  Uiso   1.00
F698   F     0.53701   0.32373   0.97600   0.00000  Uiso   1.00
F699   F     0.55942   0.19027   0.63372   0.00000  Uiso   1.00
F700   F     0.53812   0.32156   0.87973   0.00000  Uiso   1.00
F701   F     0.44079   0.30991   0.61883   0.00000  Uiso   1.00
F702   F     0.46467   0.17738   0.86964   0.00000  Uiso   1.00
F703   F     0.44012   0.31179   0.52184   0.00000  Uiso   1.00
F704   F     0.46377   0.17679   0.96577   0.00000  Uiso   1.00
C705   C     0.83419   0.16411   0.74999   0.00000  Uiso   1.00
C706   C     0.83205   0.33612   0.74999   0.00000  Uiso   1.00
C707   C     0.86342   0.21943   0.55618   0.00000  Uiso   1.00
C708   C     0.85156   0.28729   0.95043   0.00000  Uiso   1.00
C709   C     0.86305   0.21994   0.60587   0.00000  Uiso   1.00
C710   C     0.85176   0.28624   0.90068   0.00000  Uiso   1.00
C711   C     0.80378   0.28039   0.59839   0.00000  Uiso   1.00
C712   C     0.81562   0.21373   0.89568   0.00000  Uiso   1.00
C713   C     0.80353   0.28139   0.54860   0.00000  Uiso   1.00
C714   C     0.81542   0.21324   0.94539   0.00000  Uiso   1.00
C715   C     0.83346   0.25048   0.52671   0.00000  Uiso   1.00
C716   C     0.83329   0.25043   0.97356   0.00000  Uiso   1.00
C717   C     0.73392   0.25013   0.73772   0.00000  Uiso   1.00
C718   C     0.93268   0.25104   0.76233   0.00000  Uiso   1.00
C719   C     0.67941   0.25309   0.73095   0.00000  Uiso   1.00
C720   C     0.98725   0.25093   0.76947   0.00000  Uiso   1.00
C721   C     0.88130   0.04662   0.76577   0.00000  Uiso   1.00
C722   C     0.79992   0.45379   0.78140   0.00000  Uiso   1.00
C723   C     0.88220   0.09350   0.76361   0.00000  Uiso   1.00
C724   C     0.79867   0.40687   0.77981   0.00000  Uiso   1.00
C725   C     0.83539   0.11651   0.74987   0.00000  Uiso   1.00
C726   C     0.82917   0.38414   0.75009   0.00000  Uiso   1.00
C727   C     0.78875   0.09428   0.73706   0.00000  Uiso   1.00
C728   C     0.85829   0.40728   0.72081   0.00000  Uiso   1.00
C729   C     0.78786   0.04830   0.73837   0.00000  Uiso   1.00
C730   C     0.85918   0.45326   0.72208   0.00000  Uiso   1.00
C731   C     0.83357   0.02460   0.75298   0.00000  Uiso   1.00
C732   C     0.83105   0.47637   0.75268   0.00000  Uiso   1.00
H733   H     0.75306   0.11262   0.72637   0.00000  Uiso   1.00
H734   H     0.88134   0.38969   0.69775   0.00000  Uiso   1.00
H735   H     0.75153   0.03105   0.72783   0.00000  Uiso   1.00
H736   H     0.88211   0.47099   0.69935   0.00000  Uiso   1.00
N737   N     0.83333   0.24999   0.62623   0.00000  Uiso   1.00
N738   N     0.83333   0.25001   0.87376   0.00000  Uiso   1.00
O739   O     0.83334   0.18454   0.78974   0.00000  Uiso   1.00
O740   O     0.83333   0.31547   0.71026   0.00000  Uiso   1.00
O741   O     0.83334   0.18453   0.71026   0.00000  Uiso   1.00
O742   O     0.83333   0.31547   0.78974   0.00000  Uiso   1.00
O743   O     0.75725   0.25000   0.78044   0.00000  Uiso   1.00
O744   O     0.90942   0.25000   0.71955   0.00000  Uiso   1.00
O745   O     0.75725   0.25000   0.70096   0.00000  Uiso   1.00
O746   O     0.90942   0.25001   0.79903   0.00000  Uiso   1.00
Zn747  Zn    0.83333   0.25001   0.80307   0.00000  Uiso   1.00
Zn748  Zn    0.83333   0.25000   0.69693   0.00000  Uiso   1.00
N749   N     0.98731   0.25947   0.68300   0.00000  Uiso   1.00
H750   H     0.66806   0.23979   0.65774   0.00000  Uiso   1.00
C751   C     0.98100   0.30580   0.66866   0.00000  Uiso   1.00
H752   H     0.95701   0.30770   0.63291   0.00000  Uiso   1.00
H753   H     0.68595   0.32109   0.66667   0.00000  Uiso   1.00
H754   H     0.96112   0.32501   0.69439   0.00000  Uiso   1.00
N755   N     0.67920   0.24821   0.81790   0.00000  Uiso   1.00
H756   H     0.99921   0.27142   0.84033   0.00000  Uiso   1.00
C757   C     0.68197   0.20364   0.83788   0.00000  Uiso   1.00
H758   H     0.70191   0.20492   0.87530   0.00000  Uiso   1.00
H759   H     0.70422   0.18116   0.81704   0.00000  Uiso   1.00
H760   H     0.97595   0.18984   0.83805   0.00000  Uiso   1.00
N761   N     0.92786   0.02149   0.77850   0.00000  Uiso   1.00
H762   H     0.96041   0.03507   0.76779   0.00000  Uiso   1.00
C763   C     0.93684   0.00589   0.82731   0.00000  Uiso   1.00
H764   H     0.97404   0.48725   0.83374   0.00000  Uiso   1.00
H765   H     0.90572   0.48276   0.83409   0.00000  Uiso   1.00
H766   H     0.93885   0.03464   0.85255   0.00000  Uiso   1.00
N767   N     0.76861   0.47840   0.80978   0.00000  Uiso   1.00
H768   H     0.73314   0.46441   0.81216   0.00000  Uiso   1.00
C769   C     0.79518   0.49394   0.85531   0.00000  Uiso   1.00
H770   H     0.76748   0.01209   0.87476   0.00000  Uiso   1.00
H771   H     0.82648   0.01751   0.85007   0.00000  Uiso   1.00
H772   H     0.81167   0.46522   0.87734   0.00000  Uiso   1.00
N773   N     0.92925   0.11771   0.77578   0.00000  Uiso   1.00
H774   H     0.95435   0.10447   0.80379   0.00000  Uiso   1.00
C775   C     0.95458   0.12901   0.73533   0.00000  Uiso   1.00
H776   H     0.96537   0.09825   0.71689   0.00000  Uiso   1.00
H777   H     0.99022   0.14833   0.74754   0.00000  Uiso   1.00
H778   H     0.92883   0.14993   0.70974   0.00000  Uiso   1.00
N779   N     0.76748   0.38240   0.80790   0.00000  Uiso   1.00
H780   H     0.76477   0.39603   0.84096   0.00000  Uiso   1.00
C781   C     0.71809   0.36828   0.78235   0.00000  Uiso   1.00
H782   H     0.69336   0.39779   0.77109   0.00000  Uiso   1.00
H783   H     0.69803   0.34710   0.80591   0.00000  Uiso   1.00
H784   H     0.72362   0.34830   0.75034   0.00000  Uiso   1.00
F785   F     0.89360   0.18925   0.53710   0.00000  Uiso   1.00
F786   F     0.87034   0.32373   0.97600   0.00000  Uiso   1.00
F787   F     0.89275   0.19027   0.63372   0.00000  Uiso   1.00
F788   F     0.87145   0.32156   0.87973   0.00000  Uiso   1.00
F789   F     0.77412   0.30991   0.61883   0.00000  Uiso   1.00
F790   F     0.79800   0.17738   0.86964   0.00000  Uiso   1.00
F791   F     0.77346   0.31179   0.52184   0.00000  Uiso   1.00
F792   F     0.79710   0.17679   0.96577   0.00000  Uiso   1.00
C793   C     0.16752   0.66411   0.74999   0.00000  Uiso   1.00
C794   C     0.16539   0.83612   0.74999   0.00000  Uiso   1.00
C795   C     0.19676   0.71943   0.55618   0.00000  Uiso   1.00
C796   C     0.18490   0.78729   0.95043   0.00000  Uiso   1.00
C797   C     0.19638   0.71994   0.60587   0.00000  Uiso   1.00
C798   C     0.18510   0.78624   0.90068   0.00000  Uiso   1.00
C799   C     0.13711   0.78039   0.59839   0.00000  Uiso   1.00
C800   C     0.14895   0.71373   0.89568   0.00000  Uiso   1.00
C801   C     0.13687   0.78139   0.54860   0.00000  Uiso   1.00
C802   C     0.14876   0.71324   0.94539   0.00000  Uiso   1.00
C803   C     0.16679   0.75048   0.52671   0.00000  Uiso   1.00
C804   C     0.16663   0.75043   0.97356   0.00000  Uiso   1.00
C805   C     0.06726   0.75013   0.73772   0.00000  Uiso   1.00
C806   C     0.26601   0.75104   0.76233   0.00000  Uiso   1.00
C807   C     0.01275   0.75309   0.73095   0.00000  Uiso   1.00
C808   C     0.32058   0.75093   0.76947   0.00000  Uiso   1.00
C809   C     0.21464   0.54662   0.76577   0.00000  Uiso   1.00
C810   C     0.13325   0.95379   0.78140   0.00000  Uiso   1.00
C811   C     0.21554   0.59350   0.76361   0.00000  Uiso   1.00
C812   C     0.13200   0.90687   0.77981   0.00000  Uiso   1.00
C813   C     0.16873   0.61651   0.74987   0.00000  Uiso   1.00
C814   C     0.16250   0.88414   0.75009   0.00000  Uiso   1.00
C815   C     0.12208   0.59428   0.73706   0.00000  Uiso   1.00
C816   C     0.19162   0.90728   0.72081   0.00000  Uiso   1.00
C817   C     0.12119   0.54830   0.73837   0.00000  Uiso   1.00
C818   C     0.19252   0.95326   0.72208   0.00000  Uiso   1.00
C819   C     0.16690   0.52460   0.75298   0.00000  Uiso   1.00
C820   C     0.16439   0.97637   0.75268   0.00000  Uiso   1.00
H821   H     0.08639   0.61262   0.72637   0.00000  Uiso   1.00
H822   H     0.21467   0.88969   0.69775   0.00000  Uiso   1.00
H823   H     0.08487   0.53105   0.72783   0.00000  Uiso   1.00
H824   H     0.21544   0.97099   0.69935   0.00000  Uiso   1.00
N825   N     0.16667   0.74999   0.62623   0.00000  Uiso   1.00
N826   N     0.16667   0.75001   0.87376   0.00000  Uiso   1.00
O827   O     0.16667   0.68454   0.78974   0.00000  Uiso   1.00
O828   O     0.16666   0.81547   0.71026   0.00000  Uiso   1.00
O829   O     0.16667   0.68453   0.71026   0.00000  Uiso   1.00
O830   O     0.16666   0.81547   0.78974   0.00000  Uiso   1.00
O831   O     0.09058   0.75000   0.78044   0.00000  Uiso   1.00
O832   O     0.24275   0.75000   0.71955   0.00000  Uiso   1.00
O833   O     0.09058   0.75000   0.70096   0.00000  Uiso   1.00
O834   O     0.24275   0.75001   0.79903   0.00000  Uiso   1.00
Zn835  Zn    0.16667   0.75001   0.80307   0.00000  Uiso   1.00
Zn836  Zn    0.16667   0.75000   0.69693   0.00000  Uiso   1.00
N837   N     0.32064   0.75947   0.68300   0.00000  Uiso   1.00
H838   H     0.00139   0.73979   0.65774   0.00000  Uiso   1.00
C839   C     0.31434   0.80580   0.66866   0.00000  Uiso   1.00
H840   H     0.29035   0.80770   0.63291   0.00000  Uiso   1.00
H841   H     0.01928   0.82109   0.66667   0.00000  Uiso   1.00
H842   H     0.29445   0.82501   0.69439   0.00000  Uiso   1.00
N843   N     0.01253   0.74821   0.81790   0.00000  Uiso   1.00
H844   H     0.33254   0.77142   0.84033   0.00000  Uiso   1.00
C845   C     0.01530   0.70364   0.83788   0.00000  Uiso   1.00
H846   H     0.03524   0.70492   0.87530   0.00000  Uiso   1.00
H847   H     0.03755   0.68116   0.81704   0.00000  Uiso   1.00
H848   H     0.30928   0.68984   0.83805   0.00000  Uiso   1.00
N849   N     0.26120   0.52149   0.77850   0.00000  Uiso   1.00
H850   H     0.29374   0.53507   0.76779   0.00000  Uiso   1.00
C851   C     0.27017   0.50589   0.82731   0.00000  Uiso   1.00
H852   H     0.30738   0.98725   0.83374   0.00000  Uiso   1.00
H853   H     0.23905   0.98276   0.83409   0.00000  Uiso   1.00
H854   H     0.27218   0.53464   0.85255   0.00000  Uiso   1.00
N855   N     0.10194   0.97840   0.80978   0.00000  Uiso   1.00
H856   H     0.06647   0.96441   0.81216   0.00000  Uiso   1.00
C857   C     0.12852   0.99394   0.85531   0.00000  Uiso   1.00
H858   H     0.10081   0.51209   0.87476   0.00000  Uiso   1.00
H859   H     0.15982   0.51751   0.85007   0.00000  Uiso   1.00
H860   H     0.14500   0.96522   0.87734   0.00000  Uiso   1.00
N861   N     0.26259   0.61771   0.77578   0.00000  Uiso   1.00
H862   H     0.28769   0.60447   0.80379   0.00000  Uiso   1.00
C863   C     0.28791   0.62901   0.73533   0.00000  Uiso   1.00
H864   H     0.29871   0.59825   0.71689   0.00000  Uiso   1.00
H865   H     0.32355   0.64833   0.74754   0.00000  Uiso   1.00
H866   H     0.26216   0.64993   0.70974   0.00000  Uiso   1.00
N867   N     0.10081   0.88240   0.80790   0.00000  Uiso   1.00
H868   H     0.09811   0.89603   0.84096   0.00000  Uiso   1.00
C869   C     0.05142   0.86828   0.78235   0.00000  Uiso   1.00
H870   H     0.02670   0.89779   0.77109   0.00000  Uiso   1.00
H871   H     0.03136   0.84710   0.80591   0.00000  Uiso   1.00
H872   H     0.05695   0.84830   0.75034   0.00000  Uiso   1.00
F873   F     0.22693   0.68925   0.53710   0.00000  Uiso   1.00
F874   F     0.20368   0.82373   0.97600   0.00000  Uiso   1.00
F875   F     0.22609   0.69027   0.63372   0.00000  Uiso   1.00
F876   F     0.20478   0.82156   0.87973   0.00000  Uiso   1.00
F877   F     0.10745   0.80991   0.61883   0.00000  Uiso   1.00
F878   F     0.13134   0.67738   0.86964   0.00000  Uiso   1.00
F879   F     0.10679   0.81179   0.52184   0.00000  Uiso   1.00
F880   F     0.13043   0.67679   0.96577   0.00000  Uiso   1.00
C881   C     0.50086   0.66411   0.74999   0.00000  Uiso   1.00
C882   C     0.49872   0.83612   0.74999   0.00000  Uiso   1.00
C883   C     0.53009   0.71943   0.55618   0.00000  Uiso   1.00
C884   C     0.51823   0.78729   0.95043   0.00000  Uiso   1.00
C885   C     0.52972   0.71994   0.60587   0.00000  Uiso   1.00
C886   C     0.51843   0.78624   0.90068   0.00000  Uiso   1.00
C887   C     0.47045   0.78039   0.59839   0.00000  Uiso   1.00
C888   C     0.48228   0.71373   0.89568   0.00000  Uiso   1.00
C889   C     0.47020   0.78139   0.54860   0.00000  Uiso   1.00
C890   C     0.48209   0.71324   0.94539   0.00000  Uiso   1.00
C891   C     0.50013   0.75048   0.52671   0.00000  Uiso   1.00
C892   C     0.49996   0.75043   0.97356   0.00000  Uiso   1.00
C893   C     0.40059   0.75013   0.73772   0.00000  Uiso   1.00
C894   C     0.59935   0.75104   0.76233   0.00000  Uiso   1.00
C895   C     0.34608   0.75309   0.73095   0.00000  Uiso   1.00
C896   C     0.65392   0.75093   0.76947   0.00000  Uiso   1.00
C897   C     0.54797   0.54662   0.76577   0.00000  Uiso   1.00
C898   C     0.46658   0.95379   0.78140   0.00000  Uiso   1.00
C899   C     0.54887   0.59350   0.76361   0.00000  Uiso   1.00
C900   C     0.46533   0.90687   0.77981   0.00000  Uiso   1.00
C901   C     0.50206   0.61651   0.74987   0.00000  Uiso   1.00
C902   C     0.49583   0.88414   0.75009   0.00000  Uiso   1.00
C903   C     0.45541   0.59428   0.73706   0.00000  Uiso   1.00
C904   C     0.52495   0.90728   0.72081   0.00000  Uiso   1.00
C905   C     0.45453   0.54830   0.73837   0.00000  Uiso   1.00
C906   C     0.52585   0.95326   0.72208   0.00000  Uiso   1.00
C907   C     0.50024   0.52460   0.75298   0.00000  Uiso   1.00
C908   C     0.49772   0.97637   0.75268   0.00000  Uiso   1.00
H909   H     0.41972   0.61262   0.72637   0.00000  Uiso   1.00
H910   H     0.54800   0.88969   0.69775   0.00000  Uiso   1.00
H911   H     0.41820   0.53105   0.72783   0.00000  Uiso   1.00
H912   H     0.54877   0.97099   0.69935   0.00000  Uiso   1.00
N913   N     0.50000   0.74999   0.62623   0.00000  Uiso   1.00
N914   N     0.50000   0.75001   0.87376   0.00000  Uiso   1.00
O915   O     0.50000   0.68454   0.78974   0.00000  Uiso   1.00
O916   O     0.50000   0.81547   0.71026   0.00000  Uiso   1.00
O917   O     0.50000   0.68453   0.71026   0.00000  Uiso   1.00
O918   O     0.50000   0.81547   0.78974   0.00000  Uiso   1.00
O919   O     0.42392   0.75000   0.78044   0.00000  Uiso   1.00
O920   O     0.57608   0.75000   0.71955   0.00000  Uiso   1.00
O921   O     0.42392   0.75000   0.70096   0.00000  Uiso   1.00
O922   O     0.57608   0.75001   0.79903   0.00000  Uiso   1.00
Zn923  Zn    0.50000   0.75001   0.80307   0.00000  Uiso   1.00
Zn924  Zn    0.50000   0.75000   0.69693   0.00000  Uiso   1.00
N925   N     0.65398   0.75947   0.68300   0.00000  Uiso   1.00
H926   H     0.33473   0.73979   0.65774   0.00000  Uiso   1.00
C927   C     0.64767   0.80580   0.66866   0.00000  Uiso   1.00
H928   H     0.62368   0.80770   0.63291   0.00000  Uiso   1.00
H929   H     0.35262   0.82109   0.66667   0.00000  Uiso   1.00
H930   H     0.62779   0.82501   0.69439   0.00000  Uiso   1.00
N931   N     0.34587   0.74821   0.81790   0.00000  Uiso   1.00
H932   H     0.66587   0.77142   0.84033   0.00000  Uiso   1.00
C933   C     0.34864   0.70364   0.83788   0.00000  Uiso   1.00
H934   H     0.36858   0.70492   0.87530   0.00000  Uiso   1.00
H935   H     0.37089   0.68116   0.81704   0.00000  Uiso   1.00
H936   H     0.64262   0.68984   0.83805   0.00000  Uiso   1.00
N937   N     0.59453   0.52149   0.77850   0.00000  Uiso   1.00
H938   H     0.62707   0.53507   0.76779   0.00000  Uiso   1.00
C939   C     0.60351   0.50589   0.82731   0.00000  Uiso   1.00
H940   H     0.64071   0.98725   0.83374   0.00000  Uiso   1.00
H941   H     0.57238   0.98276   0.83409   0.00000  Uiso   1.00
H942   H     0.60551   0.53464   0.85255   0.00000  Uiso   1.00
N943   N     0.43528   0.97840   0.80978   0.00000  Uiso   1.00
H944   H     0.39980   0.96441   0.81216   0.00000  Uiso   1.00
C945   C     0.46185   0.99394   0.85531   0.00000  Uiso   1.00
H946   H     0.43415   0.51209   0.87476   0.00000  Uiso   1.00
H947   H     0.49315   0.51751   0.85007   0.00000  Uiso   1.00
H948   H     0.47833   0.96522   0.87734   0.00000  Uiso   1.00
N949   N     0.59592   0.61771   0.77578   0.00000  Uiso   1.00
H950   H     0.62102   0.60447   0.80379   0.00000  Uiso   1.00
C951   C     0.62124   0.62901   0.73533   0.00000  Uiso   1.00
H952   H     0.63204   0.59825   0.71689   0.00000  Uiso   1.00
H953   H     0.65688   0.64833   0.74754   0.00000  Uiso   1.00
H954   H     0.59549   0.64993   0.70974   0.00000  Uiso   1.00
N955   N     0.43414   0.88240   0.80790   0.00000  Uiso   1.00
H956   H     0.43144   0.89603   0.84096   0.00000  Uiso   1.00
C957   C     0.38476   0.86828   0.78235   0.00000  Uiso   1.00
H958   H     0.36003   0.89779   0.77109   0.00000  Uiso   1.00
H959   H     0.36469   0.84710   0.80591   0.00000  Uiso   1.00
H960   H     0.39029   0.84830   0.75034   0.00000  Uiso   1.00
F961   F     0.56027   0.68925   0.53710   0.00000  Uiso   1.00
F962   F     0.53701   0.82373   0.97600   0.00000  Uiso   1.00
F963   F     0.55942   0.69027   0.63372   0.00000  Uiso   1.00
F964   F     0.53812   0.82156   0.87973   0.00000  Uiso   1.00
F965   F     0.44079   0.80991   0.61883   0.00000  Uiso   1.00
F966   F     0.46467   0.67738   0.86964   0.00000  Uiso   1.00
F967   F     0.44012   0.81179   0.52184   0.00000  Uiso   1.00
F968   F     0.46377   0.67679   0.96577   0.00000  Uiso   1.00
C969   C     0.83419   0.66411   0.74999   0.00000  Uiso   1.00
C970   C     0.83205   0.83612   0.74999   0.00000  Uiso   1.00
C971   C     0.86342   0.71943   0.55618   0.00000  Uiso   1.00
C972   C     0.85156   0.78729   0.95043   0.00000  Uiso   1.00
C973   C     0.86305   0.71994   0.60587   0.00000  Uiso   1.00
C974   C     0.85176   0.78624   0.90068   0.00000  Uiso   1.00
C975   C     0.80378   0.78039   0.59839   0.00000  Uiso   1.00
C976   C     0.81562   0.71373   0.89568   0.00000  Uiso   1.00
C977   C     0.80353   0.78139   0.54860   0.00000  Uiso   1.00
C978   C     0.81542   0.71324   0.94539   0.00000  Uiso   1.00
C979   C     0.83346   0.75048   0.52671   0.00000  Uiso   1.00
C980   C     0.83329   0.75043   0.97356   0.00000  Uiso   1.00
C981   C     0.73392   0.75013   0.73772   0.00000  Uiso   1.00
C982   C     0.93268   0.75104   0.76233   0.00000  Uiso   1.00
C983   C     0.67941   0.75309   0.73095   0.00000  Uiso   1.00
C984   C     0.98725   0.75093   0.76947   0.00000  Uiso   1.00
C985   C     0.88130   0.54662   0.76577   0.00000  Uiso   1.00
C986   C     0.79992   0.95379   0.78140   0.00000  Uiso   1.00
C987   C     0.88220   0.59350   0.76361   0.00000  Uiso   1.00
C988   C     0.79867   0.90687   0.77981   0.00000  Uiso   1.00
C989   C     0.83539   0.61651   0.74987   0.00000  Uiso   1.00
C990   C     0.82917   0.88414   0.75009   0.00000  Uiso   1.00
C991   C     0.78875   0.59428   0.73706   0.00000  Uiso   1.00
C992   C     0.85829   0.90728   0.72081   0.00000  Uiso   1.00
C993   C     0.78786   0.54830   0.73837   0.00000  Uiso   1.00
C994   C     0.85918   0.95326   0.72208   0.00000  Uiso   1.00
C995   C     0.83357   0.52460   0.75298   0.00000  Uiso   1.00
C996   C     0.83105   0.97637   0.75268   0.00000  Uiso   1.00
H997   H     0.75306   0.61262   0.72637   0.00000  Uiso   1.00
H998   H     0.88134   0.88969   0.69775   0.00000  Uiso   1.00
H999   H     0.75153   0.53105   0.72783   0.00000  Uiso   1.00
H1000  H     0.88211   0.97099   0.69935   0.00000  Uiso   1.00
N1001  N     0.83333   0.74999   0.62623   0.00000  Uiso   1.00
N1002  N     0.83333   0.75001   0.87376   0.00000  Uiso   1.00
O1003  O     0.83334   0.68454   0.78974   0.00000  Uiso   1.00
O1004  O     0.83333   0.81547   0.71026   0.00000  Uiso   1.00
O1005  O     0.83334   0.68453   0.71026   0.00000  Uiso   1.00
O1006  O     0.83333   0.81547   0.78974   0.00000  Uiso   1.00
O1007  O     0.75725   0.75000   0.78044   0.00000  Uiso   1.00
O1008  O     0.90942   0.75000   0.71955   0.00000  Uiso   1.00
O1009  O     0.75725   0.75000   0.70096   0.00000  Uiso   1.00
O1010  O     0.90942   0.75001   0.79903   0.00000  Uiso   1.00
Zn1011 Zn    0.83333   0.75001   0.80307   0.00000  Uiso   1.00
Zn1012 Zn    0.83333   0.75000   0.69693   0.00000  Uiso   1.00
N1013  N     0.98731   0.75947   0.68300   0.00000  Uiso   1.00
H1014  H     0.66806   0.73979   0.65774   0.00000  Uiso   1.00
C1015  C     0.98100   0.80580   0.66866   0.00000  Uiso   1.00
H1016  H     0.95701   0.80770   0.63291   0.00000  Uiso   1.00
H1017  H     0.68595   0.82109   0.66667   0.00000  Uiso   1.00
H1018  H     0.96112   0.82501   0.69439   0.00000  Uiso   1.00
N1019  N     0.67920   0.74821   0.81790   0.00000  Uiso   1.00
H1020  H     0.99921   0.77142   0.84033   0.00000  Uiso   1.00
C1021  C     0.68197   0.70364   0.83788   0.00000  Uiso   1.00
H1022  H     0.70191   0.70492   0.87530   0.00000  Uiso   1.00
H1023  H     0.70422   0.68116   0.81704   0.00000  Uiso   1.00
H1024  H     0.97595   0.68984   0.83805   0.00000  Uiso   1.00
N1025  N     0.92786   0.52149   0.77850   0.00000  Uiso   1.00
H1026  H     0.96041   0.53507   0.76779   0.00000  Uiso   1.00
C1027  C     0.93684   0.50589   0.82731   0.00000  Uiso   1.00
H1028  H     0.97404   0.98725   0.83374   0.00000  Uiso   1.00
H1029  H     0.90572   0.98276   0.83409   0.00000  Uiso   1.00
H1030  H     0.93885   0.53464   0.85255   0.00000  Uiso   1.00
N1031  N     0.76861   0.97840   0.80978   0.00000  Uiso   1.00
H1032  H     0.73314   0.96441   0.81216   0.00000  Uiso   1.00
C1033  C     0.79518   0.99394   0.85531   0.00000  Uiso   1.00
H1034  H     0.76748   0.51209   0.87476   0.00000  Uiso   1.00
H1035  H     0.82648   0.51751   0.85007   0.00000  Uiso   1.00
H1036  H     0.81167   0.96522   0.87734   0.00000  Uiso   1.00
N1037  N     0.92925   0.61771   0.77578   0.00000  Uiso   1.00
H1038  H     0.95435   0.60447   0.80379   0.00000  Uiso   1.00
C1039  C     0.95458   0.62901   0.73533   0.00000  Uiso   1.00
H1040  H     0.96537   0.59825   0.71689   0.00000  Uiso   1.00
H1041  H     0.99022   0.64833   0.74754   0.00000  Uiso   1.00
H1042  H     0.92883   0.64993   0.70974   0.00000  Uiso   1.00
N1043  N     0.76748   0.88240   0.80790   0.00000  Uiso   1.00
H1044  H     0.76477   0.89603   0.84096   0.00000  Uiso   1.00
C1045  C     0.71809   0.86828   0.78235   0.00000  Uiso   1.00
H1046  H     0.69336   0.89779   0.77109   0.00000  Uiso   1.00
H1047  H     0.69803   0.84710   0.80591   0.00000  Uiso   1.00
H1048  H     0.72362   0.84830   0.75034   0.00000  Uiso   1.00
F1049  F     0.89360   0.68925   0.53710   0.00000  Uiso   1.00
F1050  F     0.87034   0.82373   0.97600   0.00000  Uiso   1.00
F1051  F     0.89275   0.69027   0.63372   0.00000  Uiso   1.00
F1052  F     0.87145   0.82156   0.87973   0.00000  Uiso   1.00
F1053  F     0.77412   0.80991   0.61883   0.00000  Uiso   1.00
F1054  F     0.79800   0.67738   0.86964   0.00000  Uiso   1.00
F1055  F     0.77346   0.81179   0.52184   0.00000  Uiso   1.00
F1056  F     0.79710   0.67679   0.96577   0.00000  Uiso   1.00
loop_
_geom_bond_atom_site_label_1
_geom_bond_atom_site_label_2
_geom_bond_distance
_geom_bond_site_symmetry_2
_ccdc_geom_bond_type
C1     C21     1.423   .     S
C1     O37     1.280   .     A
C1     O35     1.280   .     A
C2     C22     1.437   .     S
C2     O38     1.282   .     A
C2     O36     1.285   .     A
C3     F81     1.357   .     S
C3     C5      1.408   .     A
C3     C11     1.407   .     A
C4     C12     1.406   .     A
C4     C6      1.409   .     A
C4     F82     1.357   .     S
C5     F83     1.353   .     S
C5     N33     1.365   .     A
C6     F84     1.354   .     S
C6     N34     1.368   .     A
C7     N33     1.365   .     A
C7     C9      1.409   .     A
C7     F85     1.355   .     S
C8     N34     1.368   .     A
C8     F86     1.353   .     S
C8     C10     1.408   .     A
C9     C11     1.407   .     A
C9     F87     1.357   .     S
C10    F88     1.357   .     S
C10    C12     1.405   .     A
C11    C540    1.504   1_554 S
C12    C539    1.504   .     S
C13    O41     1.282   .     A
C13    C15     1.412   .     S
C13    O39     1.271   .     A
C14    O42     1.280   .     A
C14    C16     1.411   .     S
C14    O40     1.272   .     A
C15    C192    1.362   1_455 S
C15    N221    1.434   1_455 S
C16    C103    1.362   .     S
C16    N139    1.434   .     S
C17    C27     1.411   .     A
C17    C19     1.403   .     A
C17    N57     1.428   .     S
C18    N63     1.428   .     S
C18    C20     1.403   .     A
C18    C28     1.409   .     A
C19    C21     1.406   .     A
C19    N69     1.426   .     S
C20    N75     1.427   .     S
C20    C22     1.412   .     A
C21    C23     1.390   .     A
C22    C24     1.394   .     A
C23    H29     1.084   .     S
C23    C25     1.375   .     A
C24    C26     1.375   .     A
C24    H30     1.084   .     S
C25    H31     1.084   .     S
C25    C27     1.396   .     A
C26    H32     1.084   .     S
C26    C28     1.395   .     A
C27    C292    1.443   1_545 S
C28    C291    1.443   .     S
N33    Zn44    2.001   .     S
N34    Zn43    2.001   .     S
O35    Zn43    1.991   .     S
O36    Zn44    1.991   .     S
O37    Zn44    1.995   .     S
O38    Zn43    1.995   .     S
O39    Zn43    1.997   .     S
O40    Zn44    1.997   .     S
O41    Zn44    2.009   .     S
O42    Zn43    2.009   .     S
N45    C47     1.447   .     S
N45    C103    1.434   .     S
N45    H134    1.032   .     S
H46    N221    1.032   1_455 S
C47    H50     1.112   .     S
C47    H48     1.110   .     S
C47    H137    1.111   .     S
H49    C223    1.111   1_455 S
N51    C53     1.447   .     S
N51    C192    1.434   1_455 S
N51    H228    1.032   1_455 S
H52    N139    1.032   .     S
C53    H55     1.110   .     S
C53    H54     1.110   .     S
C53    H232    1.111   1_455 S
H56    C141    1.111   .     S
N57    C59     1.446   .     S
N57    H58     1.030   .     S
C59    H62     1.111   .     S
C59    H324    1.110   1_545 S
C59    H325    1.109   1_545 S
H60    C323    1.110   .     S
H61    C323    1.109   .     S
N63    C65     1.446   .     S
N63    H64     1.030   .     S
C65    H68     1.111   .     S
C65    H330    1.110   .     S
C65    H331    1.109   .     S
H66    C329    1.110   1_545 S
H67    C329    1.109   1_545 S
N69    C71     1.447   .     S
N69    H70     1.031   .     S
C71    H73     1.108   .     S
C71    H74     1.107   .     S
C71    H72     1.111   .     S
N75    H76     1.031   .     S
N75    C77     1.447   .     S
C77    H78     1.111   .     S
C77    H79     1.110   .     S
C77    H80     1.109   .     S
C89    C109    1.423   .     S
C89    O125    1.280   .     A
C89    O123    1.280   .     A
C90    C110    1.437   .     S
C90    O126    1.282   .     A
C90    O124    1.285   .     A
C91    F169    1.357   .     S
C91    C93     1.408   .     A
C91    C99     1.407   .     A
C92    C100    1.406   .     A
C92    C94     1.409   .     A
C92    F170    1.357   .     S
C93    F171    1.353   .     S
C93    N121    1.365   .     A
C94    F172    1.354   .     S
C94    N122    1.368   .     A
C95    N121    1.365   .     A
C95    C97     1.409   .     A
C95    F173    1.355   .     S
C96    N122    1.368   .     A
C96    F174    1.353   .     S
C96    C98     1.408   .     A
C97    C99     1.407   .     A
C97    F175    1.357   .     S
C98    F176    1.357   .     S
C98    C100    1.405   .     A
C99    C628    1.504   1_554 S
C100   C627    1.504   .     S
C101   O129    1.282   .     A
C101   C103    1.412   .     S
C101   O127    1.271   .     A
C102   O130    1.280   .     A
C102   C104    1.411   .     S
C102   O128    1.272   .     A
C104   C191    1.362   .     S
C104   N227    1.434   .     S
C105   C115    1.411   .     A
C105   C107    1.403   .     A
C105   N145    1.428   .     S
C106   N151    1.428   .     S
C106   C108    1.403   .     A
C106   C116    1.409   .     A
C107   C109    1.406   .     A
C107   N157    1.426   .     S
C108   N163    1.427   .     S
C108   C110    1.412   .     A
C109   C111    1.390   .     A
C110   C112    1.394   .     A
C111   H117    1.084   .     S
C111   C113    1.375   .     A
C112   C114    1.375   .     A
C112   H118    1.084   .     S
C113   H119    1.084   .     S
C113   C115    1.396   .     A
C114   H120    1.084   .     S
C114   C116    1.395   .     A
C115   C380    1.443   1_545 S
C116   C379    1.443   .     S
N121   Zn132   2.001   .     S
N122   Zn131   2.001   .     S
O123   Zn131   1.991   .     S
O124   Zn132   1.991   .     S
O125   Zn132   1.995   .     S
O126   Zn131   1.995   .     S
O127   Zn131   1.997   .     S
O128   Zn132   1.997   .     S
O129   Zn132   2.009   .     S
O130   Zn131   2.009   .     S
N133   C135    1.447   .     S
N133   C191    1.434   .     S
N133   H222    1.032   .     S
C135   H138    1.112   .     S
C135   H136    1.110   .     S
C135   H225    1.111   .     S
N139   C141    1.447   .     S
H140   N227    1.032   .     S
C141   H143    1.110   .     S
C141   H142    1.110   .     S
H144   C229    1.111   .     S
N145   C147    1.446   .     S
N145   H146    1.030   .     S
C147   H150    1.111   .     S
C147   H412    1.110   1_545 S
C147   H413    1.109   1_545 S
H148   C411    1.110   .     S
H149   C411    1.109   .     S
N151   C153    1.446   .     S
N151   H152    1.030   .     S
C153   H156    1.111   .     S
C153   H418    1.110   .     S
C153   H419    1.109   .     S
H154   C417    1.110   1_545 S
H155   C417    1.109   1_545 S
N157   C159    1.447   .     S
N157   H158    1.031   .     S
C159   H161    1.108   .     S
C159   H162    1.107   .     S
C159   H160    1.111   .     S
N163   H164    1.031   .     S
N163   C165    1.447   .     S
C165   H166    1.111   .     S
C165   H167    1.110   .     S
C165   H168    1.109   .     S
C177   C197    1.423   .     S
C177   O213    1.280   .     A
C177   O211    1.280   .     A
C178   C198    1.437   .     S
C178   O214    1.282   .     A
C178   O212    1.285   .     A
C179   F257    1.357   .     S
C179   C181    1.408   .     A
C179   C187    1.407   .     A
C180   C188    1.406   .     A
C180   C182    1.409   .     A
C180   F258    1.357   .     S
C181   F259    1.353   .     S
C181   N209    1.365   .     A
C182   F260    1.354   .     S
C182   N210    1.368   .     A
C183   N209    1.365   .     A
C183   C185    1.409   .     A
C183   F261    1.355   .     S
C184   N210    1.368   .     A
C184   F262    1.353   .     S
C184   C186    1.408   .     A
C185   C187    1.407   .     A
C185   F263    1.357   .     S
C186   F264    1.357   .     S
C186   C188    1.405   .     A
C187   C716    1.504   1_554 S
C188   C715    1.504   .     S
C189   O217    1.282   .     A
C189   C191    1.412   .     S
C189   O215    1.271   .     A
C190   O218    1.280   .     A
C190   C192    1.411   .     S
C190   O216    1.272   .     A
C192   C15     1.362   1_655 S
C192   N51     1.434   1_655 S
C193   C203    1.411   .     A
C193   C195    1.403   .     A
C193   N233    1.428   .     S
C194   N239    1.428   .     S
C194   C196    1.403   .     A
C194   C204    1.409   .     A
C195   C197    1.406   .     A
C195   N245    1.426   .     S
C196   N251    1.427   .     S
C196   C198    1.412   .     A
C197   C199    1.390   .     A
C198   C200    1.394   .     A
C199   H205    1.084   .     S
C199   C201    1.375   .     A
C200   C202    1.375   .     A
C200   H206    1.084   .     S
C201   H207    1.084   .     S
C201   C203    1.396   .     A
C202   H208    1.084   .     S
C202   C204    1.395   .     A
C203   C468    1.443   1_545 S
C204   C467    1.443   .     S
N209   Zn220   2.001   .     S
N210   Zn219   2.001   .     S
O211   Zn219   1.991   .     S
O212   Zn220   1.991   .     S
O213   Zn220   1.995   .     S
O214   Zn219   1.995   .     S
O215   Zn219   1.997   .     S
O216   Zn220   1.997   .     S
O217   Zn220   2.009   .     S
O218   Zn219   2.009   .     S
N221   C223    1.447   .     S
N221   C15     1.434   1_655 S
N221   H46     1.032   1_655 S
C223   H226    1.112   .     S
C223   H224    1.110   .     S
C223   H49     1.111   1_655 S
N227   C229    1.447   .     S
H228   N51     1.032   1_655 S
C229   H231    1.110   .     S
C229   H230    1.110   .     S
H232   C53     1.111   1_655 S
N233   C235    1.446   .     S
N233   H234    1.030   .     S
C235   H238    1.111   .     S
C235   H500    1.110   1_545 S
C235   H501    1.109   1_545 S
H236   C499    1.110   .     S
H237   C499    1.109   .     S
N239   C241    1.446   .     S
N239   H240    1.030   .     S
C241   H244    1.111   .     S
C241   H506    1.110   .     S
C241   H507    1.109   .     S
H242   C505    1.110   1_545 S
H243   C505    1.109   1_545 S
N245   C247    1.447   .     S
N245   H246    1.031   .     S
C247   H249    1.108   .     S
C247   H250    1.107   .     S
C247   H248    1.111   .     S
N251   H252    1.031   .     S
N251   C253    1.447   .     S
C253   H254    1.111   .     S
C253   H255    1.110   .     S
C253   H256    1.109   .     S
C265   C285    1.423   .     S
C265   O301    1.280   .     A
C265   O299    1.280   .     A
C266   C286    1.437   .     S
C266   O302    1.282   .     A
C266   O300    1.285   .     A
C267   F345    1.357   .     S
C267   C269    1.408   .     A
C267   C275    1.407   .     A
C268   C276    1.406   .     A
C268   C270    1.409   .     A
C268   F346    1.357   .     S
C269   F347    1.353   .     S
C269   N297    1.365   .     A
C270   F348    1.354   .     S
C270   N298    1.368   .     A
C271   N297    1.365   .     A
C271   C273    1.409   .     A
C271   F349    1.355   .     S
C272   N298    1.368   .     A
C272   F350    1.353   .     S
C272   C274    1.408   .     A
C273   C275    1.407   .     A
C273   F351    1.357   .     S
C274   F352    1.357   .     S
C274   C276    1.405   .     A
C275   C804    1.504   1_554 S
C276   C803    1.504   .     S
C277   O305    1.282   .     A
C277   C279    1.412   .     S
C277   O303    1.271   .     A
C278   O306    1.280   .     A
C278   C280    1.411   .     S
C278   O304    1.272   .     A
C279   C456    1.362   1_455 S
C279   N485    1.434   1_455 S
C280   C367    1.362   .     S
C280   N403    1.434   .     S
C281   C291    1.411   .     A
C281   C283    1.403   .     A
C281   N321    1.428   .     S
C282   N327    1.428   .     S
C282   C284    1.403   .     A
C282   C292    1.409   .     A
C283   C285    1.406   .     A
C283   N333    1.426   .     S
C284   N339    1.427   .     S
C284   C286    1.412   .     A
C285   C287    1.390   .     A
C286   C288    1.394   .     A
C287   H293    1.084   .     S
C287   C289    1.375   .     A
C288   C290    1.375   .     A
C288   H294    1.084   .     S
C289   H295    1.084   .     S
C289   C291    1.396   .     A
C290   H296    1.084   .     S
C290   C292    1.395   .     A
C292   C27     1.443   1_565 S
N297   Zn308   2.001   .     S
N298   Zn307   2.001   .     S
O299   Zn307   1.991   .     S
O300   Zn308   1.991   .     S
O301   Zn308   1.995   .     S
O302   Zn307   1.995   .     S
O303   Zn307   1.997   .     S
O304   Zn308   1.997   .     S
O305   Zn308   2.009   .     S
O306   Zn307   2.009   .     S
N309   C311    1.447   .     S
N309   C367    1.434   .     S
N309   H398    1.032   .     S
H310   N485    1.032   1_455 S
C311   H314    1.112   .     S
C311   H312    1.110   .     S
C311   H401    1.111   .     S
H313   C487    1.111   1_455 S
N315   C317    1.447   .     S
N315   C456    1.434   1_455 S
N315   H492    1.032   1_455 S
H316   N403    1.032   .     S
C317   H319    1.110   .     S
C317   H318    1.110   .     S
C317   H496    1.111   1_455 S
H320   C405    1.111   .     S
N321   C323    1.446   .     S
N321   H322    1.030   .     S
C323   H326    1.111   .     S
H324   C59     1.110   1_565 S
H325   C59     1.109   1_565 S
N327   C329    1.446   .     S
N327   H328    1.030   .     S
C329   H332    1.111   .     S
C329   H66     1.110   1_565 S
C329   H67     1.109   1_565 S
N333   C335    1.447   .     S
N333   H334    1.031   .     S
C335   H337    1.108   .     S
C335   H338    1.107   .     S
C335   H336    1.111   .     S
N339   H340    1.031   .     S
N339   C341    1.447   .     S
C341   H342    1.111   .     S
C341   H343    1.110   .     S
C341   H344    1.109   .     S
C353   C373    1.423   .     S
C353   O389    1.280   .     A
C353   O387    1.280   .     A
C354   C374    1.437   .     S
C354   O390    1.282   .     A
C354   O388    1.285   .     A
C355   F433    1.357   .     S
C355   C357    1.408   .     A
C355   C363    1.407   .     A
C356   C364    1.406   .     A
C356   C358    1.409   .     A
C356   F434    1.357   .     S
C357   F435    1.353   .     S
C357   N385    1.365   .     A
C358   F436    1.354   .     S
C358   N386    1.368   .     A
C359   N385    1.365   .     A
C359   C361    1.409   .     A
C359   F437    1.355   .     S
C360   N386    1.368   .     A
C360   F438    1.353   .     S
C360   C362    1.408   .     A
C361   C363    1.407   .     A
C361   F439    1.357   .     S
C362   F440    1.357   .     S
C362   C364    1.405   .     A
C363   C892    1.504   1_554 S
C364   C891    1.504   .     S
C365   O393    1.282   .     A
C365   C367    1.412   .     S
C365   O391    1.271   .     A
C366   O394    1.280   .     A
C366   C368    1.411   .     S
C366   O392    1.272   .     A
C368   C455    1.362   .     S
C368   N491    1.434   .     S
C369   C379    1.411   .     A
C369   C371    1.403   .     A
C369   N409    1.428   .     S
C370   N415    1.428   .     S
C370   C372    1.403   .     A
C370   C380    1.409   .     A
C371   C373    1.406   .     A
C371   N421    1.426   .     S
C372   N427    1.427   .     S
C372   C374    1.412   .     A
C373   C375    1.390   .     A
C374   C376    1.394   .     A
C375   H381    1.084   .     S
C375   C377    1.375   .     A
C376   C378    1.375   .     A
C376   H382    1.084   .     S
C377   H383    1.084   .     S
C377   C379    1.396   .     A
C378   H384    1.084   .     S
C378   C380    1.395   .     A
C380   C115    1.443   1_565 S
N385   Zn396   2.001   .     S
N386   Zn395   2.001   .     S
O387   Zn395   1.991   .     S
O388   Zn396   1.991   .     S
O389   Zn396   1.995   .     S
O390   Zn395   1.995   .     S
O391   Zn395   1.997   .     S
O392   Zn396   1.997   .     S
O393   Zn396   2.009   .     S
O394   Zn395   2.009   .     S
N397   C399    1.447   .     S
N397   C455    1.434   .     S
N397   H486    1.032   .     S
C399   H402    1.112   .     S
C399   H400    1.110   .     S
C399   H489    1.111   .     S
N403   C405    1.447   .     S
H404   N491    1.032   .     S
C405   H407    1.110   .     S
C405   H406    1.110   .     S
H408   C493    1.111   .     S
N409   C411    1.446   .     S
N409   H410    1.030   .     S
C411   H414    1.111   .     S
H412   C147    1.110   1_565 S
H413   C147    1.109   1_565 S
N415   C417    1.446   .     S
N415   H416    1.030   .     S
C417   H420    1.111   .     S
C417   H154    1.110   1_565 S
C417   H155    1.109   1_565 S
N421   C423    1.447   .     S
N421   H422    1.031   .     S
C423   H425    1.108   .     S
C423   H426    1.107   .     S
C423   H424    1.111   .     S
N427   H428    1.031   .     S
N427   C429    1.447   .     S
C429   H430    1.111   .     S
C429   H431    1.110   .     S
C429   H432    1.109   .     S
C441   C461    1.423   .     S
C441   O477    1.280   .     A
C441   O475    1.280   .     A
C442   C462    1.437   .     S
C442   O478    1.282   .     A
C442   O476    1.285   .     A
C443   F521    1.357   .     S
C443   C445    1.408   .     A
C443   C451    1.407   .     A
C444   C452    1.406   .     A
C444   C446    1.409   .     A
C444   F522    1.357   .     S
C445   F523    1.353   .     S
C445   N473    1.365   .     A
C446   F524    1.354   .     S
C446   N474    1.368   .     A
C447   N473    1.365   .     A
C447   C449    1.409   .     A
C447   F525    1.355   .     S
C448   N474    1.368   .     A
C448   F526    1.353   .     S
C448   C450    1.408   .     A
C449   C451    1.407   .     A
C449   F527    1.357   .     S
C450   F528    1.357   .     S
C450   C452    1.405   .     A
C451   C980    1.504   1_554 S
C452   C979    1.504   .     S
C453   O481    1.282   .     A
C453   C455    1.412   .     S
C453   O479    1.271   .     A
C454   O482    1.280   .     A
C454   C456    1.411   .     S
C454   O480    1.272   .     A
C456   C279    1.362   1_655 S
C456   N315    1.434   1_655 S
C457   C467    1.411   .     A
C457   C459    1.403   .     A
C457   N497    1.428   .     S
C458   N503    1.428   .     S
C458   C460    1.403   .     A
C458   C468    1.409   .     A
C459   C461    1.406   .     A
C459   N509    1.426   .     S
C460   N515    1.427   .     S
C460   C462    1.412   .     A
C461   C463    1.390   .     A
C462   C464    1.394   .     A
C463   H469    1.084   .     S
C463   C465    1.375   .     A
C464   C466    1.375   .     A
C464   H470    1.084   .     S
C465   H471    1.084   .     S
C465   C467    1.396   .     A
C466   H472    1.084   .     S
C466   C468    1.395   .     A
C468   C203    1.443   1_565 S
N473   Zn484   2.001   .     S
N474   Zn483   2.001   .     S
O475   Zn483   1.991   .     S
O476   Zn484   1.991   .     S
O477   Zn484   1.995   .     S
O478   Zn483   1.995   .     S
O479   Zn483   1.997   .     S
O480   Zn484   1.997   .     S
O481   Zn484   2.009   .     S
O482   Zn483   2.009   .     S
N485   C487    1.447   .     S
N485   C279    1.434   1_655 S
N485   H310    1.032   1_655 S
C487   H490    1.112   .     S
C487   H488    1.110   .     S
C487   H313    1.111   1_655 S
N491   C493    1.447   .     S
H492   N315    1.032   1_655 S
C493   H495    1.110   .     S
C493   H494    1.110   .     S
H496   C317    1.111   1_655 S
N497   C499    1.446   .     S
N497   H498    1.030   .     S
C499   H502    1.111   .     S
H500   C235    1.110   1_565 S
H501   C235    1.109   1_565 S
N503   C505    1.446   .     S
N503   H504    1.030   .     S
C505   H508    1.111   .     S
C505   H242    1.110   1_565 S
C505   H243    1.109   1_565 S
N509   C511    1.447   .     S
N509   H510    1.031   .     S
C511   H513    1.108   .     S
C511   H514    1.107   .     S
C511   H512    1.111   .     S
N515   H516    1.031   .     S
N515   C517    1.447   .     S
C517   H518    1.111   .     S
C517   H519    1.110   .     S
C517   H520    1.109   .     S
C529   C549    1.423   .     S
C529   O565    1.280   .     A
C529   O563    1.280   .     A
C530   C550    1.437   .     S
C530   O566    1.282   .     A
C530   O564    1.285   .     A
C531   F609    1.357   .     S
C531   C533    1.408   .     A
C531   C539    1.407   .     A
C532   C540    1.406   .     A
C532   C534    1.409   .     A
C532   F610    1.357   .     S
C533   F611    1.353   .     S
C533   N561    1.365   .     A
C534   F612    1.354   .     S
C534   N562    1.368   .     A
C535   N561    1.365   .     A
C535   C537    1.409   .     A
C535   F613    1.355   .     S
C536   N562    1.368   .     A
C536   F614    1.353   .     S
C536   C538    1.408   .     A
C537   C539    1.407   .     A
C537   F615    1.357   .     S
C538   F616    1.357   .     S
C538   C540    1.405   .     A
C540   C11     1.504   1_556 S
C541   O569    1.282   .     A
C541   C543    1.412   .     S
C541   O567    1.271   .     A
C542   O570    1.280   .     A
C542   C544    1.411   .     S
C542   O568    1.272   .     A
C543   C720    1.362   1_455 S
C543   N749    1.434   1_455 S
C544   C631    1.362   .     S
C544   N667    1.434   .     S
C545   C555    1.411   .     A
C545   C547    1.403   .     A
C545   N585    1.428   .     S
C546   N591    1.428   .     S
C546   C548    1.403   .     A
C546   C556    1.409   .     A
C547   C549    1.406   .     A
C547   N597    1.426   .     S
C548   N603    1.427   .     S
C548   C550    1.412   .     A
C549   C551    1.390   .     A
C550   C552    1.394   .     A
C551   H557    1.084   .     S
C551   C553    1.375   .     A
C552   C554    1.375   .     A
C552   H558    1.084   .     S
C553   H559    1.084   .     S
C553   C555    1.396   .     A
C554   H560    1.084   .     S
C554   C556    1.395   .     A
C555   C820    1.443   1_545 S
C556   C819    1.443   .     S
N561   Zn572   2.001   .     S
N562   Zn571   2.001   .     S
O563   Zn571   1.991   .     S
O564   Zn572   1.991   .     S
O565   Zn572   1.995   .     S
O566   Zn571   1.995   .     S
O567   Zn571   1.997   .     S
O568   Zn572   1.997   .     S
O569   Zn572   2.009   .     S
O570   Zn571   2.009   .     S
N573   C575    1.447   .     S
N573   C631    1.434   .     S
N573   H662    1.032   .     S
H574   N749    1.032   1_455 S
C575   H578    1.112   .     S
C575   H576    1.110   .     S
C575   H665    1.111   .     S
H577   C751    1.111   1_455 S
N579   C581    1.447   .     S
N579   C720    1.434   1_455 S
N579   H756    1.032   1_455 S
H580   N667    1.032   .     S
C581   H583    1.110   .     S
C581   H582    1.110   .     S
C581   H760    1.111   1_455 S
H584   C669    1.111   .     S
N585   C587    1.446   .     S
N585   H586    1.030   .     S
C587   H590    1.111   .     S
C587   H852    1.110   1_545 S
C587   H853    1.109   1_545 S
H588   C851    1.110   .     S
H589   C851    1.109   .     S
N591   C593    1.446   .     S
N591   H592    1.030   .     S
C593   H596    1.111   .     S
C593   H858    1.110   .     S
C593   H859    1.109   .     S
H594   C857    1.110   1_545 S
H595   C857    1.109   1_545 S
N597   C599    1.447   .     S
N597   H598    1.031   .     S
C599   H601    1.108   .     S
C599   H602    1.107   .     S
C599   H600    1.111   .     S
N603   H604    1.031   .     S
N603   C605    1.447   .     S
C605   H606    1.111   .     S
C605   H607    1.110   .     S
C605   H608    1.109   .     S
C617   C637    1.423   .     S
C617   O653    1.280   .     A
C617   O651    1.280   .     A
C618   C638    1.437   .     S
C618   O654    1.282   .     A
C618   O652    1.285   .     A
C619   F697    1.357   .     S
C619   C621    1.408   .     A
C619   C627    1.407   .     A
C620   C628    1.406   .     A
C620   C622    1.409   .     A
C620   F698    1.357   .     S
C621   F699    1.353   .     S
C621   N649    1.365   .     A
C622   F700    1.354   .     S
C622   N650    1.368   .     A
C623   N649    1.365   .     A
C623   C625    1.409   .     A
C623   F701    1.355   .     S
C624   N650    1.368   .     A
C624   F702    1.353   .     S
C624   C626    1.408   .     A
C625   C627    1.407   .     A
C625   F703    1.357   .     S
C626   F704    1.357   .     S
C626   C628    1.405   .     A
C628   C99     1.504   1_556 S
C629   O657    1.282   .     A
C629   C631    1.412   .     S
C629   O655    1.271   .     A
C630   O658    1.280   .     A
C630   C632    1.411   .     S
C630   O656    1.272   .     A
C632   C719    1.362   .     S
C632   N755    1.434   .     S
C633   C643    1.411   .     A
C633   C635    1.403   .     A
C633   N673    1.428   .     S
C634   N679    1.428   .     S
C634   C636    1.403   .     A
C634   C644    1.409   .     A
C635   C637    1.406   .     A
C635   N685    1.426   .     S
C636   N691    1.427   .     S
C636   C638    1.412   .     A
C637   C639    1.390   .     A
C638   C640    1.394   .     A
C639   H645    1.084   .     S
C639   C641    1.375   .     A
C640   C642    1.375   .     A
C640   H646    1.084   .     S
C641   H647    1.084   .     S
C641   C643    1.396   .     A
C642   H648    1.084   .     S
C642   C644    1.395   .     A
C643   C908    1.443   1_545 S
C644   C907    1.443   .     S
N649   Zn660   2.001   .     S
N650   Zn659   2.001   .     S
O651   Zn659   1.991   .     S
O652   Zn660   1.991   .     S
O653   Zn660   1.995   .     S
O654   Zn659   1.995   .     S
O655   Zn659   1.997   .     S
O656   Zn660   1.997   .     S
O657   Zn660   2.009   .     S
O658   Zn659   2.009   .     S
N661   C663    1.447   .     S
N661   C719    1.434   .     S
N661   H750    1.032   .     S
C663   H666    1.112   .     S
C663   H664    1.110   .     S
C663   H753    1.111   .     S
N667   C669    1.447   .     S
H668   N755    1.032   .     S
C669   H671    1.110   .     S
C669   H670    1.110   .     S
H672   C757    1.111   .     S
N673   C675    1.446   .     S
N673   H674    1.030   .     S
C675   H678    1.111   .     S
C675   H940    1.110   1_545 S
C675   H941    1.109   1_545 S
H676   C939    1.110   .     S
H677   C939    1.109   .     S
N679   C681    1.446   .     S
N679   H680    1.030   .     S
C681   H684    1.111   .     S
C681   H946    1.110   .     S
C681   H947    1.109   .     S
H682   C945    1.110   1_545 S
H683   C945    1.109   1_545 S
N685   C687    1.447   .     S
N685   H686    1.031   .     S
C687   H689    1.108   .     S
C687   H690    1.107   .     S
C687   H688    1.111   .     S
N691   H692    1.031   .     S
N691   C693    1.447   .     S
C693   H694    1.111   .     S
C693   H695    1.110   .     S
C693   H696    1.109   .     S
C705   C725    1.423   .     S
C705   O741    1.280   .     A
C705   O739    1.280   .     A
C706   C726    1.437   .     S
C706   O742    1.282   .     A
C706   O740    1.285   .     A
C707   F785    1.357   .     S
C707   C709    1.408   .     A
C707   C715    1.407   .     A
C708   C716    1.406   .     A
C708   C710    1.409   .     A
C708   F786    1.357   .     S
C709   F787    1.353   .     S
C709   N737    1.365   .     A
C710   F788    1.354   .     S
C710   N738    1.368   .     A
C711   N737    1.365   .     A
C711   C713    1.409   .     A
C711   F789    1.355   .     S
C712   N738    1.368   .     A
C712   F790    1.353   .     S
C712   C714    1.408   .     A
C713   C715    1.407   .     A
C713   F791    1.357   .     S
C714   F792    1.357   .     S
C714   C716    1.405   .     A
C716   C187    1.504   1_556 S
C717   O745    1.282   .     A
C717   C719    1.412   .     S
C717   O743    1.271   .     A
C718   O746    1.280   .     A
C718   C720    1.411   .     S
C718   O744    1.272   .     A
C720   C543    1.362   1_655 S
C720   N579    1.434   1_655 S
C721   C731    1.411   .     A
C721   C723    1.403   .     A
C721   N761    1.428   .     S
C722   N767    1.428   .     S
C722   C724    1.403   .     A
C722   C732    1.409   .     A
C723   C725    1.406   .     A
C723   N773    1.426   .     S
C724   N779    1.427   .     S
C724   C726    1.412   .     A
C725   C727    1.390   .     A
C726   C728    1.394   .     A
C727   H733    1.084   .     S
C727   C729    1.375   .     A
C728   C730    1.375   .     A
C728   H734    1.084   .     S
C729   H735    1.084   .     S
C729   C731    1.396   .     A
C730   H736    1.084   .     S
C730   C732    1.395   .     A
C731   C996    1.443   1_545 S
C732   C995    1.443   .     S
N737   Zn748   2.001   .     S
N738   Zn747   2.001   .     S
O739   Zn747   1.991   .     S
O740   Zn748   1.991   .     S
O741   Zn748   1.995   .     S
O742   Zn747   1.995   .     S
O743   Zn747   1.997   .     S
O744   Zn748   1.997   .     S
O745   Zn748   2.009   .     S
O746   Zn747   2.009   .     S
N749   C751    1.447   .     S
N749   C543    1.434   1_655 S
N749   H574    1.032   1_655 S
C751   H754    1.112   .     S
C751   H752    1.110   .     S
C751   H577    1.111   1_655 S
N755   C757    1.447   .     S
H756   N579    1.032   1_655 S
C757   H759    1.110   .     S
C757   H758    1.110   .     S
H760   C581    1.111   1_655 S
N761   C763    1.446   .     S
N761   H762    1.030   .     S
C763   H766    1.111   .     S
C763   H1028   1.110   1_545 S
C763   H1029   1.109   1_545 S
H764   C1027   1.110   .     S
H765   C1027   1.109   .     S
N767   C769    1.446   .     S
N767   H768    1.030   .     S
C769   H772    1.111   .     S
C769   H1034   1.110   .     S
C769   H1035   1.109   .     S
H770   C1033   1.110   1_545 S
H771   C1033   1.109   1_545 S
N773   C775    1.447   .     S
N773   H774    1.031   .     S
C775   H777    1.108   .     S
C775   H778    1.107   .     S
C775   H776    1.111   .     S
N779   H780    1.031   .     S
N779   C781    1.447   .     S
C781   H782    1.111   .     S
C781   H783    1.110   .     S
C781   H784    1.109   .     S
C793   C813    1.423   .     S
C793   O829    1.280   .     A
C793   O827    1.280   .     A
C794   C814    1.437   .     S
C794   O830    1.282   .     A
C794   O828    1.285   .     A
C795   F873    1.357   .     S
C795   C797    1.408   .     A
C795   C803    1.407   .     A
C796   C804    1.406   .     A
C796   C798    1.409   .     A
C796   F874    1.357   .     S
C797   F875    1.353   .     S
C797   N825    1.365   .     A
C798   F876    1.354   .     S
C798   N826    1.368   .     A
C799   N825    1.365   .     A
C799   C801    1.409   .     A
C799   F877    1.355   .     S
C800   N826    1.368   .     A
C800   F878    1.353   .     S
C800   C802    1.408   .     A
C801   C803    1.407   .     A
C801   F879    1.357   .     S
C802   F880    1.357   .     S
C802   C804    1.405   .     A
C804   C275    1.504   1_556 S
C805   O833    1.282   .     A
C805   C807    1.412   .     S
C805   O831    1.271   .     A
C806   O834    1.280   .     A
C806   C808    1.411   .     S
C806   O832    1.272   .     A
C807   C984    1.362   1_455 S
C807   N1013   1.434   1_455 S
C808   C895    1.362   .     S
C808   N931    1.434   .     S
C809   C819    1.411   .     A
C809   C811    1.403   .     A
C809   N849    1.428   .     S
C810   N855    1.428   .     S
C810   C812    1.403   .     A
C810   C820    1.409   .     A
C811   C813    1.406   .     A
C811   N861    1.426   .     S
C812   N867    1.427   .     S
C812   C814    1.412   .     A
C813   C815    1.390   .     A
C814   C816    1.394   .     A
C815   H821    1.084   .     S
C815   C817    1.375   .     A
C816   C818    1.375   .     A
C816   H822    1.084   .     S
C817   H823    1.084   .     S
C817   C819    1.396   .     A
C818   H824    1.084   .     S
C818   C820    1.395   .     A
C820   C555    1.443   1_565 S
N825   Zn836   2.001   .     S
N826   Zn835   2.001   .     S
O827   Zn835   1.991   .     S
O828   Zn836   1.991   .     S
O829   Zn836   1.995   .     S
O830   Zn835   1.995   .     S
O831   Zn835   1.997   .     S
O832   Zn836   1.997   .     S
O833   Zn836   2.009   .     S
O834   Zn835   2.009   .     S
N837   C839    1.447   .     S
N837   C895    1.434   .     S
N837   H926    1.032   .     S
H838   N1013   1.032   1_455 S
C839   H842    1.112   .     S
C839   H840    1.110   .     S
C839   H929    1.111   .     S
H841   C1015   1.111   1_455 S
N843   C845    1.447   .     S
N843   C984    1.434   1_455 S
N843   H1020   1.032   1_455 S
H844   N931    1.032   .     S
C845   H847    1.110   .     S
C845   H846    1.110   .     S
C845   H1024   1.111   1_455 S
H848   C933    1.111   .     S
N849   C851    1.446   .     S
N849   H850    1.030   .     S
C851   H854    1.111   .     S
H852   C587    1.110   1_565 S
H853   C587    1.109   1_565 S
N855   C857    1.446   .     S
N855   H856    1.030   .     S
C857   H860    1.111   .     S
C857   H594    1.110   1_565 S
C857   H595    1.109   1_565 S
N861   C863    1.447   .     S
N861   H862    1.031   .     S
C863   H865    1.108   .     S
C863   H866    1.107   .     S
C863   H864    1.111   .     S
N867   H868    1.031   .     S
N867   C869    1.447   .     S
C869   H870    1.111   .     S
C869   H871    1.110   .     S
C869   H872    1.109   .     S
C881   C901    1.423   .     S
C881   O917    1.280   .     A
C881   O915    1.280   .     A
C882   C902    1.437   .     S
C882   O918    1.282   .     A
C882   O916    1.285   .     A
C883   F961    1.357   .     S
C883   C885    1.408   .     A
C883   C891    1.407   .     A
C884   C892    1.406   .     A
C884   C886    1.409   .     A
C884   F962    1.357   .     S
C885   F963    1.353   .     S
C885   N913    1.365   .     A
C886   F964    1.354   .     S
C886   N914    1.368   .     A
C887   N913    1.365   .     A
C887   C889    1.409   .     A
C887   F965    1.355   .     S
C888   N914    1.368   .     A
C888   F966    1.353   .     S
C888   C890    1.408   .     A
C889   C891    1.407   .     A
C889   F967    1.357   .     S
C890   F968    1.357   .     S
C890   C892    1.405   .     A
C892   C363    1.504   1_556 S
C893   O921    1.282   .     A
C893   C895    1.412   .     S
C893   O919    1.271   .     A
C894   O922    1.280   .     A
C894   C896    1.411   .     S
C894   O920    1.272   .     A
C896   C983    1.362   .     S
C896   N1019   1.434   .     S
C897   C907    1.411   .     A
C897   C899    1.403   .     A
C897   N937    1.428   .     S
C898   N943    1.428   .     S
C898   C900    1.403   .     A
C898   C908    1.409   .     A
C899   C901    1.406   .     A
C899   N949    1.426   .     S
C900   N955    1.427   .     S
C900   C902    1.412   .     A
C901   C903    1.390   .     A
C902   C904    1.394   .     A
C903   H909    1.084   .     S
C903   C905    1.375   .     A
C904   C906    1.375   .     A
C904   H910    1.084   .     S
C905   H911    1.084   .     S
C905   C907    1.396   .     A
C906   H912    1.084   .     S
C906   C908    1.395   .     A
C908   C643    1.443   1_565 S
N913   Zn924   2.001   .     S
N914   Zn923   2.001   .     S
O915   Zn923   1.991   .     S
O916   Zn924   1.991   .     S
O917   Zn924   1.995   .     S
O918   Zn923   1.995   .     S
O919   Zn923   1.997   .     S
O920   Zn924   1.997   .     S
O921   Zn924   2.009   .     S
O922   Zn923   2.009   .     S
N925   C927    1.447   .     S
N925   C983    1.434   .     S
N925   H1014   1.032   .     S
C927   H930    1.112   .     S
C927   H928    1.110   .     S
C927   H1017   1.111   .     S
N931   C933    1.447   .     S
H932   N1019   1.032   .     S
C933   H935    1.110   .     S
C933   H934    1.110   .     S
H936   C1021   1.111   .     S
N937   C939    1.446   .     S
N937   H938    1.030   .     S
C939   H942    1.111   .     S
H940   C675    1.110   1_565 S
H941   C675    1.109   1_565 S
N943   C945    1.446   .     S
N943   H944    1.030   .     S
C945   H948    1.111   .     S
C945   H682    1.110   1_565 S
C945   H683    1.109   1_565 S
N949   C951    1.447   .     S
N949   H950    1.031   .     S
C951   H953    1.108   .     S
C951   H954    1.107   .     S
C951   H952    1.111   .     S
N955   H956    1.031   .     S
N955   C957    1.447   .     S
C957   H958    1.111   .     S
C957   H959    1.110   .     S
C957   H960    1.109   .     S
C969   C989    1.423   .     S
C969   O1005   1.280   .     A
C969   O1003   1.280   .     A
C970   C990    1.437   .     S
C970   O1006   1.282   .     A
C970   O1004   1.285   .     A
C971   F1049   1.357   .     S
C971   C973    1.408   .     A
C971   C979    1.407   .     A
C972   C980    1.406   .     A
C972   C974    1.409   .     A
C972   F1050   1.357   .     S
C973   F1051   1.353   .     S
C973   N1001   1.365   .     A
C974   F1052   1.354   .     S
C974   N1002   1.368   .     A
C975   N1001   1.365   .     A
C975   C977    1.409   .     A
C975   F1053   1.355   .     S
C976   N1002   1.368   .     A
C976   F1054   1.353   .     S
C976   C978    1.408   .     A
C977   C979    1.407   .     A
C977   F1055   1.357   .     S
C978   F1056   1.357   .     S
C978   C980    1.405   .     A
C980   C451    1.504   1_556 S
C981   O1009   1.282   .     A
C981   C983    1.412   .     S
C981   O1007   1.271   .     A
C982   O1010   1.280   .     A
C982   C984    1.411   .     S
C982   O1008   1.272   .     A
C984   C807    1.362   1_655 S
C984   N843    1.434   1_655 S
C985   C995    1.411   .     A
C985   C987    1.403   .     A
C985   N1025   1.428   .     S
C986   N1031   1.428   .     S
C986   C988    1.403   .     A
C986   C996    1.409   .     A
C987   C989    1.406   .     A
C987   N1037   1.426   .     S
C988   N1043   1.427   .     S
C988   C990    1.412   .     A
C989   C991    1.390   .     A
C990   C992    1.394   .     A
C991   H997    1.084   .     S
C991   C993    1.375   .     A
C992   C994    1.375   .     A
C992   H998    1.084   .     S
C993   H999    1.084   .     S
C993   C995    1.396   .     A
C994   H1000   1.084   .     S
C994   C996    1.395   .     A
C996   C731    1.443   1_565 S
N1001  Zn1012  2.001   .     S
N1002  Zn1011  2.001   .     S
O1003  Zn1011  1.991   .     S
O1004  Zn1012  1.991   .     S
O1005  Zn1012  1.995   .     S
O1006  Zn1011  1.995   .     S
O1007  Zn1011  1.997   .     S
O1008  Zn1012  1.997   .     S
O1009  Zn1012  2.009   .     S
O1010  Zn1011  2.009   .     S
N1013  C1015   1.447   .     S
N1013  C807    1.434   1_655 S
N1013  H838    1.032   1_655 S
C1015  H1018   1.112   .     S
C1015  H1016   1.110   .     S
C1015  H841    1.111   1_655 S
N1019  C1021   1.447   .     S
H1020  N843    1.032   1_655 S
C1021  H1023   1.110   .     S
C1021  H1022   1.110   .     S
H1024  C845    1.111   1_655 S
N1025  C1027   1.446   .     S
N1025  H1026   1.030   .     S
C1027  H1030   1.111   .     S
H1028  C763    1.110   1_565 S
H1029  C763    1.109   1_565 S
N1031  C1033   1.446   .     S
N1031  H1032   1.030   .     S
C1033  H1036   1.111   .     S
C1033  H770    1.110   1_565 S
C1033  H771    1.109   1_565 S
N1037  C1039   1.447   .     S
N1037  H1038   1.031   .     S
C1039  H1041   1.108   .     S
C1039  H1042   1.107   .     S
C1039  H1040   1.111   .     S
N1043  H1044   1.031   .     S
N1043  C1045   1.447   .     S
C1045  H1046   1.111   .     S
C1045  H1047   1.110   .     S
C1045  H1048   1.109   .     S
