data_str_m3_o5_o17_pcu_sym.35
_audit_creation_date              2020-01-03
_audit_creation_method            'Materials Studio'
_symmetry_space_group_name_H-M    'P1'
_symmetry_Int_Tables_number       1
_symmetry_cell_setting            triclinic
loop_
_symmetry_equiv_pos_as_xyz
  x,y,z
_cell_length_a                    30.1001
_cell_length_b                    26.7560
_cell_length_c                    24.3380
_cell_angle_alpha                 89.9631
_cell_angle_beta                  90.1549
_cell_angle_gamma                 90.2726
loop_
_atom_site_label
_atom_site_type_symbol
_atom_site_fract_x
_atom_site_fract_y
_atom_site_fract_z
_atom_site_U_iso_or_equiv
_atom_site_adp_type
_atom_site_occupancy
O1     O     0.25000   0.09512   0.21228   0.00000  Uiso   1.00
O2     O     0.25000   0.23822   0.12105   0.00000  Uiso   1.00
O3     O     0.25000   0.23822   0.21228   0.00000  Uiso   1.00
O4     O     0.25000   0.09512   0.12105   0.00000  Uiso   1.00
C5     C     0.25015   0.07269   0.16669   0.00000  Uiso   1.00
C6     C     0.24985   0.26065   0.16665   0.00000  Uiso   1.00
O7     O     0.18393   0.16667   0.21230   0.00000  Uiso   1.00
O8     O     0.31608   0.16667   0.12104   0.00000  Uiso   1.00
O9     O     0.31608   0.16667   0.21230   0.00000  Uiso   1.00
O10    O     0.18393   0.16667   0.12104   0.00000  Uiso   1.00
C11    C     0.16339   0.16649   0.16657   0.00000  Uiso   1.00
C12    C     0.33661   0.16685   0.16676   0.00000  Uiso   1.00
Zn13   Zn    0.25000   0.16667   0.22759   0.00000  Uiso   1.00
Zn14   Zn    0.25000   0.16667   0.10574   0.00000  Uiso   1.00
N15    N     0.25000   0.16667   0.02455   0.00000  Uiso   1.00
N16    N     0.25000   0.16667   0.30879   0.00000  Uiso   1.00
C17    C     0.40713   0.20572   0.19348   0.00000  Uiso   1.00
C18    C     0.09287   0.12761   0.13985   0.00000  Uiso   1.00
C19    C     0.40657   0.12716   0.14092   0.00000  Uiso   1.00
C20    C     0.09343   0.20619   0.19240   0.00000  Uiso   1.00
C21    C     0.38430   0.16658   0.16704   0.00000  Uiso   1.00
C22    C     0.11570   0.16675   0.16629   0.00000  Uiso   1.00
C23    C     0.45307   0.12679   0.14145   0.00000  Uiso   1.00
C24    C     0.04693   0.20656   0.19186   0.00000  Uiso   1.00
C25    C     0.45361   0.20628   0.19246   0.00000  Uiso   1.00
C26    C     0.04639   0.12706   0.14087   0.00000  Uiso   1.00
C27    C     0.47662   0.16661   0.16680   0.00000  Uiso   1.00
C28    C     0.02338   0.16673   0.16653   0.00000  Uiso   1.00
C29    C     0.47659   0.08689   0.11831   0.00000  Uiso   1.00
C30    C     0.02341   0.24646   0.21500   0.00000  Uiso   1.00
C31    C     0.47760   0.24629   0.21536   0.00000  Uiso   1.00
C32    C     0.02240   0.08705   0.11795   0.00000  Uiso   1.00
C33    C     0.25009   0.02174   0.16670   0.00000  Uiso   1.00
C34    C     0.24992   0.31159   0.16663   0.00000  Uiso   1.00
H35    H     0.46000   0.05478   0.10055   0.00000  Uiso   1.00
H36    H     0.04000   0.27858   0.23274   0.00000  Uiso   1.00
H37    H     0.46137   0.27827   0.23344   0.00000  Uiso   1.00
H38    H     0.03863   0.05507   0.09987   0.00000  Uiso   1.00
C39    C     0.38205   0.24655   0.22069   0.00000  Uiso   1.00
O40    O     0.38536   0.25271   0.27032   0.00000  Uiso   1.00
O41    O     0.35477   0.27764   0.18935   0.00000  Uiso   1.00
H42    H     0.34007   0.30441   0.21237   0.00000  Uiso   1.00
C43    C     0.11795   0.08678   0.11266   0.00000  Uiso   1.00
O44    O     0.11465   0.08061   0.06302   0.00000  Uiso   1.00
O45    O     0.14522   0.05568   0.14401   0.00000  Uiso   1.00
H46    H     0.15992   0.02891   0.12099   0.00000  Uiso   1.00
C47    C     0.38093   0.08606   0.11419   0.00000  Uiso   1.00
O48    O     0.35554   0.06034   0.14144   0.00000  Uiso   1.00
O49    O     0.38575   0.07729   0.05790   0.00000  Uiso   1.00
H50    H     0.36655   0.04853   0.04451   0.00000  Uiso   1.00
C51    C     0.11907   0.24730   0.21911   0.00000  Uiso   1.00
O52    O     0.14450   0.27297   0.19186   0.00000  Uiso   1.00
O53    O     0.11422   0.25612   0.27538   0.00000  Uiso   1.00
H54    H     0.13342   0.28489   0.28877   0.00000  Uiso   1.00
O55    O     0.75000   0.09512   0.21228   0.00000  Uiso   1.00
O56    O     0.75000   0.23822   0.12105   0.00000  Uiso   1.00
O57    O     0.75000   0.23822   0.21228   0.00000  Uiso   1.00
O58    O     0.75000   0.09512   0.12105   0.00000  Uiso   1.00
C59    C     0.75015   0.07269   0.16669   0.00000  Uiso   1.00
C60    C     0.74985   0.26065   0.16665   0.00000  Uiso   1.00
O61    O     0.68393   0.16667   0.21230   0.00000  Uiso   1.00
O62    O     0.81608   0.16667   0.12104   0.00000  Uiso   1.00
O63    O     0.81608   0.16667   0.21230   0.00000  Uiso   1.00
O64    O     0.68393   0.16667   0.12104   0.00000  Uiso   1.00
C65    C     0.66339   0.16649   0.16657   0.00000  Uiso   1.00
C66    C     0.83661   0.16685   0.16676   0.00000  Uiso   1.00
Zn67   Zn    0.75000   0.16667   0.22759   0.00000  Uiso   1.00
Zn68   Zn    0.75000   0.16667   0.10574   0.00000  Uiso   1.00
N69    N     0.75000   0.16667   0.02455   0.00000  Uiso   1.00
N70    N     0.75000   0.16667   0.30879   0.00000  Uiso   1.00
C71    C     0.90713   0.20572   0.19348   0.00000  Uiso   1.00
C72    C     0.59287   0.12761   0.13985   0.00000  Uiso   1.00
C73    C     0.90657   0.12716   0.14092   0.00000  Uiso   1.00
C74    C     0.59343   0.20619   0.19240   0.00000  Uiso   1.00
C75    C     0.88430   0.16658   0.16704   0.00000  Uiso   1.00
C76    C     0.61570   0.16675   0.16629   0.00000  Uiso   1.00
C77    C     0.95307   0.12679   0.14145   0.00000  Uiso   1.00
C78    C     0.54693   0.20656   0.19186   0.00000  Uiso   1.00
C79    C     0.95361   0.20628   0.19246   0.00000  Uiso   1.00
C80    C     0.54639   0.12706   0.14087   0.00000  Uiso   1.00
C81    C     0.97662   0.16661   0.16680   0.00000  Uiso   1.00
C82    C     0.52338   0.16673   0.16653   0.00000  Uiso   1.00
C83    C     0.97659   0.08689   0.11831   0.00000  Uiso   1.00
C84    C     0.52341   0.24646   0.21500   0.00000  Uiso   1.00
C85    C     0.97760   0.24629   0.21536   0.00000  Uiso   1.00
C86    C     0.52240   0.08705   0.11795   0.00000  Uiso   1.00
C87    C     0.75009   0.02174   0.16670   0.00000  Uiso   1.00
C88    C     0.74992   0.31159   0.16663   0.00000  Uiso   1.00
H89    H     0.96000   0.05478   0.10055   0.00000  Uiso   1.00
H90    H     0.54000   0.27858   0.23274   0.00000  Uiso   1.00
H91    H     0.96137   0.27827   0.23344   0.00000  Uiso   1.00
H92    H     0.53863   0.05507   0.09987   0.00000  Uiso   1.00
C93    C     0.88205   0.24655   0.22069   0.00000  Uiso   1.00
O94    O     0.88536   0.25271   0.27032   0.00000  Uiso   1.00
O95    O     0.85477   0.27764   0.18935   0.00000  Uiso   1.00
H96    H     0.84007   0.30441   0.21237   0.00000  Uiso   1.00
C97    C     0.61795   0.08678   0.11266   0.00000  Uiso   1.00
O98    O     0.61465   0.08061   0.06302   0.00000  Uiso   1.00
O99    O     0.64522   0.05568   0.14401   0.00000  Uiso   1.00
H100   H     0.65992   0.02891   0.12099   0.00000  Uiso   1.00
C101   C     0.88093   0.08606   0.11419   0.00000  Uiso   1.00
O102   O     0.85554   0.06034   0.14144   0.00000  Uiso   1.00
O103   O     0.88575   0.07729   0.05790   0.00000  Uiso   1.00
H104   H     0.86655   0.04853   0.04451   0.00000  Uiso   1.00
C105   C     0.61907   0.24730   0.21911   0.00000  Uiso   1.00
O106   O     0.64450   0.27297   0.19186   0.00000  Uiso   1.00
O107   O     0.61422   0.25612   0.27538   0.00000  Uiso   1.00
H108   H     0.63342   0.28489   0.28877   0.00000  Uiso   1.00
O109   O     0.25000   0.42845   0.21228   0.00000  Uiso   1.00
O110   O     0.25000   0.57155   0.12105   0.00000  Uiso   1.00
O111   O     0.25000   0.57155   0.21228   0.00000  Uiso   1.00
O112   O     0.25000   0.42845   0.12105   0.00000  Uiso   1.00
C113   C     0.25015   0.40602   0.16669   0.00000  Uiso   1.00
C114   C     0.24985   0.59398   0.16665   0.00000  Uiso   1.00
O115   O     0.18393   0.50000   0.21230   0.00000  Uiso   1.00
O116   O     0.31608   0.50000   0.12104   0.00000  Uiso   1.00
O117   O     0.31608   0.50000   0.21230   0.00000  Uiso   1.00
O118   O     0.18393   0.50000   0.12104   0.00000  Uiso   1.00
C119   C     0.16339   0.49982   0.16657   0.00000  Uiso   1.00
C120   C     0.33661   0.50018   0.16676   0.00000  Uiso   1.00
Zn121  Zn    0.25000   0.50000   0.22759   0.00000  Uiso   1.00
Zn122  Zn    0.25000   0.50000   0.10574   0.00000  Uiso   1.00
N123   N     0.25000   0.50000   0.02455   0.00000  Uiso   1.00
N124   N     0.25000   0.50000   0.30879   0.00000  Uiso   1.00
C125   C     0.40713   0.53906   0.19348   0.00000  Uiso   1.00
C126   C     0.09287   0.46094   0.13985   0.00000  Uiso   1.00
C127   C     0.40657   0.46049   0.14092   0.00000  Uiso   1.00
C128   C     0.09343   0.53952   0.19240   0.00000  Uiso   1.00
C129   C     0.38430   0.49992   0.16704   0.00000  Uiso   1.00
C130   C     0.11570   0.50009   0.16629   0.00000  Uiso   1.00
C131   C     0.45307   0.46012   0.14145   0.00000  Uiso   1.00
C132   C     0.04693   0.53989   0.19186   0.00000  Uiso   1.00
C133   C     0.45361   0.53961   0.19246   0.00000  Uiso   1.00
C134   C     0.04639   0.46039   0.14087   0.00000  Uiso   1.00
C135   C     0.47662   0.49994   0.16680   0.00000  Uiso   1.00
C136   C     0.02338   0.50007   0.16653   0.00000  Uiso   1.00
C137   C     0.47659   0.42022   0.11831   0.00000  Uiso   1.00
C138   C     0.02341   0.57979   0.21500   0.00000  Uiso   1.00
C139   C     0.47760   0.57963   0.21536   0.00000  Uiso   1.00
C140   C     0.02240   0.42038   0.11795   0.00000  Uiso   1.00
C141   C     0.25009   0.35507   0.16670   0.00000  Uiso   1.00
C142   C     0.24992   0.64493   0.16663   0.00000  Uiso   1.00
H143   H     0.46000   0.38811   0.10055   0.00000  Uiso   1.00
H144   H     0.04000   0.61192   0.23274   0.00000  Uiso   1.00
H145   H     0.46137   0.61161   0.23344   0.00000  Uiso   1.00
H146   H     0.03863   0.38841   0.09987   0.00000  Uiso   1.00
C147   C     0.38205   0.57988   0.22069   0.00000  Uiso   1.00
O148   O     0.38536   0.58605   0.27032   0.00000  Uiso   1.00
O149   O     0.35477   0.61097   0.18935   0.00000  Uiso   1.00
H150   H     0.34007   0.63774   0.21237   0.00000  Uiso   1.00
C151   C     0.11795   0.42011   0.11266   0.00000  Uiso   1.00
O152   O     0.11465   0.41395   0.06302   0.00000  Uiso   1.00
O153   O     0.14522   0.38902   0.14401   0.00000  Uiso   1.00
H154   H     0.15992   0.36224   0.12099   0.00000  Uiso   1.00
C155   C     0.38093   0.41939   0.11419   0.00000  Uiso   1.00
O156   O     0.35554   0.39367   0.14144   0.00000  Uiso   1.00
O157   O     0.38575   0.41063   0.05790   0.00000  Uiso   1.00
H158   H     0.36655   0.38186   0.04451   0.00000  Uiso   1.00
C159   C     0.11907   0.58063   0.21911   0.00000  Uiso   1.00
O160   O     0.14450   0.60631   0.19186   0.00000  Uiso   1.00
O161   O     0.11422   0.58946   0.27538   0.00000  Uiso   1.00
H162   H     0.13342   0.61823   0.28877   0.00000  Uiso   1.00
O163   O     0.75000   0.42845   0.21228   0.00000  Uiso   1.00
O164   O     0.75000   0.57155   0.12105   0.00000  Uiso   1.00
O165   O     0.75000   0.57155   0.21228   0.00000  Uiso   1.00
O166   O     0.75000   0.42845   0.12105   0.00000  Uiso   1.00
C167   C     0.75015   0.40602   0.16669   0.00000  Uiso   1.00
C168   C     0.74985   0.59398   0.16665   0.00000  Uiso   1.00
O169   O     0.68393   0.50000   0.21230   0.00000  Uiso   1.00
O170   O     0.81608   0.50000   0.12104   0.00000  Uiso   1.00
O171   O     0.81608   0.50000   0.21230   0.00000  Uiso   1.00
O172   O     0.68393   0.50000   0.12104   0.00000  Uiso   1.00
C173   C     0.66339   0.49982   0.16657   0.00000  Uiso   1.00
C174   C     0.83661   0.50018   0.16676   0.00000  Uiso   1.00
Zn175  Zn    0.75000   0.50000   0.22759   0.00000  Uiso   1.00
Zn176  Zn    0.75000   0.50000   0.10574   0.00000  Uiso   1.00
N177   N     0.75000   0.50000   0.02455   0.00000  Uiso   1.00
N178   N     0.75000   0.50000   0.30879   0.00000  Uiso   1.00
C179   C     0.90713   0.53906   0.19348   0.00000  Uiso   1.00
C180   C     0.59287   0.46094   0.13985   0.00000  Uiso   1.00
C181   C     0.90657   0.46049   0.14092   0.00000  Uiso   1.00
C182   C     0.59343   0.53952   0.19240   0.00000  Uiso   1.00
C183   C     0.88430   0.49992   0.16704   0.00000  Uiso   1.00
C184   C     0.61570   0.50009   0.16629   0.00000  Uiso   1.00
C185   C     0.95307   0.46012   0.14145   0.00000  Uiso   1.00
C186   C     0.54693   0.53989   0.19186   0.00000  Uiso   1.00
C187   C     0.95361   0.53961   0.19246   0.00000  Uiso   1.00
C188   C     0.54639   0.46039   0.14087   0.00000  Uiso   1.00
C189   C     0.97662   0.49994   0.16680   0.00000  Uiso   1.00
C190   C     0.52338   0.50007   0.16653   0.00000  Uiso   1.00
C191   C     0.97659   0.42022   0.11831   0.00000  Uiso   1.00
C192   C     0.52341   0.57979   0.21500   0.00000  Uiso   1.00
C193   C     0.97760   0.57963   0.21536   0.00000  Uiso   1.00
C194   C     0.52240   0.42038   0.11795   0.00000  Uiso   1.00
C195   C     0.75009   0.35507   0.16670   0.00000  Uiso   1.00
C196   C     0.74992   0.64493   0.16663   0.00000  Uiso   1.00
H197   H     0.96000   0.38811   0.10055   0.00000  Uiso   1.00
H198   H     0.54000   0.61192   0.23274   0.00000  Uiso   1.00
H199   H     0.96137   0.61161   0.23344   0.00000  Uiso   1.00
H200   H     0.53863   0.38841   0.09987   0.00000  Uiso   1.00
C201   C     0.88205   0.57988   0.22069   0.00000  Uiso   1.00
O202   O     0.88536   0.58605   0.27032   0.00000  Uiso   1.00
O203   O     0.85477   0.61097   0.18935   0.00000  Uiso   1.00
H204   H     0.84007   0.63774   0.21237   0.00000  Uiso   1.00
C205   C     0.61795   0.42011   0.11266   0.00000  Uiso   1.00
O206   O     0.61465   0.41395   0.06302   0.00000  Uiso   1.00
O207   O     0.64522   0.38902   0.14401   0.00000  Uiso   1.00
H208   H     0.65992   0.36224   0.12099   0.00000  Uiso   1.00
C209   C     0.88093   0.41939   0.11419   0.00000  Uiso   1.00
O210   O     0.85554   0.39367   0.14144   0.00000  Uiso   1.00
O211   O     0.88575   0.41063   0.05790   0.00000  Uiso   1.00
H212   H     0.86655   0.38186   0.04451   0.00000  Uiso   1.00
C213   C     0.61907   0.58063   0.21911   0.00000  Uiso   1.00
O214   O     0.64450   0.60631   0.19186   0.00000  Uiso   1.00
O215   O     0.61422   0.58946   0.27538   0.00000  Uiso   1.00
H216   H     0.63342   0.61823   0.28877   0.00000  Uiso   1.00
O217   O     0.25000   0.76178   0.21228   0.00000  Uiso   1.00
O218   O     0.25000   0.90488   0.12105   0.00000  Uiso   1.00
O219   O     0.25000   0.90488   0.21228   0.00000  Uiso   1.00
O220   O     0.25000   0.76178   0.12105   0.00000  Uiso   1.00
C221   C     0.25015   0.73935   0.16669   0.00000  Uiso   1.00
C222   C     0.24985   0.92731   0.16665   0.00000  Uiso   1.00
O223   O     0.18393   0.83333   0.21230   0.00000  Uiso   1.00
O224   O     0.31608   0.83333   0.12104   0.00000  Uiso   1.00
O225   O     0.31608   0.83333   0.21230   0.00000  Uiso   1.00
O226   O     0.18393   0.83333   0.12104   0.00000  Uiso   1.00
C227   C     0.16339   0.83315   0.16657   0.00000  Uiso   1.00
C228   C     0.33661   0.83351   0.16676   0.00000  Uiso   1.00
Zn229  Zn    0.25000   0.83333   0.22759   0.00000  Uiso   1.00
Zn230  Zn    0.25000   0.83333   0.10574   0.00000  Uiso   1.00
N231   N     0.25000   0.83333   0.02455   0.00000  Uiso   1.00
N232   N     0.25000   0.83333   0.30879   0.00000  Uiso   1.00
C233   C     0.40713   0.87239   0.19348   0.00000  Uiso   1.00
C234   C     0.09287   0.79428   0.13985   0.00000  Uiso   1.00
C235   C     0.40657   0.79382   0.14092   0.00000  Uiso   1.00
C236   C     0.09343   0.87285   0.19240   0.00000  Uiso   1.00
C237   C     0.38430   0.83325   0.16704   0.00000  Uiso   1.00
C238   C     0.11570   0.83342   0.16629   0.00000  Uiso   1.00
C239   C     0.45307   0.79345   0.14145   0.00000  Uiso   1.00
C240   C     0.04693   0.87322   0.19186   0.00000  Uiso   1.00
C241   C     0.45361   0.87295   0.19246   0.00000  Uiso   1.00
C242   C     0.04639   0.79373   0.14087   0.00000  Uiso   1.00
C243   C     0.47662   0.83327   0.16680   0.00000  Uiso   1.00
C244   C     0.02338   0.83340   0.16653   0.00000  Uiso   1.00
C245   C     0.47659   0.75356   0.11831   0.00000  Uiso   1.00
C246   C     0.02341   0.91313   0.21500   0.00000  Uiso   1.00
C247   C     0.47760   0.91296   0.21536   0.00000  Uiso   1.00
C248   C     0.02240   0.75372   0.11795   0.00000  Uiso   1.00
C249   C     0.25009   0.68841   0.16670   0.00000  Uiso   1.00
C250   C     0.24992   0.97826   0.16663   0.00000  Uiso   1.00
H251   H     0.46000   0.72144   0.10055   0.00000  Uiso   1.00
H252   H     0.04000   0.94525   0.23274   0.00000  Uiso   1.00
H253   H     0.46137   0.94494   0.23344   0.00000  Uiso   1.00
H254   H     0.03863   0.72174   0.09987   0.00000  Uiso   1.00
C255   C     0.38205   0.91322   0.22069   0.00000  Uiso   1.00
O256   O     0.38536   0.91938   0.27032   0.00000  Uiso   1.00
O257   O     0.35477   0.94431   0.18935   0.00000  Uiso   1.00
H258   H     0.34007   0.97108   0.21237   0.00000  Uiso   1.00
C259   C     0.11795   0.75344   0.11266   0.00000  Uiso   1.00
O260   O     0.11465   0.74728   0.06302   0.00000  Uiso   1.00
O261   O     0.14522   0.72235   0.14401   0.00000  Uiso   1.00
H262   H     0.15992   0.69558   0.12099   0.00000  Uiso   1.00
C263   C     0.38093   0.75272   0.11419   0.00000  Uiso   1.00
O264   O     0.35554   0.72701   0.14144   0.00000  Uiso   1.00
O265   O     0.38575   0.74396   0.05790   0.00000  Uiso   1.00
H266   H     0.36655   0.71519   0.04451   0.00000  Uiso   1.00
C267   C     0.11907   0.91396   0.21911   0.00000  Uiso   1.00
O268   O     0.14450   0.93964   0.19186   0.00000  Uiso   1.00
O269   O     0.11422   0.92279   0.27538   0.00000  Uiso   1.00
H270   H     0.13342   0.95156   0.28877   0.00000  Uiso   1.00
O271   O     0.75000   0.76178   0.21228   0.00000  Uiso   1.00
O272   O     0.75000   0.90488   0.12105   0.00000  Uiso   1.00
O273   O     0.75000   0.90488   0.21228   0.00000  Uiso   1.00
O274   O     0.75000   0.76178   0.12105   0.00000  Uiso   1.00
C275   C     0.75015   0.73935   0.16669   0.00000  Uiso   1.00
C276   C     0.74985   0.92731   0.16665   0.00000  Uiso   1.00
O277   O     0.68393   0.83333   0.21230   0.00000  Uiso   1.00
O278   O     0.81608   0.83333   0.12104   0.00000  Uiso   1.00
O279   O     0.81608   0.83333   0.21230   0.00000  Uiso   1.00
O280   O     0.68393   0.83333   0.12104   0.00000  Uiso   1.00
C281   C     0.66339   0.83315   0.16657   0.00000  Uiso   1.00
C282   C     0.83661   0.83351   0.16676   0.00000  Uiso   1.00
Zn283  Zn    0.75000   0.83333   0.22759   0.00000  Uiso   1.00
Zn284  Zn    0.75000   0.83333   0.10574   0.00000  Uiso   1.00
N285   N     0.75000   0.83333   0.02455   0.00000  Uiso   1.00
N286   N     0.75000   0.83333   0.30879   0.00000  Uiso   1.00
C287   C     0.90713   0.87239   0.19348   0.00000  Uiso   1.00
C288   C     0.59287   0.79428   0.13985   0.00000  Uiso   1.00
C289   C     0.90657   0.79382   0.14092   0.00000  Uiso   1.00
C290   C     0.59343   0.87285   0.19240   0.00000  Uiso   1.00
C291   C     0.88430   0.83325   0.16704   0.00000  Uiso   1.00
C292   C     0.61570   0.83342   0.16629   0.00000  Uiso   1.00
C293   C     0.95307   0.79345   0.14145   0.00000  Uiso   1.00
C294   C     0.54693   0.87322   0.19186   0.00000  Uiso   1.00
C295   C     0.95361   0.87295   0.19246   0.00000  Uiso   1.00
C296   C     0.54639   0.79373   0.14087   0.00000  Uiso   1.00
C297   C     0.97662   0.83327   0.16680   0.00000  Uiso   1.00
C298   C     0.52338   0.83340   0.16653   0.00000  Uiso   1.00
C299   C     0.97659   0.75356   0.11831   0.00000  Uiso   1.00
C300   C     0.52341   0.91313   0.21500   0.00000  Uiso   1.00
C301   C     0.97760   0.91296   0.21536   0.00000  Uiso   1.00
C302   C     0.52240   0.75372   0.11795   0.00000  Uiso   1.00
C303   C     0.75009   0.68841   0.16670   0.00000  Uiso   1.00
C304   C     0.74992   0.97826   0.16663   0.00000  Uiso   1.00
H305   H     0.96000   0.72144   0.10055   0.00000  Uiso   1.00
H306   H     0.54000   0.94525   0.23274   0.00000  Uiso   1.00
H307   H     0.96137   0.94494   0.23344   0.00000  Uiso   1.00
H308   H     0.53863   0.72174   0.09987   0.00000  Uiso   1.00
C309   C     0.88205   0.91322   0.22069   0.00000  Uiso   1.00
O310   O     0.88536   0.91938   0.27032   0.00000  Uiso   1.00
O311   O     0.85477   0.94431   0.18935   0.00000  Uiso   1.00
H312   H     0.84007   0.97108   0.21237   0.00000  Uiso   1.00
C313   C     0.61795   0.75344   0.11266   0.00000  Uiso   1.00
O314   O     0.61465   0.74728   0.06302   0.00000  Uiso   1.00
O315   O     0.64522   0.72235   0.14401   0.00000  Uiso   1.00
H316   H     0.65992   0.69558   0.12099   0.00000  Uiso   1.00
C317   C     0.88093   0.75272   0.11419   0.00000  Uiso   1.00
O318   O     0.85554   0.72701   0.14144   0.00000  Uiso   1.00
O319   O     0.88575   0.74396   0.05790   0.00000  Uiso   1.00
H320   H     0.86655   0.71519   0.04451   0.00000  Uiso   1.00
C321   C     0.61907   0.91396   0.21911   0.00000  Uiso   1.00
O322   O     0.64450   0.93964   0.19186   0.00000  Uiso   1.00
O323   O     0.61422   0.92279   0.27538   0.00000  Uiso   1.00
H324   H     0.63342   0.95156   0.28877   0.00000  Uiso   1.00
O325   O     0.25000   0.09512   0.54562   0.00000  Uiso   1.00
O326   O     0.25000   0.23822   0.45438   0.00000  Uiso   1.00
O327   O     0.25000   0.23822   0.54562   0.00000  Uiso   1.00
O328   O     0.25000   0.09512   0.45438   0.00000  Uiso   1.00
C329   C     0.25015   0.07269   0.50002   0.00000  Uiso   1.00
C330   C     0.24985   0.26065   0.49998   0.00000  Uiso   1.00
O331   O     0.18393   0.16667   0.54563   0.00000  Uiso   1.00
O332   O     0.31608   0.16667   0.45437   0.00000  Uiso   1.00
O333   O     0.31608   0.16667   0.54563   0.00000  Uiso   1.00
O334   O     0.18393   0.16667   0.45437   0.00000  Uiso   1.00
C335   C     0.16339   0.16649   0.49991   0.00000  Uiso   1.00
C336   C     0.33661   0.16685   0.50009   0.00000  Uiso   1.00
Zn337  Zn    0.25000   0.16667   0.56093   0.00000  Uiso   1.00
Zn338  Zn    0.25000   0.16667   0.43907   0.00000  Uiso   1.00
N339   N     0.25000   0.16667   0.35788   0.00000  Uiso   1.00
N340   N     0.25000   0.16667   0.64212   0.00000  Uiso   1.00
C341   C     0.40713   0.20572   0.52681   0.00000  Uiso   1.00
C342   C     0.09287   0.12761   0.47319   0.00000  Uiso   1.00
C343   C     0.40657   0.12716   0.47425   0.00000  Uiso   1.00
C344   C     0.09343   0.20619   0.52573   0.00000  Uiso   1.00
C345   C     0.38430   0.16658   0.50038   0.00000  Uiso   1.00
C346   C     0.11570   0.16675   0.49962   0.00000  Uiso   1.00
C347   C     0.45307   0.12679   0.47479   0.00000  Uiso   1.00
C348   C     0.04693   0.20656   0.52520   0.00000  Uiso   1.00
C349   C     0.45361   0.20628   0.52579   0.00000  Uiso   1.00
C350   C     0.04639   0.12706   0.47420   0.00000  Uiso   1.00
C351   C     0.47662   0.16661   0.50013   0.00000  Uiso   1.00
C352   C     0.02338   0.16673   0.49986   0.00000  Uiso   1.00
C353   C     0.47659   0.08689   0.45164   0.00000  Uiso   1.00
C354   C     0.02341   0.24646   0.54833   0.00000  Uiso   1.00
C355   C     0.47760   0.24629   0.54869   0.00000  Uiso   1.00
C356   C     0.02240   0.08705   0.45129   0.00000  Uiso   1.00
C357   C     0.25009   0.02174   0.50004   0.00000  Uiso   1.00
C358   C     0.24992   0.31159   0.49996   0.00000  Uiso   1.00
H359   H     0.46000   0.05478   0.43388   0.00000  Uiso   1.00
H360   H     0.04000   0.27858   0.56608   0.00000  Uiso   1.00
H361   H     0.46137   0.27827   0.56678   0.00000  Uiso   1.00
H362   H     0.03863   0.05507   0.43320   0.00000  Uiso   1.00
C363   C     0.38205   0.24655   0.55402   0.00000  Uiso   1.00
O364   O     0.38536   0.25271   0.60366   0.00000  Uiso   1.00
O365   O     0.35477   0.27764   0.52268   0.00000  Uiso   1.00
H366   H     0.34007   0.30441   0.54570   0.00000  Uiso   1.00
C367   C     0.11795   0.08678   0.44599   0.00000  Uiso   1.00
O368   O     0.11465   0.08061   0.39636   0.00000  Uiso   1.00
O369   O     0.14522   0.05568   0.47734   0.00000  Uiso   1.00
H370   H     0.15992   0.02891   0.45433   0.00000  Uiso   1.00
C371   C     0.38093   0.08606   0.44752   0.00000  Uiso   1.00
O372   O     0.35554   0.06034   0.47477   0.00000  Uiso   1.00
O373   O     0.38575   0.07729   0.39124   0.00000  Uiso   1.00
H374   H     0.36655   0.04853   0.37784   0.00000  Uiso   1.00
C375   C     0.11907   0.24730   0.55244   0.00000  Uiso   1.00
O376   O     0.14450   0.27297   0.52520   0.00000  Uiso   1.00
O377   O     0.11422   0.25612   0.60872   0.00000  Uiso   1.00
H378   H     0.13342   0.28489   0.62210   0.00000  Uiso   1.00
O379   O     0.75000   0.09512   0.54562   0.00000  Uiso   1.00
O380   O     0.75000   0.23822   0.45438   0.00000  Uiso   1.00
O381   O     0.75000   0.23822   0.54562   0.00000  Uiso   1.00
O382   O     0.75000   0.09512   0.45438   0.00000  Uiso   1.00
C383   C     0.75015   0.07269   0.50002   0.00000  Uiso   1.00
C384   C     0.74985   0.26065   0.49998   0.00000  Uiso   1.00
O385   O     0.68393   0.16667   0.54563   0.00000  Uiso   1.00
O386   O     0.81608   0.16667   0.45437   0.00000  Uiso   1.00
O387   O     0.81608   0.16667   0.54563   0.00000  Uiso   1.00
O388   O     0.68393   0.16667   0.45437   0.00000  Uiso   1.00
C389   C     0.66339   0.16649   0.49991   0.00000  Uiso   1.00
C390   C     0.83661   0.16685   0.50009   0.00000  Uiso   1.00
Zn391  Zn    0.75000   0.16667   0.56093   0.00000  Uiso   1.00
Zn392  Zn    0.75000   0.16667   0.43907   0.00000  Uiso   1.00
N393   N     0.75000   0.16667   0.35788   0.00000  Uiso   1.00
N394   N     0.75000   0.16667   0.64212   0.00000  Uiso   1.00
C395   C     0.90713   0.20572   0.52681   0.00000  Uiso   1.00
C396   C     0.59287   0.12761   0.47319   0.00000  Uiso   1.00
C397   C     0.90657   0.12716   0.47425   0.00000  Uiso   1.00
C398   C     0.59343   0.20619   0.52573   0.00000  Uiso   1.00
C399   C     0.88430   0.16658   0.50038   0.00000  Uiso   1.00
C400   C     0.61570   0.16675   0.49962   0.00000  Uiso   1.00
C401   C     0.95307   0.12679   0.47479   0.00000  Uiso   1.00
C402   C     0.54693   0.20656   0.52520   0.00000  Uiso   1.00
C403   C     0.95361   0.20628   0.52579   0.00000  Uiso   1.00
C404   C     0.54639   0.12706   0.47420   0.00000  Uiso   1.00
C405   C     0.97662   0.16661   0.50013   0.00000  Uiso   1.00
C406   C     0.52338   0.16673   0.49986   0.00000  Uiso   1.00
C407   C     0.97659   0.08689   0.45164   0.00000  Uiso   1.00
C408   C     0.52341   0.24646   0.54833   0.00000  Uiso   1.00
C409   C     0.97760   0.24629   0.54869   0.00000  Uiso   1.00
C410   C     0.52240   0.08705   0.45129   0.00000  Uiso   1.00
C411   C     0.75009   0.02174   0.50004   0.00000  Uiso   1.00
C412   C     0.74992   0.31159   0.49996   0.00000  Uiso   1.00
H413   H     0.96000   0.05478   0.43388   0.00000  Uiso   1.00
H414   H     0.54000   0.27858   0.56608   0.00000  Uiso   1.00
H415   H     0.96137   0.27827   0.56678   0.00000  Uiso   1.00
H416   H     0.53863   0.05507   0.43320   0.00000  Uiso   1.00
C417   C     0.88205   0.24655   0.55402   0.00000  Uiso   1.00
O418   O     0.88536   0.25271   0.60366   0.00000  Uiso   1.00
O419   O     0.85477   0.27764   0.52268   0.00000  Uiso   1.00
H420   H     0.84007   0.30441   0.54570   0.00000  Uiso   1.00
C421   C     0.61795   0.08678   0.44599   0.00000  Uiso   1.00
O422   O     0.61465   0.08061   0.39636   0.00000  Uiso   1.00
O423   O     0.64522   0.05568   0.47734   0.00000  Uiso   1.00
H424   H     0.65992   0.02891   0.45433   0.00000  Uiso   1.00
C425   C     0.88093   0.08606   0.44752   0.00000  Uiso   1.00
O426   O     0.85554   0.06034   0.47477   0.00000  Uiso   1.00
O427   O     0.88575   0.07729   0.39124   0.00000  Uiso   1.00
H428   H     0.86655   0.04853   0.37784   0.00000  Uiso   1.00
C429   C     0.61907   0.24730   0.55244   0.00000  Uiso   1.00
O430   O     0.64450   0.27297   0.52520   0.00000  Uiso   1.00
O431   O     0.61422   0.25612   0.60872   0.00000  Uiso   1.00
H432   H     0.63342   0.28489   0.62210   0.00000  Uiso   1.00
O433   O     0.25000   0.42845   0.54562   0.00000  Uiso   1.00
O434   O     0.25000   0.57155   0.45438   0.00000  Uiso   1.00
O435   O     0.25000   0.57155   0.54562   0.00000  Uiso   1.00
O436   O     0.25000   0.42845   0.45438   0.00000  Uiso   1.00
C437   C     0.25015   0.40602   0.50002   0.00000  Uiso   1.00
C438   C     0.24985   0.59398   0.49998   0.00000  Uiso   1.00
O439   O     0.18393   0.50000   0.54563   0.00000  Uiso   1.00
O440   O     0.31608   0.50000   0.45437   0.00000  Uiso   1.00
O441   O     0.31608   0.50000   0.54563   0.00000  Uiso   1.00
O442   O     0.18393   0.50000   0.45437   0.00000  Uiso   1.00
C443   C     0.16339   0.49982   0.49991   0.00000  Uiso   1.00
C444   C     0.33661   0.50018   0.50009   0.00000  Uiso   1.00
Zn445  Zn    0.25000   0.50000   0.56093   0.00000  Uiso   1.00
Zn446  Zn    0.25000   0.50000   0.43907   0.00000  Uiso   1.00
N447   N     0.25000   0.50000   0.35788   0.00000  Uiso   1.00
N448   N     0.25000   0.50000   0.64212   0.00000  Uiso   1.00
C449   C     0.40713   0.53906   0.52681   0.00000  Uiso   1.00
C450   C     0.09287   0.46094   0.47319   0.00000  Uiso   1.00
C451   C     0.40657   0.46049   0.47425   0.00000  Uiso   1.00
C452   C     0.09343   0.53952   0.52573   0.00000  Uiso   1.00
C453   C     0.38430   0.49992   0.50038   0.00000  Uiso   1.00
C454   C     0.11570   0.50009   0.49962   0.00000  Uiso   1.00
C455   C     0.45307   0.46012   0.47479   0.00000  Uiso   1.00
C456   C     0.04693   0.53989   0.52520   0.00000  Uiso   1.00
C457   C     0.45361   0.53961   0.52579   0.00000  Uiso   1.00
C458   C     0.04639   0.46039   0.47420   0.00000  Uiso   1.00
C459   C     0.47662   0.49994   0.50013   0.00000  Uiso   1.00
C460   C     0.02338   0.50007   0.49986   0.00000  Uiso   1.00
C461   C     0.47659   0.42022   0.45164   0.00000  Uiso   1.00
C462   C     0.02341   0.57979   0.54833   0.00000  Uiso   1.00
C463   C     0.47760   0.57963   0.54869   0.00000  Uiso   1.00
C464   C     0.02240   0.42038   0.45129   0.00000  Uiso   1.00
C465   C     0.25009   0.35507   0.50004   0.00000  Uiso   1.00
C466   C     0.24992   0.64493   0.49996   0.00000  Uiso   1.00
H467   H     0.46000   0.38811   0.43388   0.00000  Uiso   1.00
H468   H     0.04000   0.61192   0.56608   0.00000  Uiso   1.00
H469   H     0.46137   0.61161   0.56678   0.00000  Uiso   1.00
H470   H     0.03863   0.38841   0.43320   0.00000  Uiso   1.00
C471   C     0.38205   0.57988   0.55402   0.00000  Uiso   1.00
O472   O     0.38536   0.58605   0.60366   0.00000  Uiso   1.00
O473   O     0.35477   0.61097   0.52268   0.00000  Uiso   1.00
H474   H     0.34007   0.63774   0.54570   0.00000  Uiso   1.00
C475   C     0.11795   0.42011   0.44599   0.00000  Uiso   1.00
O476   O     0.11465   0.41395   0.39636   0.00000  Uiso   1.00
O477   O     0.14522   0.38902   0.47734   0.00000  Uiso   1.00
H478   H     0.15992   0.36224   0.45433   0.00000  Uiso   1.00
C479   C     0.38093   0.41939   0.44752   0.00000  Uiso   1.00
O480   O     0.35554   0.39367   0.47477   0.00000  Uiso   1.00
O481   O     0.38575   0.41063   0.39124   0.00000  Uiso   1.00
H482   H     0.36655   0.38186   0.37784   0.00000  Uiso   1.00
C483   C     0.11907   0.58063   0.55244   0.00000  Uiso   1.00
O484   O     0.14450   0.60631   0.52520   0.00000  Uiso   1.00
O485   O     0.11422   0.58946   0.60872   0.00000  Uiso   1.00
H486   H     0.13342   0.61823   0.62210   0.00000  Uiso   1.00
O487   O     0.75000   0.42845   0.54562   0.00000  Uiso   1.00
O488   O     0.75000   0.57155   0.45438   0.00000  Uiso   1.00
O489   O     0.75000   0.57155   0.54562   0.00000  Uiso   1.00
O490   O     0.75000   0.42845   0.45438   0.00000  Uiso   1.00
C491   C     0.75015   0.40602   0.50002   0.00000  Uiso   1.00
C492   C     0.74985   0.59398   0.49998   0.00000  Uiso   1.00
O493   O     0.68393   0.50000   0.54563   0.00000  Uiso   1.00
O494   O     0.81608   0.50000   0.45437   0.00000  Uiso   1.00
O495   O     0.81608   0.50000   0.54563   0.00000  Uiso   1.00
O496   O     0.68393   0.50000   0.45437   0.00000  Uiso   1.00
C497   C     0.66339   0.49982   0.49991   0.00000  Uiso   1.00
C498   C     0.83661   0.50018   0.50009   0.00000  Uiso   1.00
Zn499  Zn    0.75000   0.50000   0.56093   0.00000  Uiso   1.00
Zn500  Zn    0.75000   0.50000   0.43907   0.00000  Uiso   1.00
N501   N     0.75000   0.50000   0.35788   0.00000  Uiso   1.00
N502   N     0.75000   0.50000   0.64212   0.00000  Uiso   1.00
C503   C     0.90713   0.53906   0.52681   0.00000  Uiso   1.00
C504   C     0.59287   0.46094   0.47319   0.00000  Uiso   1.00
C505   C     0.90657   0.46049   0.47425   0.00000  Uiso   1.00
C506   C     0.59343   0.53952   0.52573   0.00000  Uiso   1.00
C507   C     0.88430   0.49992   0.50038   0.00000  Uiso   1.00
C508   C     0.61570   0.50009   0.49962   0.00000  Uiso   1.00
C509   C     0.95307   0.46012   0.47479   0.00000  Uiso   1.00
C510   C     0.54693   0.53989   0.52520   0.00000  Uiso   1.00
C511   C     0.95361   0.53961   0.52579   0.00000  Uiso   1.00
C512   C     0.54639   0.46039   0.47420   0.00000  Uiso   1.00
C513   C     0.97662   0.49994   0.50013   0.00000  Uiso   1.00
C514   C     0.52338   0.50007   0.49986   0.00000  Uiso   1.00
C515   C     0.97659   0.42022   0.45164   0.00000  Uiso   1.00
C516   C     0.52341   0.57979   0.54833   0.00000  Uiso   1.00
C517   C     0.97760   0.57963   0.54869   0.00000  Uiso   1.00
C518   C     0.52240   0.42038   0.45129   0.00000  Uiso   1.00
C519   C     0.75009   0.35507   0.50004   0.00000  Uiso   1.00
C520   C     0.74992   0.64493   0.49996   0.00000  Uiso   1.00
H521   H     0.96000   0.38811   0.43388   0.00000  Uiso   1.00
H522   H     0.54000   0.61192   0.56608   0.00000  Uiso   1.00
H523   H     0.96137   0.61161   0.56678   0.00000  Uiso   1.00
H524   H     0.53863   0.38841   0.43320   0.00000  Uiso   1.00
C525   C     0.88205   0.57988   0.55402   0.00000  Uiso   1.00
O526   O     0.88536   0.58605   0.60366   0.00000  Uiso   1.00
O527   O     0.85477   0.61097   0.52268   0.00000  Uiso   1.00
H528   H     0.84007   0.63774   0.54570   0.00000  Uiso   1.00
C529   C     0.61795   0.42011   0.44599   0.00000  Uiso   1.00
O530   O     0.61465   0.41395   0.39636   0.00000  Uiso   1.00
O531   O     0.64522   0.38902   0.47734   0.00000  Uiso   1.00
H532   H     0.65992   0.36224   0.45433   0.00000  Uiso   1.00
C533   C     0.88093   0.41939   0.44752   0.00000  Uiso   1.00
O534   O     0.85554   0.39367   0.47477   0.00000  Uiso   1.00
O535   O     0.88575   0.41063   0.39124   0.00000  Uiso   1.00
H536   H     0.86655   0.38186   0.37784   0.00000  Uiso   1.00
C537   C     0.61907   0.58063   0.55244   0.00000  Uiso   1.00
O538   O     0.64450   0.60631   0.52520   0.00000  Uiso   1.00
O539   O     0.61422   0.58946   0.60872   0.00000  Uiso   1.00
H540   H     0.63342   0.61823   0.62210   0.00000  Uiso   1.00
O541   O     0.25000   0.76178   0.54562   0.00000  Uiso   1.00
O542   O     0.25000   0.90488   0.45438   0.00000  Uiso   1.00
O543   O     0.25000   0.90488   0.54562   0.00000  Uiso   1.00
O544   O     0.25000   0.76178   0.45438   0.00000  Uiso   1.00
C545   C     0.25015   0.73935   0.50002   0.00000  Uiso   1.00
C546   C     0.24985   0.92731   0.49998   0.00000  Uiso   1.00
O547   O     0.18393   0.83333   0.54563   0.00000  Uiso   1.00
O548   O     0.31608   0.83333   0.45437   0.00000  Uiso   1.00
O549   O     0.31608   0.83333   0.54563   0.00000  Uiso   1.00
O550   O     0.18393   0.83333   0.45437   0.00000  Uiso   1.00
C551   C     0.16339   0.83315   0.49991   0.00000  Uiso   1.00
C552   C     0.33661   0.83351   0.50009   0.00000  Uiso   1.00
Zn553  Zn    0.25000   0.83333   0.56093   0.00000  Uiso   1.00
Zn554  Zn    0.25000   0.83333   0.43907   0.00000  Uiso   1.00
N555   N     0.25000   0.83333   0.35788   0.00000  Uiso   1.00
N556   N     0.25000   0.83333   0.64212   0.00000  Uiso   1.00
C557   C     0.40713   0.87239   0.52681   0.00000  Uiso   1.00
C558   C     0.09287   0.79428   0.47319   0.00000  Uiso   1.00
C559   C     0.40657   0.79382   0.47425   0.00000  Uiso   1.00
C560   C     0.09343   0.87285   0.52573   0.00000  Uiso   1.00
C561   C     0.38430   0.83325   0.50038   0.00000  Uiso   1.00
C562   C     0.11570   0.83342   0.49962   0.00000  Uiso   1.00
C563   C     0.45307   0.79345   0.47479   0.00000  Uiso   1.00
C564   C     0.04693   0.87322   0.52520   0.00000  Uiso   1.00
C565   C     0.45361   0.87295   0.52579   0.00000  Uiso   1.00
C566   C     0.04639   0.79373   0.47420   0.00000  Uiso   1.00
C567   C     0.47662   0.83327   0.50013   0.00000  Uiso   1.00
C568   C     0.02338   0.83340   0.49986   0.00000  Uiso   1.00
C569   C     0.47659   0.75356   0.45164   0.00000  Uiso   1.00
C570   C     0.02341   0.91313   0.54833   0.00000  Uiso   1.00
C571   C     0.47760   0.91296   0.54869   0.00000  Uiso   1.00
C572   C     0.02240   0.75372   0.45129   0.00000  Uiso   1.00
C573   C     0.25009   0.68841   0.50004   0.00000  Uiso   1.00
C574   C     0.24992   0.97826   0.49996   0.00000  Uiso   1.00
H575   H     0.46000   0.72144   0.43388   0.00000  Uiso   1.00
H576   H     0.04000   0.94525   0.56608   0.00000  Uiso   1.00
H577   H     0.46137   0.94494   0.56678   0.00000  Uiso   1.00
H578   H     0.03863   0.72174   0.43320   0.00000  Uiso   1.00
C579   C     0.38205   0.91322   0.55402   0.00000  Uiso   1.00
O580   O     0.38536   0.91938   0.60366   0.00000  Uiso   1.00
O581   O     0.35477   0.94431   0.52268   0.00000  Uiso   1.00
H582   H     0.34007   0.97108   0.54570   0.00000  Uiso   1.00
C583   C     0.11795   0.75344   0.44599   0.00000  Uiso   1.00
O584   O     0.11465   0.74728   0.39636   0.00000  Uiso   1.00
O585   O     0.14522   0.72235   0.47734   0.00000  Uiso   1.00
H586   H     0.15992   0.69558   0.45433   0.00000  Uiso   1.00
C587   C     0.38093   0.75272   0.44752   0.00000  Uiso   1.00
O588   O     0.35554   0.72701   0.47477   0.00000  Uiso   1.00
O589   O     0.38575   0.74396   0.39124   0.00000  Uiso   1.00
H590   H     0.36655   0.71519   0.37784   0.00000  Uiso   1.00
C591   C     0.11907   0.91396   0.55244   0.00000  Uiso   1.00
O592   O     0.14450   0.93964   0.52520   0.00000  Uiso   1.00
O593   O     0.11422   0.92279   0.60872   0.00000  Uiso   1.00
H594   H     0.13342   0.95156   0.62210   0.00000  Uiso   1.00
O595   O     0.75000   0.76178   0.54562   0.00000  Uiso   1.00
O596   O     0.75000   0.90488   0.45438   0.00000  Uiso   1.00
O597   O     0.75000   0.90488   0.54562   0.00000  Uiso   1.00
O598   O     0.75000   0.76178   0.45438   0.00000  Uiso   1.00
C599   C     0.75015   0.73935   0.50002   0.00000  Uiso   1.00
C600   C     0.74985   0.92731   0.49998   0.00000  Uiso   1.00
O601   O     0.68393   0.83333   0.54563   0.00000  Uiso   1.00
O602   O     0.81608   0.83333   0.45437   0.00000  Uiso   1.00
O603   O     0.81608   0.83333   0.54563   0.00000  Uiso   1.00
O604   O     0.68393   0.83333   0.45437   0.00000  Uiso   1.00
C605   C     0.66339   0.83315   0.49991   0.00000  Uiso   1.00
C606   C     0.83661   0.83351   0.50009   0.00000  Uiso   1.00
Zn607  Zn    0.75000   0.83333   0.56093   0.00000  Uiso   1.00
Zn608  Zn    0.75000   0.83333   0.43907   0.00000  Uiso   1.00
N609   N     0.75000   0.83333   0.35788   0.00000  Uiso   1.00
N610   N     0.75000   0.83333   0.64212   0.00000  Uiso   1.00
C611   C     0.90713   0.87239   0.52681   0.00000  Uiso   1.00
C612   C     0.59287   0.79428   0.47319   0.00000  Uiso   1.00
C613   C     0.90657   0.79382   0.47425   0.00000  Uiso   1.00
C614   C     0.59343   0.87285   0.52573   0.00000  Uiso   1.00
C615   C     0.88430   0.83325   0.50038   0.00000  Uiso   1.00
C616   C     0.61570   0.83342   0.49962   0.00000  Uiso   1.00
C617   C     0.95307   0.79345   0.47479   0.00000  Uiso   1.00
C618   C     0.54693   0.87322   0.52520   0.00000  Uiso   1.00
C619   C     0.95361   0.87295   0.52579   0.00000  Uiso   1.00
C620   C     0.54639   0.79373   0.47420   0.00000  Uiso   1.00
C621   C     0.97662   0.83327   0.50013   0.00000  Uiso   1.00
C622   C     0.52338   0.83340   0.49986   0.00000  Uiso   1.00
C623   C     0.97659   0.75356   0.45164   0.00000  Uiso   1.00
C624   C     0.52341   0.91313   0.54833   0.00000  Uiso   1.00
C625   C     0.97760   0.91296   0.54869   0.00000  Uiso   1.00
C626   C     0.52240   0.75372   0.45129   0.00000  Uiso   1.00
C627   C     0.75009   0.68841   0.50004   0.00000  Uiso   1.00
C628   C     0.74992   0.97826   0.49996   0.00000  Uiso   1.00
H629   H     0.96000   0.72144   0.43388   0.00000  Uiso   1.00
H630   H     0.54000   0.94525   0.56608   0.00000  Uiso   1.00
H631   H     0.96137   0.94494   0.56678   0.00000  Uiso   1.00
H632   H     0.53863   0.72174   0.43320   0.00000  Uiso   1.00
C633   C     0.88205   0.91322   0.55402   0.00000  Uiso   1.00
O634   O     0.88536   0.91938   0.60366   0.00000  Uiso   1.00
O635   O     0.85477   0.94431   0.52268   0.00000  Uiso   1.00
H636   H     0.84007   0.97108   0.54570   0.00000  Uiso   1.00
C637   C     0.61795   0.75344   0.44599   0.00000  Uiso   1.00
O638   O     0.61465   0.74728   0.39636   0.00000  Uiso   1.00
O639   O     0.64522   0.72235   0.47734   0.00000  Uiso   1.00
H640   H     0.65992   0.69558   0.45433   0.00000  Uiso   1.00
C641   C     0.88093   0.75272   0.44752   0.00000  Uiso   1.00
O642   O     0.85554   0.72701   0.47477   0.00000  Uiso   1.00
O643   O     0.88575   0.74396   0.39124   0.00000  Uiso   1.00
H644   H     0.86655   0.71519   0.37784   0.00000  Uiso   1.00
C645   C     0.61907   0.91396   0.55244   0.00000  Uiso   1.00
O646   O     0.64450   0.93964   0.52520   0.00000  Uiso   1.00
O647   O     0.61422   0.92279   0.60872   0.00000  Uiso   1.00
H648   H     0.63342   0.95156   0.62210   0.00000  Uiso   1.00
O649   O     0.25000   0.09512   0.87895   0.00000  Uiso   1.00
O650   O     0.25000   0.23822   0.78772   0.00000  Uiso   1.00
O651   O     0.25000   0.23822   0.87895   0.00000  Uiso   1.00
O652   O     0.25000   0.09512   0.78772   0.00000  Uiso   1.00
C653   C     0.25015   0.07269   0.83335   0.00000  Uiso   1.00
C654   C     0.24985   0.26065   0.83331   0.00000  Uiso   1.00
O655   O     0.18393   0.16667   0.87896   0.00000  Uiso   1.00
O656   O     0.31608   0.16667   0.78770   0.00000  Uiso   1.00
O657   O     0.31608   0.16667   0.87896   0.00000  Uiso   1.00
O658   O     0.18393   0.16667   0.78770   0.00000  Uiso   1.00
C659   C     0.16339   0.16649   0.83324   0.00000  Uiso   1.00
C660   C     0.33661   0.16685   0.83343   0.00000  Uiso   1.00
Zn661  Zn    0.25000   0.16667   0.89426   0.00000  Uiso   1.00
Zn662  Zn    0.25000   0.16667   0.77241   0.00000  Uiso   1.00
N663   N     0.25000   0.16667   0.69121   0.00000  Uiso   1.00
N664   N     0.25000   0.16667   0.97545   0.00000  Uiso   1.00
C665   C     0.40713   0.20572   0.86015   0.00000  Uiso   1.00
C666   C     0.09287   0.12761   0.80652   0.00000  Uiso   1.00
C667   C     0.40657   0.12716   0.80759   0.00000  Uiso   1.00
C668   C     0.09343   0.20619   0.85907   0.00000  Uiso   1.00
C669   C     0.38430   0.16658   0.83371   0.00000  Uiso   1.00
C670   C     0.11570   0.16675   0.83295   0.00000  Uiso   1.00
C671   C     0.45307   0.12679   0.80812   0.00000  Uiso   1.00
C672   C     0.04693   0.20656   0.85853   0.00000  Uiso   1.00
C673   C     0.45361   0.20628   0.85913   0.00000  Uiso   1.00
C674   C     0.04639   0.12706   0.80753   0.00000  Uiso   1.00
C675   C     0.47662   0.16661   0.83346   0.00000  Uiso   1.00
C676   C     0.02338   0.16673   0.83319   0.00000  Uiso   1.00
C677   C     0.47659   0.08689   0.78498   0.00000  Uiso   1.00
C678   C     0.02341   0.24646   0.88167   0.00000  Uiso   1.00
C679   C     0.47760   0.24629   0.88203   0.00000  Uiso   1.00
C680   C     0.02240   0.08705   0.78462   0.00000  Uiso   1.00
C681   C     0.25009   0.02174   0.83337   0.00000  Uiso   1.00
C682   C     0.24992   0.31159   0.83330   0.00000  Uiso   1.00
H683   H     0.46000   0.05478   0.76722   0.00000  Uiso   1.00
H684   H     0.04000   0.27858   0.89941   0.00000  Uiso   1.00
H685   H     0.46137   0.27827   0.90011   0.00000  Uiso   1.00
H686   H     0.03863   0.05507   0.76654   0.00000  Uiso   1.00
C687   C     0.38205   0.24655   0.88736   0.00000  Uiso   1.00
O688   O     0.38536   0.25271   0.93699   0.00000  Uiso   1.00
O689   O     0.35477   0.27764   0.85602   0.00000  Uiso   1.00
H690   H     0.34007   0.30441   0.87904   0.00000  Uiso   1.00
C691   C     0.11795   0.08678   0.77932   0.00000  Uiso   1.00
O692   O     0.11465   0.08061   0.72969   0.00000  Uiso   1.00
O693   O     0.14522   0.05568   0.81067   0.00000  Uiso   1.00
H694   H     0.15992   0.02891   0.78766   0.00000  Uiso   1.00
C695   C     0.38093   0.08606   0.78086   0.00000  Uiso   1.00
O696   O     0.35554   0.06034   0.80810   0.00000  Uiso   1.00
O697   O     0.38575   0.07729   0.72457   0.00000  Uiso   1.00
H698   H     0.36655   0.04853   0.71117   0.00000  Uiso   1.00
C699   C     0.11907   0.24730   0.88578   0.00000  Uiso   1.00
O700   O     0.14450   0.27297   0.85853   0.00000  Uiso   1.00
O701   O     0.11422   0.25612   0.94205   0.00000  Uiso   1.00
H702   H     0.13342   0.28489   0.95543   0.00000  Uiso   1.00
O703   O     0.75000   0.09512   0.87895   0.00000  Uiso   1.00
O704   O     0.75000   0.23822   0.78772   0.00000  Uiso   1.00
O705   O     0.75000   0.23822   0.87895   0.00000  Uiso   1.00
O706   O     0.75000   0.09512   0.78772   0.00000  Uiso   1.00
C707   C     0.75015   0.07269   0.83335   0.00000  Uiso   1.00
C708   C     0.74985   0.26065   0.83331   0.00000  Uiso   1.00
O709   O     0.68393   0.16667   0.87896   0.00000  Uiso   1.00
O710   O     0.81608   0.16667   0.78770   0.00000  Uiso   1.00
O711   O     0.81608   0.16667   0.87896   0.00000  Uiso   1.00
O712   O     0.68393   0.16667   0.78770   0.00000  Uiso   1.00
C713   C     0.66339   0.16649   0.83324   0.00000  Uiso   1.00
C714   C     0.83661   0.16685   0.83343   0.00000  Uiso   1.00
Zn715  Zn    0.75000   0.16667   0.89426   0.00000  Uiso   1.00
Zn716  Zn    0.75000   0.16667   0.77241   0.00000  Uiso   1.00
N717   N     0.75000   0.16667   0.69121   0.00000  Uiso   1.00
N718   N     0.75000   0.16667   0.97545   0.00000  Uiso   1.00
C719   C     0.90713   0.20572   0.86015   0.00000  Uiso   1.00
C720   C     0.59287   0.12761   0.80652   0.00000  Uiso   1.00
C721   C     0.90657   0.12716   0.80759   0.00000  Uiso   1.00
C722   C     0.59343   0.20619   0.85907   0.00000  Uiso   1.00
C723   C     0.88430   0.16658   0.83371   0.00000  Uiso   1.00
C724   C     0.61570   0.16675   0.83295   0.00000  Uiso   1.00
C725   C     0.95307   0.12679   0.80812   0.00000  Uiso   1.00
C726   C     0.54693   0.20656   0.85853   0.00000  Uiso   1.00
C727   C     0.95361   0.20628   0.85913   0.00000  Uiso   1.00
C728   C     0.54639   0.12706   0.80753   0.00000  Uiso   1.00
C729   C     0.97662   0.16661   0.83346   0.00000  Uiso   1.00
C730   C     0.52338   0.16673   0.83319   0.00000  Uiso   1.00
C731   C     0.97659   0.08689   0.78498   0.00000  Uiso   1.00
C732   C     0.52341   0.24646   0.88167   0.00000  Uiso   1.00
C733   C     0.97760   0.24629   0.88203   0.00000  Uiso   1.00
C734   C     0.52240   0.08705   0.78462   0.00000  Uiso   1.00
C735   C     0.75009   0.02174   0.83337   0.00000  Uiso   1.00
C736   C     0.74992   0.31159   0.83330   0.00000  Uiso   1.00
H737   H     0.96000   0.05478   0.76722   0.00000  Uiso   1.00
H738   H     0.54000   0.27858   0.89941   0.00000  Uiso   1.00
H739   H     0.96137   0.27827   0.90011   0.00000  Uiso   1.00
H740   H     0.53863   0.05507   0.76654   0.00000  Uiso   1.00
C741   C     0.88205   0.24655   0.88736   0.00000  Uiso   1.00
O742   O     0.88536   0.25271   0.93699   0.00000  Uiso   1.00
O743   O     0.85477   0.27764   0.85602   0.00000  Uiso   1.00
H744   H     0.84007   0.30441   0.87904   0.00000  Uiso   1.00
C745   C     0.61795   0.08678   0.77932   0.00000  Uiso   1.00
O746   O     0.61465   0.08061   0.72969   0.00000  Uiso   1.00
O747   O     0.64522   0.05568   0.81067   0.00000  Uiso   1.00
H748   H     0.65992   0.02891   0.78766   0.00000  Uiso   1.00
C749   C     0.88093   0.08606   0.78086   0.00000  Uiso   1.00
O750   O     0.85554   0.06034   0.80810   0.00000  Uiso   1.00
O751   O     0.88575   0.07729   0.72457   0.00000  Uiso   1.00
H752   H     0.86655   0.04853   0.71117   0.00000  Uiso   1.00
C753   C     0.61907   0.24730   0.88578   0.00000  Uiso   1.00
O754   O     0.64450   0.27297   0.85853   0.00000  Uiso   1.00
O755   O     0.61422   0.25612   0.94205   0.00000  Uiso   1.00
H756   H     0.63342   0.28489   0.95543   0.00000  Uiso   1.00
O757   O     0.25000   0.42845   0.87895   0.00000  Uiso   1.00
O758   O     0.25000   0.57155   0.78772   0.00000  Uiso   1.00
O759   O     0.25000   0.57155   0.87895   0.00000  Uiso   1.00
O760   O     0.25000   0.42845   0.78772   0.00000  Uiso   1.00
C761   C     0.25015   0.40602   0.83335   0.00000  Uiso   1.00
C762   C     0.24985   0.59398   0.83331   0.00000  Uiso   1.00
O763   O     0.18393   0.50000   0.87896   0.00000  Uiso   1.00
O764   O     0.31608   0.50000   0.78770   0.00000  Uiso   1.00
O765   O     0.31608   0.50000   0.87896   0.00000  Uiso   1.00
O766   O     0.18393   0.50000   0.78770   0.00000  Uiso   1.00
C767   C     0.16339   0.49982   0.83324   0.00000  Uiso   1.00
C768   C     0.33661   0.50018   0.83343   0.00000  Uiso   1.00
Zn769  Zn    0.25000   0.50000   0.89426   0.00000  Uiso   1.00
Zn770  Zn    0.25000   0.50000   0.77241   0.00000  Uiso   1.00
N771   N     0.25000   0.50000   0.69121   0.00000  Uiso   1.00
N772   N     0.25000   0.50000   0.97545   0.00000  Uiso   1.00
C773   C     0.40713   0.53906   0.86015   0.00000  Uiso   1.00
C774   C     0.09287   0.46094   0.80652   0.00000  Uiso   1.00
C775   C     0.40657   0.46049   0.80759   0.00000  Uiso   1.00
C776   C     0.09343   0.53952   0.85907   0.00000  Uiso   1.00
C777   C     0.38430   0.49992   0.83371   0.00000  Uiso   1.00
C778   C     0.11570   0.50009   0.83295   0.00000  Uiso   1.00
C779   C     0.45307   0.46012   0.80812   0.00000  Uiso   1.00
C780   C     0.04693   0.53989   0.85853   0.00000  Uiso   1.00
C781   C     0.45361   0.53961   0.85913   0.00000  Uiso   1.00
C782   C     0.04639   0.46039   0.80753   0.00000  Uiso   1.00
C783   C     0.47662   0.49994   0.83346   0.00000  Uiso   1.00
C784   C     0.02338   0.50007   0.83319   0.00000  Uiso   1.00
C785   C     0.47659   0.42022   0.78498   0.00000  Uiso   1.00
C786   C     0.02341   0.57979   0.88167   0.00000  Uiso   1.00
C787   C     0.47760   0.57963   0.88203   0.00000  Uiso   1.00
C788   C     0.02240   0.42038   0.78462   0.00000  Uiso   1.00
C789   C     0.25009   0.35507   0.83337   0.00000  Uiso   1.00
C790   C     0.24992   0.64493   0.83330   0.00000  Uiso   1.00
H791   H     0.46000   0.38811   0.76722   0.00000  Uiso   1.00
H792   H     0.04000   0.61192   0.89941   0.00000  Uiso   1.00
H793   H     0.46137   0.61161   0.90011   0.00000  Uiso   1.00
H794   H     0.03863   0.38841   0.76654   0.00000  Uiso   1.00
C795   C     0.38205   0.57988   0.88736   0.00000  Uiso   1.00
O796   O     0.38536   0.58605   0.93699   0.00000  Uiso   1.00
O797   O     0.35477   0.61097   0.85602   0.00000  Uiso   1.00
H798   H     0.34007   0.63774   0.87904   0.00000  Uiso   1.00
C799   C     0.11795   0.42011   0.77932   0.00000  Uiso   1.00
O800   O     0.11465   0.41395   0.72969   0.00000  Uiso   1.00
O801   O     0.14522   0.38902   0.81067   0.00000  Uiso   1.00
H802   H     0.15992   0.36224   0.78766   0.00000  Uiso   1.00
C803   C     0.38093   0.41939   0.78086   0.00000  Uiso   1.00
O804   O     0.35554   0.39367   0.80810   0.00000  Uiso   1.00
O805   O     0.38575   0.41063   0.72457   0.00000  Uiso   1.00
H806   H     0.36655   0.38186   0.71117   0.00000  Uiso   1.00
C807   C     0.11907   0.58063   0.88578   0.00000  Uiso   1.00
O808   O     0.14450   0.60631   0.85853   0.00000  Uiso   1.00
O809   O     0.11422   0.58946   0.94205   0.00000  Uiso   1.00
H810   H     0.13342   0.61823   0.95543   0.00000  Uiso   1.00
O811   O     0.75000   0.42845   0.87895   0.00000  Uiso   1.00
O812   O     0.75000   0.57155   0.78772   0.00000  Uiso   1.00
O813   O     0.75000   0.57155   0.87895   0.00000  Uiso   1.00
O814   O     0.75000   0.42845   0.78772   0.00000  Uiso   1.00
C815   C     0.75015   0.40602   0.83335   0.00000  Uiso   1.00
C816   C     0.74985   0.59398   0.83331   0.00000  Uiso   1.00
O817   O     0.68393   0.50000   0.87896   0.00000  Uiso   1.00
O818   O     0.81608   0.50000   0.78770   0.00000  Uiso   1.00
O819   O     0.81608   0.50000   0.87896   0.00000  Uiso   1.00
O820   O     0.68393   0.50000   0.78770   0.00000  Uiso   1.00
C821   C     0.66339   0.49982   0.83324   0.00000  Uiso   1.00
C822   C     0.83661   0.50018   0.83343   0.00000  Uiso   1.00
Zn823  Zn    0.75000   0.50000   0.89426   0.00000  Uiso   1.00
Zn824  Zn    0.75000   0.50000   0.77241   0.00000  Uiso   1.00
N825   N     0.75000   0.50000   0.69121   0.00000  Uiso   1.00
N826   N     0.75000   0.50000   0.97545   0.00000  Uiso   1.00
C827   C     0.90713   0.53906   0.86015   0.00000  Uiso   1.00
C828   C     0.59287   0.46094   0.80652   0.00000  Uiso   1.00
C829   C     0.90657   0.46049   0.80759   0.00000  Uiso   1.00
C830   C     0.59343   0.53952   0.85907   0.00000  Uiso   1.00
C831   C     0.88430   0.49992   0.83371   0.00000  Uiso   1.00
C832   C     0.61570   0.50009   0.83295   0.00000  Uiso   1.00
C833   C     0.95307   0.46012   0.80812   0.00000  Uiso   1.00
C834   C     0.54693   0.53989   0.85853   0.00000  Uiso   1.00
C835   C     0.95361   0.53961   0.85913   0.00000  Uiso   1.00
C836   C     0.54639   0.46039   0.80753   0.00000  Uiso   1.00
C837   C     0.97662   0.49994   0.83346   0.00000  Uiso   1.00
C838   C     0.52338   0.50007   0.83319   0.00000  Uiso   1.00
C839   C     0.97659   0.42022   0.78498   0.00000  Uiso   1.00
C840   C     0.52341   0.57979   0.88167   0.00000  Uiso   1.00
C841   C     0.97760   0.57963   0.88203   0.00000  Uiso   1.00
C842   C     0.52240   0.42038   0.78462   0.00000  Uiso   1.00
C843   C     0.75009   0.35507   0.83337   0.00000  Uiso   1.00
C844   C     0.74992   0.64493   0.83330   0.00000  Uiso   1.00
H845   H     0.96000   0.38811   0.76722   0.00000  Uiso   1.00
H846   H     0.54000   0.61192   0.89941   0.00000  Uiso   1.00
H847   H     0.96137   0.61161   0.90011   0.00000  Uiso   1.00
H848   H     0.53863   0.38841   0.76654   0.00000  Uiso   1.00
C849   C     0.88205   0.57988   0.88736   0.00000  Uiso   1.00
O850   O     0.88536   0.58605   0.93699   0.00000  Uiso   1.00
O851   O     0.85477   0.61097   0.85602   0.00000  Uiso   1.00
H852   H     0.84007   0.63774   0.87904   0.00000  Uiso   1.00
C853   C     0.61795   0.42011   0.77932   0.00000  Uiso   1.00
O854   O     0.61465   0.41395   0.72969   0.00000  Uiso   1.00
O855   O     0.64522   0.38902   0.81067   0.00000  Uiso   1.00
H856   H     0.65992   0.36224   0.78766   0.00000  Uiso   1.00
C857   C     0.88093   0.41939   0.78086   0.00000  Uiso   1.00
O858   O     0.85554   0.39367   0.80810   0.00000  Uiso   1.00
O859   O     0.88575   0.41063   0.72457   0.00000  Uiso   1.00
H860   H     0.86655   0.38186   0.71117   0.00000  Uiso   1.00
C861   C     0.61907   0.58063   0.88578   0.00000  Uiso   1.00
O862   O     0.64450   0.60631   0.85853   0.00000  Uiso   1.00
O863   O     0.61422   0.58946   0.94205   0.00000  Uiso   1.00
H864   H     0.63342   0.61823   0.95543   0.00000  Uiso   1.00
O865   O     0.25000   0.76178   0.87895   0.00000  Uiso   1.00
O866   O     0.25000   0.90488   0.78772   0.00000  Uiso   1.00
O867   O     0.25000   0.90488   0.87895   0.00000  Uiso   1.00
O868   O     0.25000   0.76178   0.78772   0.00000  Uiso   1.00
C869   C     0.25015   0.73935   0.83335   0.00000  Uiso   1.00
C870   C     0.24985   0.92731   0.83331   0.00000  Uiso   1.00
O871   O     0.18393   0.83333   0.87896   0.00000  Uiso   1.00
O872   O     0.31608   0.83333   0.78770   0.00000  Uiso   1.00
O873   O     0.31608   0.83333   0.87896   0.00000  Uiso   1.00
O874   O     0.18393   0.83333   0.78770   0.00000  Uiso   1.00
C875   C     0.16339   0.83315   0.83324   0.00000  Uiso   1.00
C876   C     0.33661   0.83351   0.83343   0.00000  Uiso   1.00
Zn877  Zn    0.25000   0.83333   0.89426   0.00000  Uiso   1.00
Zn878  Zn    0.25000   0.83333   0.77241   0.00000  Uiso   1.00
N879   N     0.25000   0.83333   0.69121   0.00000  Uiso   1.00
N880   N     0.25000   0.83333   0.97545   0.00000  Uiso   1.00
C881   C     0.40713   0.87239   0.86015   0.00000  Uiso   1.00
C882   C     0.09287   0.79428   0.80652   0.00000  Uiso   1.00
C883   C     0.40657   0.79382   0.80759   0.00000  Uiso   1.00
C884   C     0.09343   0.87285   0.85907   0.00000  Uiso   1.00
C885   C     0.38430   0.83325   0.83371   0.00000  Uiso   1.00
C886   C     0.11570   0.83342   0.83295   0.00000  Uiso   1.00
C887   C     0.45307   0.79345   0.80812   0.00000  Uiso   1.00
C888   C     0.04693   0.87322   0.85853   0.00000  Uiso   1.00
C889   C     0.45361   0.87295   0.85913   0.00000  Uiso   1.00
C890   C     0.04639   0.79373   0.80753   0.00000  Uiso   1.00
C891   C     0.47662   0.83327   0.83346   0.00000  Uiso   1.00
C892   C     0.02338   0.83340   0.83319   0.00000  Uiso   1.00
C893   C     0.47659   0.75356   0.78498   0.00000  Uiso   1.00
C894   C     0.02341   0.91313   0.88167   0.00000  Uiso   1.00
C895   C     0.47760   0.91296   0.88203   0.00000  Uiso   1.00
C896   C     0.02240   0.75372   0.78462   0.00000  Uiso   1.00
C897   C     0.25009   0.68841   0.83337   0.00000  Uiso   1.00
C898   C     0.24992   0.97826   0.83330   0.00000  Uiso   1.00
H899   H     0.46000   0.72144   0.76722   0.00000  Uiso   1.00
H900   H     0.04000   0.94525   0.89941   0.00000  Uiso   1.00
H901   H     0.46137   0.94494   0.90011   0.00000  Uiso   1.00
H902   H     0.03863   0.72174   0.76654   0.00000  Uiso   1.00
C903   C     0.38205   0.91322   0.88736   0.00000  Uiso   1.00
O904   O     0.38536   0.91938   0.93699   0.00000  Uiso   1.00
O905   O     0.35477   0.94431   0.85602   0.00000  Uiso   1.00
H906   H     0.34007   0.97108   0.87904   0.00000  Uiso   1.00
C907   C     0.11795   0.75344   0.77932   0.00000  Uiso   1.00
O908   O     0.11465   0.74728   0.72969   0.00000  Uiso   1.00
O909   O     0.14522   0.72235   0.81067   0.00000  Uiso   1.00
H910   H     0.15992   0.69558   0.78766   0.00000  Uiso   1.00
C911   C     0.38093   0.75272   0.78086   0.00000  Uiso   1.00
O912   O     0.35554   0.72701   0.80810   0.00000  Uiso   1.00
O913   O     0.38575   0.74396   0.72457   0.00000  Uiso   1.00
H914   H     0.36655   0.71519   0.71117   0.00000  Uiso   1.00
C915   C     0.11907   0.91396   0.88578   0.00000  Uiso   1.00
O916   O     0.14450   0.93964   0.85853   0.00000  Uiso   1.00
O917   O     0.11422   0.92279   0.94205   0.00000  Uiso   1.00
H918   H     0.13342   0.95156   0.95543   0.00000  Uiso   1.00
O919   O     0.75000   0.76178   0.87895   0.00000  Uiso   1.00
O920   O     0.75000   0.90488   0.78772   0.00000  Uiso   1.00
O921   O     0.75000   0.90488   0.87895   0.00000  Uiso   1.00
O922   O     0.75000   0.76178   0.78772   0.00000  Uiso   1.00
C923   C     0.75015   0.73935   0.83335   0.00000  Uiso   1.00
C924   C     0.74985   0.92731   0.83331   0.00000  Uiso   1.00
O925   O     0.68393   0.83333   0.87896   0.00000  Uiso   1.00
O926   O     0.81608   0.83333   0.78770   0.00000  Uiso   1.00
O927   O     0.81608   0.83333   0.87896   0.00000  Uiso   1.00
O928   O     0.68393   0.83333   0.78770   0.00000  Uiso   1.00
C929   C     0.66339   0.83315   0.83324   0.00000  Uiso   1.00
C930   C     0.83661   0.83351   0.83343   0.00000  Uiso   1.00
Zn931  Zn    0.75000   0.83333   0.89426   0.00000  Uiso   1.00
Zn932  Zn    0.75000   0.83333   0.77241   0.00000  Uiso   1.00
N933   N     0.75000   0.83333   0.69121   0.00000  Uiso   1.00
N934   N     0.75000   0.83333   0.97545   0.00000  Uiso   1.00
C935   C     0.90713   0.87239   0.86015   0.00000  Uiso   1.00
C936   C     0.59287   0.79428   0.80652   0.00000  Uiso   1.00
C937   C     0.90657   0.79382   0.80759   0.00000  Uiso   1.00
C938   C     0.59343   0.87285   0.85907   0.00000  Uiso   1.00
C939   C     0.88430   0.83325   0.83371   0.00000  Uiso   1.00
C940   C     0.61570   0.83342   0.83295   0.00000  Uiso   1.00
C941   C     0.95307   0.79345   0.80812   0.00000  Uiso   1.00
C942   C     0.54693   0.87322   0.85853   0.00000  Uiso   1.00
C943   C     0.95361   0.87295   0.85913   0.00000  Uiso   1.00
C944   C     0.54639   0.79373   0.80753   0.00000  Uiso   1.00
C945   C     0.97662   0.83327   0.83346   0.00000  Uiso   1.00
C946   C     0.52338   0.83340   0.83319   0.00000  Uiso   1.00
C947   C     0.97659   0.75356   0.78498   0.00000  Uiso   1.00
C948   C     0.52341   0.91313   0.88167   0.00000  Uiso   1.00
C949   C     0.97760   0.91296   0.88203   0.00000  Uiso   1.00
C950   C     0.52240   0.75372   0.78462   0.00000  Uiso   1.00
C951   C     0.75009   0.68841   0.83337   0.00000  Uiso   1.00
C952   C     0.74992   0.97826   0.83330   0.00000  Uiso   1.00
H953   H     0.96000   0.72144   0.76722   0.00000  Uiso   1.00
H954   H     0.54000   0.94525   0.89941   0.00000  Uiso   1.00
H955   H     0.96137   0.94494   0.90011   0.00000  Uiso   1.00
H956   H     0.53863   0.72174   0.76654   0.00000  Uiso   1.00
C957   C     0.88205   0.91322   0.88736   0.00000  Uiso   1.00
O958   O     0.88536   0.91938   0.93699   0.00000  Uiso   1.00
O959   O     0.85477   0.94431   0.85602   0.00000  Uiso   1.00
H960   H     0.84007   0.97108   0.87904   0.00000  Uiso   1.00
C961   C     0.61795   0.75344   0.77932   0.00000  Uiso   1.00
O962   O     0.61465   0.74728   0.72969   0.00000  Uiso   1.00
O963   O     0.64522   0.72235   0.81067   0.00000  Uiso   1.00
H964   H     0.65992   0.69558   0.78766   0.00000  Uiso   1.00
C965   C     0.88093   0.75272   0.78086   0.00000  Uiso   1.00
O966   O     0.85554   0.72701   0.80810   0.00000  Uiso   1.00
O967   O     0.88575   0.74396   0.72457   0.00000  Uiso   1.00
H968   H     0.86655   0.71519   0.71117   0.00000  Uiso   1.00
C969   C     0.61907   0.91396   0.88578   0.00000  Uiso   1.00
O970   O     0.64450   0.93964   0.85853   0.00000  Uiso   1.00
O971   O     0.61422   0.92279   0.94205   0.00000  Uiso   1.00
H972   H     0.63342   0.95156   0.95543   0.00000  Uiso   1.00
loop_
_geom_bond_atom_site_label_1
_geom_bond_atom_site_label_2
_geom_bond_distance
_geom_bond_site_symmetry_2
_ccdc_geom_bond_type
O1     C5      1.262   .     A
O1     Zn13    1.951   .     S
O2     C6      1.262   .     A
O2     Zn14    1.951   .     S
O3     Zn13    1.950   .     S
O3     C6      1.262   .     A
O4     Zn14    1.950   .     S
O4     C5      1.262   .     A
C5     C33     1.363   .     S
C6     C34     1.363   .     S
O7     C11     1.272   .     A
O7     Zn13    2.022   .     S
O8     C12     1.272   .     A
O8     Zn14    2.022   .     S
O9     C12     1.270   .     A
O9     Zn13    2.024   .     S
O10    C11     1.270   .     A
O10    Zn14    2.024   .     S
C11    C22     1.435   .     S
C12    C21     1.435   .     S
Zn13   N16     1.976   .     S
Zn14   N15     1.976   .     S
N15    N664    1.195   1_554 S
N16    N339    1.195   .     S
C17    C25     1.399   .     A
C17    C39     1.488   .     S
C17    C21     1.405   .     A
C18    C26     1.399   .     A
C18    C43     1.488   .     S
C18    C22     1.405   .     A
C19    C23     1.400   .     A
C19    C21     1.406   .     A
C19    C47     1.489   .     S
C20    C22     1.406   .     A
C20    C51     1.489   .     S
C20    C24     1.400   .     A
C23    C29     1.403   .     A
C23    C27     1.418   .     A
C24    C30     1.403   .     A
C24    C28     1.418   .     A
C25    C31     1.403   .     A
C25    C27     1.417   .     A
C26    C32     1.403   .     A
C26    C28     1.417   .     A
C27    C82     1.408   .     S
C28    C81     1.408   1_455 S
C29    H35     1.082   .     S
C29    C86     1.379   .     S
C30    H36     1.081   .     S
C30    C85     1.379   1_455 S
C31    H37     1.082   .     S
C31    C84     1.379   .     S
C32    H38     1.082   .     S
C32    C83     1.379   1_455 S
C33    C250    1.163   1_545 S
C34    C141    1.163   .     S
C39    O41     1.397   .     S
C39    O40     1.223   .     D
O41    H42     1.014   .     S
C43    O44     1.223   .     D
C43    O45     1.397   .     S
O45    H46     1.014   .     S
C47    O48     1.223   .     D
C47    O49     1.398   .     S
O49    H50     1.014   .     S
C51    O52     1.223   .     D
C51    O53     1.398   .     S
O53    H54     1.014   .     S
O55    C59     1.262   .     A
O55    Zn67    1.951   .     S
O56    C60     1.262   .     A
O56    Zn68    1.951   .     S
O57    Zn67    1.950   .     S
O57    C60     1.262   .     A
O58    Zn68    1.950   .     S
O58    C59     1.262   .     A
C59    C87     1.363   .     S
C60    C88     1.363   .     S
O61    C65     1.272   .     A
O61    Zn67    2.022   .     S
O62    C66     1.272   .     A
O62    Zn68    2.022   .     S
O63    C66     1.270   .     A
O63    Zn67    2.024   .     S
O64    C65     1.270   .     A
O64    Zn68    2.024   .     S
C65    C76     1.435   .     S
C66    C75     1.435   .     S
Zn67   N70     1.976   .     S
Zn68   N69     1.976   .     S
N69    N718    1.195   1_554 S
N70    N393    1.195   .     S
C71    C79     1.399   .     A
C71    C93     1.488   .     S
C71    C75     1.405   .     A
C72    C80     1.399   .     A
C72    C97     1.488   .     S
C72    C76     1.405   .     A
C73    C77     1.400   .     A
C73    C75     1.406   .     A
C73    C101    1.489   .     S
C74    C76     1.406   .     A
C74    C105    1.489   .     S
C74    C78     1.400   .     A
C77    C83     1.403   .     A
C77    C81     1.418   .     A
C78    C84     1.403   .     A
C78    C82     1.418   .     A
C79    C85     1.403   .     A
C79    C81     1.417   .     A
C80    C86     1.403   .     A
C80    C82     1.417   .     A
C81    C28     1.408   1_655 S
C83    H89     1.082   .     S
C83    C32     1.379   1_655 S
C84    H90     1.081   .     S
C85    H91     1.082   .     S
C85    C30     1.379   1_655 S
C86    H92     1.082   .     S
C87    C304    1.163   1_545 S
C88    C195    1.163   .     S
C93    O95     1.397   .     S
C93    O94     1.223   .     D
O95    H96     1.014   .     S
C97    O98     1.223   .     D
C97    O99     1.397   .     S
O99    H100    1.014   .     S
C101   O102    1.223   .     D
C101   O103    1.398   .     S
O103   H104    1.014   .     S
C105   O106    1.223   .     D
C105   O107    1.398   .     S
O107   H108    1.014   .     S
O109   C113    1.262   .     A
O109   Zn121   1.951   .     S
O110   C114    1.262   .     A
O110   Zn122   1.951   .     S
O111   Zn121   1.950   .     S
O111   C114    1.262   .     A
O112   Zn122   1.950   .     S
O112   C113    1.262   .     A
C113   C141    1.363   .     S
C114   C142    1.363   .     S
O115   C119    1.272   .     A
O115   Zn121   2.022   .     S
O116   C120    1.272   .     A
O116   Zn122   2.022   .     S
O117   C120    1.270   .     A
O117   Zn121   2.024   .     S
O118   C119    1.270   .     A
O118   Zn122   2.024   .     S
C119   C130    1.435   .     S
C120   C129    1.435   .     S
Zn121  N124    1.976   .     S
Zn122  N123    1.976   .     S
N123   N772    1.195   1_554 S
N124   N447    1.195   .     S
C125   C133    1.399   .     A
C125   C147    1.488   .     S
C125   C129    1.405   .     A
C126   C134    1.399   .     A
C126   C151    1.488   .     S
C126   C130    1.405   .     A
C127   C131    1.400   .     A
C127   C129    1.406   .     A
C127   C155    1.489   .     S
C128   C130    1.406   .     A
C128   C159    1.489   .     S
C128   C132    1.400   .     A
C131   C137    1.403   .     A
C131   C135    1.418   .     A
C132   C138    1.403   .     A
C132   C136    1.418   .     A
C133   C139    1.403   .     A
C133   C135    1.417   .     A
C134   C140    1.403   .     A
C134   C136    1.417   .     A
C135   C190    1.408   .     S
C136   C189    1.408   1_455 S
C137   H143    1.082   .     S
C137   C194    1.379   .     S
C138   H144    1.081   .     S
C138   C193    1.379   1_455 S
C139   H145    1.082   .     S
C139   C192    1.379   .     S
C140   H146    1.082   .     S
C140   C191    1.379   1_455 S
C142   C249    1.163   .     S
C147   O149    1.397   .     S
C147   O148    1.223   .     D
O149   H150    1.014   .     S
C151   O152    1.223   .     D
C151   O153    1.397   .     S
O153   H154    1.014   .     S
C155   O156    1.223   .     D
C155   O157    1.398   .     S
O157   H158    1.014   .     S
C159   O160    1.223   .     D
C159   O161    1.398   .     S
O161   H162    1.014   .     S
O163   C167    1.262   .     A
O163   Zn175   1.951   .     S
O164   C168    1.262   .     A
O164   Zn176   1.951   .     S
O165   Zn175   1.950   .     S
O165   C168    1.262   .     A
O166   Zn176   1.950   .     S
O166   C167    1.262   .     A
C167   C195    1.363   .     S
C168   C196    1.363   .     S
O169   C173    1.272   .     A
O169   Zn175   2.022   .     S
O170   C174    1.272   .     A
O170   Zn176   2.022   .     S
O171   C174    1.270   .     A
O171   Zn175   2.024   .     S
O172   C173    1.270   .     A
O172   Zn176   2.024   .     S
C173   C184    1.435   .     S
C174   C183    1.435   .     S
Zn175  N178    1.976   .     S
Zn176  N177    1.976   .     S
N177   N826    1.195   1_554 S
N178   N501    1.195   .     S
C179   C187    1.399   .     A
C179   C201    1.488   .     S
C179   C183    1.405   .     A
C180   C188    1.399   .     A
C180   C205    1.488   .     S
C180   C184    1.405   .     A
C181   C185    1.400   .     A
C181   C183    1.406   .     A
C181   C209    1.489   .     S
C182   C184    1.406   .     A
C182   C213    1.489   .     S
C182   C186    1.400   .     A
C185   C191    1.403   .     A
C185   C189    1.418   .     A
C186   C192    1.403   .     A
C186   C190    1.418   .     A
C187   C193    1.403   .     A
C187   C189    1.417   .     A
C188   C194    1.403   .     A
C188   C190    1.417   .     A
C189   C136    1.408   1_655 S
C191   H197    1.082   .     S
C191   C140    1.379   1_655 S
C192   H198    1.081   .     S
C193   H199    1.082   .     S
C193   C138    1.379   1_655 S
C194   H200    1.082   .     S
C196   C303    1.163   .     S
C201   O203    1.397   .     S
C201   O202    1.223   .     D
O203   H204    1.014   .     S
C205   O206    1.223   .     D
C205   O207    1.397   .     S
O207   H208    1.014   .     S
C209   O210    1.223   .     D
C209   O211    1.398   .     S
O211   H212    1.014   .     S
C213   O214    1.223   .     D
C213   O215    1.398   .     S
O215   H216    1.014   .     S
O217   C221    1.262   .     A
O217   Zn229   1.951   .     S
O218   C222    1.262   .     A
O218   Zn230   1.951   .     S
O219   Zn229   1.950   .     S
O219   C222    1.262   .     A
O220   Zn230   1.950   .     S
O220   C221    1.262   .     A
C221   C249    1.363   .     S
C222   C250    1.363   .     S
O223   C227    1.272   .     A
O223   Zn229   2.022   .     S
O224   C228    1.272   .     A
O224   Zn230   2.022   .     S
O225   C228    1.270   .     A
O225   Zn229   2.024   .     S
O226   C227    1.270   .     A
O226   Zn230   2.024   .     S
C227   C238    1.435   .     S
C228   C237    1.435   .     S
Zn229  N232    1.976   .     S
Zn230  N231    1.976   .     S
N231   N880    1.195   1_554 S
N232   N555    1.195   .     S
C233   C241    1.399   .     A
C233   C255    1.488   .     S
C233   C237    1.405   .     A
C234   C242    1.399   .     A
C234   C259    1.488   .     S
C234   C238    1.405   .     A
C235   C239    1.400   .     A
C235   C237    1.406   .     A
C235   C263    1.489   .     S
C236   C238    1.406   .     A
C236   C267    1.489   .     S
C236   C240    1.400   .     A
C239   C245    1.403   .     A
C239   C243    1.418   .     A
C240   C246    1.403   .     A
C240   C244    1.418   .     A
C241   C247    1.403   .     A
C241   C243    1.417   .     A
C242   C248    1.403   .     A
C242   C244    1.417   .     A
C243   C298    1.408   .     S
C244   C297    1.408   1_455 S
C245   H251    1.082   .     S
C245   C302    1.379   .     S
C246   H252    1.081   .     S
C246   C301    1.379   1_455 S
C247   H253    1.082   .     S
C247   C300    1.379   .     S
C248   H254    1.082   .     S
C248   C299    1.379   1_455 S
C250   C33     1.163   1_565 S
C255   O257    1.397   .     S
C255   O256    1.223   .     D
O257   H258    1.014   .     S
C259   O260    1.223   .     D
C259   O261    1.397   .     S
O261   H262    1.014   .     S
C263   O264    1.223   .     D
C263   O265    1.398   .     S
O265   H266    1.014   .     S
C267   O268    1.223   .     D
C267   O269    1.398   .     S
O269   H270    1.014   .     S
O271   C275    1.262   .     A
O271   Zn283   1.951   .     S
O272   C276    1.262   .     A
O272   Zn284   1.951   .     S
O273   Zn283   1.950   .     S
O273   C276    1.262   .     A
O274   Zn284   1.950   .     S
O274   C275    1.262   .     A
C275   C303    1.363   .     S
C276   C304    1.363   .     S
O277   C281    1.272   .     A
O277   Zn283   2.022   .     S
O278   C282    1.272   .     A
O278   Zn284   2.022   .     S
O279   C282    1.270   .     A
O279   Zn283   2.024   .     S
O280   C281    1.270   .     A
O280   Zn284   2.024   .     S
C281   C292    1.435   .     S
C282   C291    1.435   .     S
Zn283  N286    1.976   .     S
Zn284  N285    1.976   .     S
N285   N934    1.195   1_554 S
N286   N609    1.195   .     S
C287   C295    1.399   .     A
C287   C309    1.488   .     S
C287   C291    1.405   .     A
C288   C296    1.399   .     A
C288   C313    1.488   .     S
C288   C292    1.405   .     A
C289   C293    1.400   .     A
C289   C291    1.406   .     A
C289   C317    1.489   .     S
C290   C292    1.406   .     A
C290   C321    1.489   .     S
C290   C294    1.400   .     A
C293   C299    1.403   .     A
C293   C297    1.418   .     A
C294   C300    1.403   .     A
C294   C298    1.418   .     A
C295   C301    1.403   .     A
C295   C297    1.417   .     A
C296   C302    1.403   .     A
C296   C298    1.417   .     A
C297   C244    1.408   1_655 S
C299   H305    1.082   .     S
C299   C248    1.379   1_655 S
C300   H306    1.081   .     S
C301   H307    1.082   .     S
C301   C246    1.379   1_655 S
C302   H308    1.082   .     S
C304   C87     1.163   1_565 S
C309   O311    1.397   .     S
C309   O310    1.223   .     D
O311   H312    1.014   .     S
C313   O314    1.223   .     D
C313   O315    1.397   .     S
O315   H316    1.014   .     S
C317   O318    1.223   .     D
C317   O319    1.398   .     S
O319   H320    1.014   .     S
C321   O322    1.223   .     D
C321   O323    1.398   .     S
O323   H324    1.014   .     S
O325   C329    1.262   .     A
O325   Zn337   1.951   .     S
O326   C330    1.262   .     A
O326   Zn338   1.951   .     S
O327   Zn337   1.950   .     S
O327   C330    1.262   .     A
O328   Zn338   1.950   .     S
O328   C329    1.262   .     A
C329   C357    1.363   .     S
C330   C358    1.363   .     S
O331   C335    1.272   .     A
O331   Zn337   2.022   .     S
O332   C336    1.272   .     A
O332   Zn338   2.022   .     S
O333   C336    1.270   .     A
O333   Zn337   2.024   .     S
O334   C335    1.270   .     A
O334   Zn338   2.024   .     S
C335   C346    1.435   .     S
C336   C345    1.435   .     S
Zn337  N340    1.976   .     S
Zn338  N339    1.976   .     S
N340   N663    1.195   .     S
C341   C349    1.399   .     A
C341   C363    1.488   .     S
C341   C345    1.405   .     A
C342   C350    1.399   .     A
C342   C367    1.488   .     S
C342   C346    1.405   .     A
C343   C347    1.400   .     A
C343   C345    1.406   .     A
C343   C371    1.489   .     S
C344   C346    1.406   .     A
C344   C375    1.489   .     S
C344   C348    1.400   .     A
C347   C353    1.403   .     A
C347   C351    1.418   .     A
C348   C354    1.403   .     A
C348   C352    1.418   .     A
C349   C355    1.403   .     A
C349   C351    1.417   .     A
C350   C356    1.403   .     A
C350   C352    1.417   .     A
C351   C406    1.408   .     S
C352   C405    1.408   1_455 S
C353   H359    1.082   .     S
C353   C410    1.379   .     S
C354   H360    1.081   .     S
C354   C409    1.379   1_455 S
C355   H361    1.082   .     S
C355   C408    1.379   .     S
C356   H362    1.082   .     S
C356   C407    1.379   1_455 S
C357   C574    1.163   1_545 S
C358   C465    1.163   .     S
C363   O365    1.397   .     S
C363   O364    1.223   .     D
O365   H366    1.014   .     S
C367   O368    1.223   .     D
C367   O369    1.397   .     S
O369   H370    1.014   .     S
C371   O372    1.223   .     D
C371   O373    1.398   .     S
O373   H374    1.014   .     S
C375   O376    1.223   .     D
C375   O377    1.398   .     S
O377   H378    1.014   .     S
O379   C383    1.262   .     A
O379   Zn391   1.951   .     S
O380   C384    1.262   .     A
O380   Zn392   1.951   .     S
O381   Zn391   1.950   .     S
O381   C384    1.262   .     A
O382   Zn392   1.950   .     S
O382   C383    1.262   .     A
C383   C411    1.363   .     S
C384   C412    1.363   .     S
O385   C389    1.272   .     A
O385   Zn391   2.022   .     S
O386   C390    1.272   .     A
O386   Zn392   2.022   .     S
O387   C390    1.270   .     A
O387   Zn391   2.024   .     S
O388   C389    1.270   .     A
O388   Zn392   2.024   .     S
C389   C400    1.435   .     S
C390   C399    1.435   .     S
Zn391  N394    1.976   .     S
Zn392  N393    1.976   .     S
N394   N717    1.195   .     S
C395   C403    1.399   .     A
C395   C417    1.488   .     S
C395   C399    1.405   .     A
C396   C404    1.399   .     A
C396   C421    1.488   .     S
C396   C400    1.405   .     A
C397   C401    1.400   .     A
C397   C399    1.406   .     A
C397   C425    1.489   .     S
C398   C400    1.406   .     A
C398   C429    1.489   .     S
C398   C402    1.400   .     A
C401   C407    1.403   .     A
C401   C405    1.418   .     A
C402   C408    1.403   .     A
C402   C406    1.418   .     A
C403   C409    1.403   .     A
C403   C405    1.417   .     A
C404   C410    1.403   .     A
C404   C406    1.417   .     A
C405   C352    1.408   1_655 S
C407   H413    1.082   .     S
C407   C356    1.379   1_655 S
C408   H414    1.081   .     S
C409   H415    1.082   .     S
C409   C354    1.379   1_655 S
C410   H416    1.082   .     S
C411   C628    1.163   1_545 S
C412   C519    1.163   .     S
C417   O419    1.397   .     S
C417   O418    1.223   .     D
O419   H420    1.014   .     S
C421   O422    1.223   .     D
C421   O423    1.397   .     S
O423   H424    1.014   .     S
C425   O426    1.223   .     D
C425   O427    1.398   .     S
O427   H428    1.014   .     S
C429   O430    1.223   .     D
C429   O431    1.398   .     S
O431   H432    1.014   .     S
O433   C437    1.262   .     A
O433   Zn445   1.951   .     S
O434   C438    1.262   .     A
O434   Zn446   1.951   .     S
O435   Zn445   1.950   .     S
O435   C438    1.262   .     A
O436   Zn446   1.950   .     S
O436   C437    1.262   .     A
C437   C465    1.363   .     S
C438   C466    1.363   .     S
O439   C443    1.272   .     A
O439   Zn445   2.022   .     S
O440   C444    1.272   .     A
O440   Zn446   2.022   .     S
O441   C444    1.270   .     A
O441   Zn445   2.024   .     S
O442   C443    1.270   .     A
O442   Zn446   2.024   .     S
C443   C454    1.435   .     S
C444   C453    1.435   .     S
Zn445  N448    1.976   .     S
Zn446  N447    1.976   .     S
N448   N771    1.195   .     S
C449   C457    1.399   .     A
C449   C471    1.488   .     S
C449   C453    1.405   .     A
C450   C458    1.399   .     A
C450   C475    1.488   .     S
C450   C454    1.405   .     A
C451   C455    1.400   .     A
C451   C453    1.406   .     A
C451   C479    1.489   .     S
C452   C454    1.406   .     A
C452   C483    1.489   .     S
C452   C456    1.400   .     A
C455   C461    1.403   .     A
C455   C459    1.418   .     A
C456   C462    1.403   .     A
C456   C460    1.418   .     A
C457   C463    1.403   .     A
C457   C459    1.417   .     A
C458   C464    1.403   .     A
C458   C460    1.417   .     A
C459   C514    1.408   .     S
C460   C513    1.408   1_455 S
C461   H467    1.082   .     S
C461   C518    1.379   .     S
C462   H468    1.081   .     S
C462   C517    1.379   1_455 S
C463   H469    1.082   .     S
C463   C516    1.379   .     S
C464   H470    1.082   .     S
C464   C515    1.379   1_455 S
C466   C573    1.163   .     S
C471   O473    1.397   .     S
C471   O472    1.223   .     D
O473   H474    1.014   .     S
C475   O476    1.223   .     D
C475   O477    1.397   .     S
O477   H478    1.014   .     S
C479   O480    1.223   .     D
C479   O481    1.398   .     S
O481   H482    1.014   .     S
C483   O484    1.223   .     D
C483   O485    1.398   .     S
O485   H486    1.014   .     S
O487   C491    1.262   .     A
O487   Zn499   1.951   .     S
O488   C492    1.262   .     A
O488   Zn500   1.951   .     S
O489   Zn499   1.950   .     S
O489   C492    1.262   .     A
O490   Zn500   1.950   .     S
O490   C491    1.262   .     A
C491   C519    1.363   .     S
C492   C520    1.363   .     S
O493   C497    1.272   .     A
O493   Zn499   2.022   .     S
O494   C498    1.272   .     A
O494   Zn500   2.022   .     S
O495   C498    1.270   .     A
O495   Zn499   2.024   .     S
O496   C497    1.270   .     A
O496   Zn500   2.024   .     S
C497   C508    1.435   .     S
C498   C507    1.435   .     S
Zn499  N502    1.976   .     S
Zn500  N501    1.976   .     S
N502   N825    1.195   .     S
C503   C511    1.399   .     A
C503   C525    1.488   .     S
C503   C507    1.405   .     A
C504   C512    1.399   .     A
C504   C529    1.488   .     S
C504   C508    1.405   .     A
C505   C509    1.400   .     A
C505   C507    1.406   .     A
C505   C533    1.489   .     S
C506   C508    1.406   .     A
C506   C537    1.489   .     S
C506   C510    1.400   .     A
C509   C515    1.403   .     A
C509   C513    1.418   .     A
C510   C516    1.403   .     A
C510   C514    1.418   .     A
C511   C517    1.403   .     A
C511   C513    1.417   .     A
C512   C518    1.403   .     A
C512   C514    1.417   .     A
C513   C460    1.408   1_655 S
C515   H521    1.082   .     S
C515   C464    1.379   1_655 S
C516   H522    1.081   .     S
C517   H523    1.082   .     S
C517   C462    1.379   1_655 S
C518   H524    1.082   .     S
C520   C627    1.163   .     S
C525   O527    1.397   .     S
C525   O526    1.223   .     D
O527   H528    1.014   .     S
C529   O530    1.223   .     D
C529   O531    1.397   .     S
O531   H532    1.014   .     S
C533   O534    1.223   .     D
C533   O535    1.398   .     S
O535   H536    1.014   .     S
C537   O538    1.223   .     D
C537   O539    1.398   .     S
O539   H540    1.014   .     S
O541   C545    1.262   .     A
O541   Zn553   1.951   .     S
O542   C546    1.262   .     A
O542   Zn554   1.951   .     S
O543   Zn553   1.950   .     S
O543   C546    1.262   .     A
O544   Zn554   1.950   .     S
O544   C545    1.262   .     A
C545   C573    1.363   .     S
C546   C574    1.363   .     S
O547   C551    1.272   .     A
O547   Zn553   2.022   .     S
O548   C552    1.272   .     A
O548   Zn554   2.022   .     S
O549   C552    1.270   .     A
O549   Zn553   2.024   .     S
O550   C551    1.270   .     A
O550   Zn554   2.024   .     S
C551   C562    1.435   .     S
C552   C561    1.435   .     S
Zn553  N556    1.976   .     S
Zn554  N555    1.976   .     S
N556   N879    1.195   .     S
C557   C565    1.399   .     A
C557   C579    1.488   .     S
C557   C561    1.405   .     A
C558   C566    1.399   .     A
C558   C583    1.488   .     S
C558   C562    1.405   .     A
C559   C563    1.400   .     A
C559   C561    1.406   .     A
C559   C587    1.489   .     S
C560   C562    1.406   .     A
C560   C591    1.489   .     S
C560   C564    1.400   .     A
C563   C569    1.403   .     A
C563   C567    1.418   .     A
C564   C570    1.403   .     A
C564   C568    1.418   .     A
C565   C571    1.403   .     A
C565   C567    1.417   .     A
C566   C572    1.403   .     A
C566   C568    1.417   .     A
C567   C622    1.408   .     S
C568   C621    1.408   1_455 S
C569   H575    1.082   .     S
C569   C626    1.379   .     S
C570   H576    1.081   .     S
C570   C625    1.379   1_455 S
C571   H577    1.082   .     S
C571   C624    1.379   .     S
C572   H578    1.082   .     S
C572   C623    1.379   1_455 S
C574   C357    1.163   1_565 S
C579   O581    1.397   .     S
C579   O580    1.223   .     D
O581   H582    1.014   .     S
C583   O584    1.223   .     D
C583   O585    1.397   .     S
O585   H586    1.014   .     S
C587   O588    1.223   .     D
C587   O589    1.398   .     S
O589   H590    1.014   .     S
C591   O592    1.223   .     D
C591   O593    1.398   .     S
O593   H594    1.014   .     S
O595   C599    1.262   .     A
O595   Zn607   1.951   .     S
O596   C600    1.262   .     A
O596   Zn608   1.951   .     S
O597   Zn607   1.950   .     S
O597   C600    1.262   .     A
O598   Zn608   1.950   .     S
O598   C599    1.262   .     A
C599   C627    1.363   .     S
C600   C628    1.363   .     S
O601   C605    1.272   .     A
O601   Zn607   2.022   .     S
O602   C606    1.272   .     A
O602   Zn608   2.022   .     S
O603   C606    1.270   .     A
O603   Zn607   2.024   .     S
O604   C605    1.270   .     A
O604   Zn608   2.024   .     S
C605   C616    1.435   .     S
C606   C615    1.435   .     S
Zn607  N610    1.976   .     S
Zn608  N609    1.976   .     S
N610   N933    1.195   .     S
C611   C619    1.399   .     A
C611   C633    1.488   .     S
C611   C615    1.405   .     A
C612   C620    1.399   .     A
C612   C637    1.488   .     S
C612   C616    1.405   .     A
C613   C617    1.400   .     A
C613   C615    1.406   .     A
C613   C641    1.489   .     S
C614   C616    1.406   .     A
C614   C645    1.489   .     S
C614   C618    1.400   .     A
C617   C623    1.403   .     A
C617   C621    1.418   .     A
C618   C624    1.403   .     A
C618   C622    1.418   .     A
C619   C625    1.403   .     A
C619   C621    1.417   .     A
C620   C626    1.403   .     A
C620   C622    1.417   .     A
C621   C568    1.408   1_655 S
C623   H629    1.082   .     S
C623   C572    1.379   1_655 S
C624   H630    1.081   .     S
C625   H631    1.082   .     S
C625   C570    1.379   1_655 S
C626   H632    1.082   .     S
C628   C411    1.163   1_565 S
C633   O635    1.397   .     S
C633   O634    1.223   .     D
O635   H636    1.014   .     S
C637   O638    1.223   .     D
C637   O639    1.397   .     S
O639   H640    1.014   .     S
C641   O642    1.223   .     D
C641   O643    1.398   .     S
O643   H644    1.014   .     S
C645   O646    1.223   .     D
C645   O647    1.398   .     S
O647   H648    1.014   .     S
O649   C653    1.262   .     A
O649   Zn661   1.951   .     S
O650   C654    1.262   .     A
O650   Zn662   1.951   .     S
O651   Zn661   1.950   .     S
O651   C654    1.262   .     A
O652   Zn662   1.950   .     S
O652   C653    1.262   .     A
C653   C681    1.363   .     S
C654   C682    1.363   .     S
O655   C659    1.272   .     A
O655   Zn661   2.022   .     S
O656   C660    1.272   .     A
O656   Zn662   2.022   .     S
O657   C660    1.270   .     A
O657   Zn661   2.024   .     S
O658   C659    1.270   .     A
O658   Zn662   2.024   .     S
C659   C670    1.435   .     S
C660   C669    1.435   .     S
Zn661  N664    1.976   .     S
Zn662  N663    1.976   .     S
N664   N15     1.195   1_556 S
C665   C673    1.399   .     A
C665   C687    1.488   .     S
C665   C669    1.405   .     A
C666   C674    1.399   .     A
C666   C691    1.488   .     S
C666   C670    1.405   .     A
C667   C671    1.400   .     A
C667   C669    1.406   .     A
C667   C695    1.489   .     S
C668   C670    1.406   .     A
C668   C699    1.489   .     S
C668   C672    1.400   .     A
C671   C677    1.403   .     A
C671   C675    1.418   .     A
C672   C678    1.403   .     A
C672   C676    1.418   .     A
C673   C679    1.403   .     A
C673   C675    1.417   .     A
C674   C680    1.403   .     A
C674   C676    1.417   .     A
C675   C730    1.408   .     S
C676   C729    1.408   1_455 S
C677   H683    1.082   .     S
C677   C734    1.379   .     S
C678   H684    1.081   .     S
C678   C733    1.379   1_455 S
C679   H685    1.082   .     S
C679   C732    1.379   .     S
C680   H686    1.082   .     S
C680   C731    1.379   1_455 S
C681   C898    1.163   1_545 S
C682   C789    1.163   .     S
C687   O689    1.397   .     S
C687   O688    1.223   .     D
O689   H690    1.014   .     S
C691   O692    1.223   .     D
C691   O693    1.397   .     S
O693   H694    1.014   .     S
C695   O696    1.223   .     D
C695   O697    1.398   .     S
O697   H698    1.014   .     S
C699   O700    1.223   .     D
C699   O701    1.398   .     S
O701   H702    1.014   .     S
O703   C707    1.262   .     A
O703   Zn715   1.951   .     S
O704   C708    1.262   .     A
O704   Zn716   1.951   .     S
O705   Zn715   1.950   .     S
O705   C708    1.262   .     A
O706   Zn716   1.950   .     S
O706   C707    1.262   .     A
C707   C735    1.363   .     S
C708   C736    1.363   .     S
O709   C713    1.272   .     A
O709   Zn715   2.022   .     S
O710   C714    1.272   .     A
O710   Zn716   2.022   .     S
O711   C714    1.270   .     A
O711   Zn715   2.024   .     S
O712   C713    1.270   .     A
O712   Zn716   2.024   .     S
C713   C724    1.435   .     S
C714   C723    1.435   .     S
Zn715  N718    1.976   .     S
Zn716  N717    1.976   .     S
N718   N69     1.195   1_556 S
C719   C727    1.399   .     A
C719   C741    1.488   .     S
C719   C723    1.405   .     A
C720   C728    1.399   .     A
C720   C745    1.488   .     S
C720   C724    1.405   .     A
C721   C725    1.400   .     A
C721   C723    1.406   .     A
C721   C749    1.489   .     S
C722   C724    1.406   .     A
C722   C753    1.489   .     S
C722   C726    1.400   .     A
C725   C731    1.403   .     A
C725   C729    1.418   .     A
C726   C732    1.403   .     A
C726   C730    1.418   .     A
C727   C733    1.403   .     A
C727   C729    1.417   .     A
C728   C734    1.403   .     A
C728   C730    1.417   .     A
C729   C676    1.408   1_655 S
C731   H737    1.082   .     S
C731   C680    1.379   1_655 S
C732   H738    1.081   .     S
C733   H739    1.082   .     S
C733   C678    1.379   1_655 S
C734   H740    1.082   .     S
C735   C952    1.163   1_545 S
C736   C843    1.163   .     S
C741   O743    1.397   .     S
C741   O742    1.223   .     D
O743   H744    1.014   .     S
C745   O746    1.223   .     D
C745   O747    1.397   .     S
O747   H748    1.014   .     S
C749   O750    1.223   .     D
C749   O751    1.398   .     S
O751   H752    1.014   .     S
C753   O754    1.223   .     D
C753   O755    1.398   .     S
O755   H756    1.014   .     S
O757   C761    1.262   .     A
O757   Zn769   1.951   .     S
O758   C762    1.262   .     A
O758   Zn770   1.951   .     S
O759   Zn769   1.950   .     S
O759   C762    1.262   .     A
O760   Zn770   1.950   .     S
O760   C761    1.262   .     A
C761   C789    1.363   .     S
C762   C790    1.363   .     S
O763   C767    1.272   .     A
O763   Zn769   2.022   .     S
O764   C768    1.272   .     A
O764   Zn770   2.022   .     S
O765   C768    1.270   .     A
O765   Zn769   2.024   .     S
O766   C767    1.270   .     A
O766   Zn770   2.024   .     S
C767   C778    1.435   .     S
C768   C777    1.435   .     S
Zn769  N772    1.976   .     S
Zn770  N771    1.976   .     S
N772   N123    1.195   1_556 S
C773   C781    1.399   .     A
C773   C795    1.488   .     S
C773   C777    1.405   .     A
C774   C782    1.399   .     A
C774   C799    1.488   .     S
C774   C778    1.405   .     A
C775   C779    1.400   .     A
C775   C777    1.406   .     A
C775   C803    1.489   .     S
C776   C778    1.406   .     A
C776   C807    1.489   .     S
C776   C780    1.400   .     A
C779   C785    1.403   .     A
C779   C783    1.418   .     A
C780   C786    1.403   .     A
C780   C784    1.418   .     A
C781   C787    1.403   .     A
C781   C783    1.417   .     A
C782   C788    1.403   .     A
C782   C784    1.417   .     A
C783   C838    1.408   .     S
C784   C837    1.408   1_455 S
C785   H791    1.082   .     S
C785   C842    1.379   .     S
C786   H792    1.081   .     S
C786   C841    1.379   1_455 S
C787   H793    1.082   .     S
C787   C840    1.379   .     S
C788   H794    1.082   .     S
C788   C839    1.379   1_455 S
C790   C897    1.163   .     S
C795   O797    1.397   .     S
C795   O796    1.223   .     D
O797   H798    1.014   .     S
C799   O800    1.223   .     D
C799   O801    1.397   .     S
O801   H802    1.014   .     S
C803   O804    1.223   .     D
C803   O805    1.398   .     S
O805   H806    1.014   .     S
C807   O808    1.223   .     D
C807   O809    1.398   .     S
O809   H810    1.014   .     S
O811   C815    1.262   .     A
O811   Zn823   1.951   .     S
O812   C816    1.262   .     A
O812   Zn824   1.951   .     S
O813   Zn823   1.950   .     S
O813   C816    1.262   .     A
O814   Zn824   1.950   .     S
O814   C815    1.262   .     A
C815   C843    1.363   .     S
C816   C844    1.363   .     S
O817   C821    1.272   .     A
O817   Zn823   2.022   .     S
O818   C822    1.272   .     A
O818   Zn824   2.022   .     S
O819   C822    1.270   .     A
O819   Zn823   2.024   .     S
O820   C821    1.270   .     A
O820   Zn824   2.024   .     S
C821   C832    1.435   .     S
C822   C831    1.435   .     S
Zn823  N826    1.976   .     S
Zn824  N825    1.976   .     S
N826   N177    1.195   1_556 S
C827   C835    1.399   .     A
C827   C849    1.488   .     S
C827   C831    1.405   .     A
C828   C836    1.399   .     A
C828   C853    1.488   .     S
C828   C832    1.405   .     A
C829   C833    1.400   .     A
C829   C831    1.406   .     A
C829   C857    1.489   .     S
C830   C832    1.406   .     A
C830   C861    1.489   .     S
C830   C834    1.400   .     A
C833   C839    1.403   .     A
C833   C837    1.418   .     A
C834   C840    1.403   .     A
C834   C838    1.418   .     A
C835   C841    1.403   .     A
C835   C837    1.417   .     A
C836   C842    1.403   .     A
C836   C838    1.417   .     A
C837   C784    1.408   1_655 S
C839   H845    1.082   .     S
C839   C788    1.379   1_655 S
C840   H846    1.081   .     S
C841   H847    1.082   .     S
C841   C786    1.379   1_655 S
C842   H848    1.082   .     S
C844   C951    1.163   .     S
C849   O851    1.397   .     S
C849   O850    1.223   .     D
O851   H852    1.014   .     S
C853   O854    1.223   .     D
C853   O855    1.397   .     S
O855   H856    1.014   .     S
C857   O858    1.223   .     D
C857   O859    1.398   .     S
O859   H860    1.014   .     S
C861   O862    1.223   .     D
C861   O863    1.398   .     S
O863   H864    1.014   .     S
O865   C869    1.262   .     A
O865   Zn877   1.951   .     S
O866   C870    1.262   .     A
O866   Zn878   1.951   .     S
O867   Zn877   1.950   .     S
O867   C870    1.262   .     A
O868   Zn878   1.950   .     S
O868   C869    1.262   .     A
C869   C897    1.363   .     S
C870   C898    1.363   .     S
O871   C875    1.272   .     A
O871   Zn877   2.022   .     S
O872   C876    1.272   .     A
O872   Zn878   2.022   .     S
O873   C876    1.270   .     A
O873   Zn877   2.024   .     S
O874   C875    1.270   .     A
O874   Zn878   2.024   .     S
C875   C886    1.435   .     S
C876   C885    1.435   .     S
Zn877  N880    1.976   .     S
Zn878  N879    1.976   .     S
N880   N231    1.195   1_556 S
C881   C889    1.399   .     A
C881   C903    1.488   .     S
C881   C885    1.405   .     A
C882   C890    1.399   .     A
C882   C907    1.488   .     S
C882   C886    1.405   .     A
C883   C887    1.400   .     A
C883   C885    1.406   .     A
C883   C911    1.489   .     S
C884   C886    1.406   .     A
C884   C915    1.489   .     S
C884   C888    1.400   .     A
C887   C893    1.403   .     A
C887   C891    1.418   .     A
C888   C894    1.403   .     A
C888   C892    1.418   .     A
C889   C895    1.403   .     A
C889   C891    1.417   .     A
C890   C896    1.403   .     A
C890   C892    1.417   .     A
C891   C946    1.408   .     S
C892   C945    1.408   1_455 S
C893   H899    1.082   .     S
C893   C950    1.379   .     S
C894   H900    1.081   .     S
C894   C949    1.379   1_455 S
C895   H901    1.082   .     S
C895   C948    1.379   .     S
C896   H902    1.082   .     S
C896   C947    1.379   1_455 S
C898   C681    1.163   1_565 S
C903   O905    1.397   .     S
C903   O904    1.223   .     D
O905   H906    1.014   .     S
C907   O908    1.223   .     D
C907   O909    1.397   .     S
O909   H910    1.014   .     S
C911   O912    1.223   .     D
C911   O913    1.398   .     S
O913   H914    1.014   .     S
C915   O916    1.223   .     D
C915   O917    1.398   .     S
O917   H918    1.014   .     S
O919   C923    1.262   .     A
O919   Zn931   1.951   .     S
O920   C924    1.262   .     A
O920   Zn932   1.951   .     S
O921   Zn931   1.950   .     S
O921   C924    1.262   .     A
O922   Zn932   1.950   .     S
O922   C923    1.262   .     A
C923   C951    1.363   .     S
C924   C952    1.363   .     S
O925   C929    1.272   .     A
O925   Zn931   2.022   .     S
O926   C930    1.272   .     A
O926   Zn932   2.022   .     S
O927   C930    1.270   .     A
O927   Zn931   2.024   .     S
O928   C929    1.270   .     A
O928   Zn932   2.024   .     S
C929   C940    1.435   .     S
C930   C939    1.435   .     S
Zn931  N934    1.976   .     S
Zn932  N933    1.976   .     S
N934   N285    1.195   1_556 S
C935   C943    1.399   .     A
C935   C957    1.488   .     S
C935   C939    1.405   .     A
C936   C944    1.399   .     A
C936   C961    1.488   .     S
C936   C940    1.405   .     A
C937   C941    1.400   .     A
C937   C939    1.406   .     A
C937   C965    1.489   .     S
C938   C940    1.406   .     A
C938   C969    1.489   .     S
C938   C942    1.400   .     A
C941   C947    1.403   .     A
C941   C945    1.418   .     A
C942   C948    1.403   .     A
C942   C946    1.418   .     A
C943   C949    1.403   .     A
C943   C945    1.417   .     A
C944   C950    1.403   .     A
C944   C946    1.417   .     A
C945   C892    1.408   1_655 S
C947   H953    1.082   .     S
C947   C896    1.379   1_655 S
C948   H954    1.081   .     S
C949   H955    1.082   .     S
C949   C894    1.379   1_655 S
C950   H956    1.082   .     S
C952   C735    1.163   1_565 S
C957   O959    1.397   .     S
C957   O958    1.223   .     D
O959   H960    1.014   .     S
C961   O962    1.223   .     D
C961   O963    1.397   .     S
O963   H964    1.014   .     S
C965   O966    1.223   .     D
C965   O967    1.398   .     S
O967   H968    1.014   .     S
C969   O970    1.223   .     D
C969   O971    1.398   .     S
O971   H972    1.014   .     S
