data_str_m3_o10_o18_pcu_sym.59
_audit_creation_date              2020-01-03
_audit_creation_method            'Materials Studio'
_symmetry_space_group_name_H-M    'P1'
_symmetry_Int_Tables_number       1
_symmetry_cell_setting            triclinic
loop_
_symmetry_equiv_pos_as_xyz
  x,y,z
_cell_length_a                    23.4696
_cell_length_b                    25.7045
_cell_length_c                    27.4126
_cell_angle_alpha                 93.0197
_cell_angle_beta                  93.8259
_cell_angle_gamma                 94.1204
loop_
_atom_site_label
_atom_site_type_symbol
_atom_site_fract_x
_atom_site_fract_y
_atom_site_fract_z
_atom_site_U_iso_or_equiv
_atom_site_adp_type
_atom_site_occupancy
C1     C     0.01504   0.26490   0.24875   0.00000  Uiso   1.00
C2     C     0.31166   0.16175   0.15887   0.00000  Uiso   1.00
C3     C     0.03014   0.16602   0.39450   0.00000  Uiso   1.00
C4     C     0.29742   0.14466   0.10797   0.00000  Uiso   1.00
C5     C     0.00575   0.19508   0.47522   0.00000  Uiso   1.00
C6     C     0.29158   0.07183   0.04792   0.00000  Uiso   1.00
C7     C     0.32669   0.19068   0.42495   0.00000  Uiso   1.00
C8     C     0.31934   0.09914   0.08895   0.00000  Uiso   1.00
C9     C     0.07583   0.13951   0.41475   0.00000  Uiso   1.00
C10    C     0.25005   0.16466   0.08443   0.00000  Uiso   1.00
C11    C     0.08695   0.14149   0.46635   0.00000  Uiso   1.00
C12    C     0.31827   0.06843   0.25116   0.00000  Uiso   1.00
C13    C     0.21579   0.13223   0.04921   0.00000  Uiso   1.00
C14    C     0.05440   0.17388   0.49561   0.00000  Uiso   1.00
C15    C     0.23894   0.08712   0.02876   0.00000  Uiso   1.00
C16    C     0.13441   0.11900   0.48930   0.00000  Uiso   1.00
C17    C     0.15942   0.14285   0.03378   0.00000  Uiso   1.00
C18    C     0.12556   0.17318   0.06291   0.00000  Uiso   1.00
C19    C     0.15671   0.07305   0.47077   0.00000  Uiso   1.00
C20    C     0.07277   0.18722   0.04438   0.00000  Uiso   1.00
C21    C     0.20817   0.05701   0.49065   0.00000  Uiso   1.00
C22    C     0.02288   0.31946   0.24800   0.00000  Uiso   1.00
C23    C     0.31042   0.01387   0.25178   0.00000  Uiso   1.00
C24    C     0.02118   0.16883   0.34132   0.00000  Uiso   1.00
H25    H     0.04812   0.21141   0.06729   0.00000  Uiso   1.00
H26    H     0.26727   0.33006   0.25536   0.00000  Uiso   1.00
H27    H     0.16231   0.12492   0.21376   0.00000  Uiso   1.00
H28    H     0.17102   0.20843   0.28621   0.00000  Uiso   1.00
H29    H     0.22128   0.23433   0.06249   0.00000  Uiso   1.00
H30    H     0.22034   0.22574   0.12407   0.00000  Uiso   1.00
H31    H     0.15722   0.12758   0.39376   0.00000  Uiso   1.00
H32    H     0.10451   0.07742   0.37555   0.00000  Uiso   1.00
H33    H     0.22419   0.02139   0.47582   0.00000  Uiso   1.00
H34    H     0.02289   0.08348   0.10713   0.00000  Uiso   1.00
H35    H     0.29046   0.20975   0.40963   0.00000  Uiso   1.00
H36    H     0.31259   0.21777   0.49779   0.00000  Uiso   1.00
H37    H     0.30914   0.03687   0.03332   0.00000  Uiso   1.00
H38    H     0.13837   0.18448   0.10070   0.00000  Uiso   1.00
H39    H     0.13334   0.04766   0.44267   0.00000  Uiso   1.00
H40    H     0.06603   0.00327   0.24440   0.00000  Uiso   1.00
N41    N     0.14695   0.15216   0.23740   0.00000  Uiso   1.00
N42    N     0.18638   0.18117   0.26261   0.00000  Uiso   1.00
N43    N     0.24260   0.21950   0.09283   0.00000  Uiso   1.00
N44    N     0.11437   0.11753   0.38203   0.00000  Uiso   1.00
O45    O     0.29719   0.24631   0.25310   0.00000  Uiso   1.00
O46    O     0.03614   0.08702   0.24691   0.00000  Uiso   1.00
O47    O     0.05822   0.23702   0.24502   0.00000  Uiso   1.00
O48    O     0.27512   0.09632   0.25499   0.00000  Uiso   1.00
O49    O     0.30328   0.17397   0.32247   0.00000  Uiso   1.00
O50    O     0.03005   0.15937   0.17753   0.00000  Uiso   1.00
O51    O     0.06431   0.16467   0.31439   0.00000  Uiso   1.00
O52    O     0.26902   0.16866   0.18561   0.00000  Uiso   1.00
Zn53   Zn    0.27033   0.17287   0.25540   0.00000  Uiso   1.00
Zn54   Zn    0.06300   0.16046   0.24461   0.00000  Uiso   1.00
C55    C     0.34838   0.26490   0.24875   0.00000  Uiso   1.00
C56    C     0.64499   0.16175   0.15887   0.00000  Uiso   1.00
C57    C     0.36348   0.16602   0.39450   0.00000  Uiso   1.00
C58    C     0.63075   0.14466   0.10797   0.00000  Uiso   1.00
C59    C     0.33908   0.19508   0.47522   0.00000  Uiso   1.00
C60    C     0.62491   0.07183   0.04792   0.00000  Uiso   1.00
C61    C     0.66002   0.19068   0.42495   0.00000  Uiso   1.00
C62    C     0.65267   0.09914   0.08895   0.00000  Uiso   1.00
C63    C     0.40917   0.13951   0.41475   0.00000  Uiso   1.00
C64    C     0.58339   0.16466   0.08443   0.00000  Uiso   1.00
C65    C     0.42029   0.14149   0.46635   0.00000  Uiso   1.00
C66    C     0.65160   0.06843   0.25116   0.00000  Uiso   1.00
C67    C     0.54912   0.13223   0.04921   0.00000  Uiso   1.00
C68    C     0.38774   0.17388   0.49561   0.00000  Uiso   1.00
C69    C     0.57227   0.08712   0.02876   0.00000  Uiso   1.00
C70    C     0.46774   0.11900   0.48930   0.00000  Uiso   1.00
C71    C     0.49275   0.14285   0.03378   0.00000  Uiso   1.00
C72    C     0.45889   0.17318   0.06291   0.00000  Uiso   1.00
C73    C     0.49004   0.07305   0.47077   0.00000  Uiso   1.00
C74    C     0.40610   0.18722   0.04438   0.00000  Uiso   1.00
C75    C     0.54151   0.05701   0.49065   0.00000  Uiso   1.00
C76    C     0.35621   0.31946   0.24800   0.00000  Uiso   1.00
C77    C     0.64375   0.01387   0.25178   0.00000  Uiso   1.00
C78    C     0.35452   0.16883   0.34132   0.00000  Uiso   1.00
H79    H     0.38145   0.21141   0.06729   0.00000  Uiso   1.00
H80    H     0.60060   0.33006   0.25536   0.00000  Uiso   1.00
H81    H     0.49564   0.12492   0.21376   0.00000  Uiso   1.00
H82    H     0.50435   0.20843   0.28621   0.00000  Uiso   1.00
H83    H     0.55462   0.23433   0.06249   0.00000  Uiso   1.00
H84    H     0.55367   0.22574   0.12407   0.00000  Uiso   1.00
H85    H     0.49055   0.12758   0.39376   0.00000  Uiso   1.00
H86    H     0.43785   0.07742   0.37555   0.00000  Uiso   1.00
H87    H     0.55752   0.02139   0.47582   0.00000  Uiso   1.00
H88    H     0.35623   0.08348   0.10713   0.00000  Uiso   1.00
H89    H     0.62379   0.20975   0.40963   0.00000  Uiso   1.00
H90    H     0.64592   0.21777   0.49779   0.00000  Uiso   1.00
H91    H     0.64247   0.03687   0.03332   0.00000  Uiso   1.00
H92    H     0.47170   0.18448   0.10070   0.00000  Uiso   1.00
H93    H     0.46667   0.04766   0.44267   0.00000  Uiso   1.00
H94    H     0.39936   0.00327   0.24440   0.00000  Uiso   1.00
N95    N     0.48029   0.15216   0.23740   0.00000  Uiso   1.00
N96    N     0.51971   0.18117   0.26261   0.00000  Uiso   1.00
N97    N     0.57593   0.21950   0.09283   0.00000  Uiso   1.00
N98    N     0.44771   0.11753   0.38203   0.00000  Uiso   1.00
O99    O     0.63052   0.24631   0.25310   0.00000  Uiso   1.00
O100   O     0.36948   0.08702   0.24691   0.00000  Uiso   1.00
O101   O     0.39155   0.23702   0.24502   0.00000  Uiso   1.00
O102   O     0.60845   0.09632   0.25499   0.00000  Uiso   1.00
O103   O     0.63662   0.17397   0.32247   0.00000  Uiso   1.00
O104   O     0.36338   0.15937   0.17753   0.00000  Uiso   1.00
O105   O     0.39764   0.16467   0.31439   0.00000  Uiso   1.00
O106   O     0.60236   0.16866   0.18561   0.00000  Uiso   1.00
Zn107  Zn    0.60366   0.17287   0.25540   0.00000  Uiso   1.00
Zn108  Zn    0.39634   0.16046   0.24461   0.00000  Uiso   1.00
C109   C     0.68171   0.26490   0.24875   0.00000  Uiso   1.00
C110   C     0.97832   0.16175   0.15887   0.00000  Uiso   1.00
C111   C     0.69681   0.16602   0.39450   0.00000  Uiso   1.00
C112   C     0.96409   0.14466   0.10797   0.00000  Uiso   1.00
C113   C     0.67241   0.19508   0.47522   0.00000  Uiso   1.00
C114   C     0.95825   0.07183   0.04792   0.00000  Uiso   1.00
C115   C     0.99335   0.19068   0.42495   0.00000  Uiso   1.00
C116   C     0.98600   0.09914   0.08895   0.00000  Uiso   1.00
C117   C     0.74250   0.13951   0.41475   0.00000  Uiso   1.00
C118   C     0.91672   0.16466   0.08443   0.00000  Uiso   1.00
C119   C     0.75362   0.14149   0.46635   0.00000  Uiso   1.00
C120   C     0.98494   0.06843   0.25116   0.00000  Uiso   1.00
C121   C     0.88245   0.13223   0.04921   0.00000  Uiso   1.00
C122   C     0.72107   0.17388   0.49561   0.00000  Uiso   1.00
C123   C     0.90561   0.08712   0.02876   0.00000  Uiso   1.00
C124   C     0.80107   0.11900   0.48930   0.00000  Uiso   1.00
C125   C     0.82608   0.14285   0.03378   0.00000  Uiso   1.00
C126   C     0.79223   0.17318   0.06291   0.00000  Uiso   1.00
C127   C     0.82338   0.07305   0.47077   0.00000  Uiso   1.00
C128   C     0.73943   0.18722   0.04438   0.00000  Uiso   1.00
C129   C     0.87484   0.05701   0.49065   0.00000  Uiso   1.00
C130   C     0.68954   0.31946   0.24800   0.00000  Uiso   1.00
C131   C     0.97708   0.01387   0.25178   0.00000  Uiso   1.00
C132   C     0.68785   0.16883   0.34132   0.00000  Uiso   1.00
H133   H     0.71478   0.21141   0.06729   0.00000  Uiso   1.00
H134   H     0.93393   0.33006   0.25536   0.00000  Uiso   1.00
H135   H     0.82897   0.12492   0.21376   0.00000  Uiso   1.00
H136   H     0.83769   0.20843   0.28621   0.00000  Uiso   1.00
H137   H     0.88795   0.23433   0.06249   0.00000  Uiso   1.00
H138   H     0.88700   0.22574   0.12407   0.00000  Uiso   1.00
H139   H     0.82389   0.12758   0.39376   0.00000  Uiso   1.00
H140   H     0.77118   0.07742   0.37555   0.00000  Uiso   1.00
H141   H     0.89085   0.02139   0.47582   0.00000  Uiso   1.00
H142   H     0.68956   0.08348   0.10713   0.00000  Uiso   1.00
H143   H     0.95712   0.20975   0.40963   0.00000  Uiso   1.00
H144   H     0.97926   0.21777   0.49779   0.00000  Uiso   1.00
H145   H     0.97581   0.03687   0.03332   0.00000  Uiso   1.00
H146   H     0.80503   0.18448   0.10070   0.00000  Uiso   1.00
H147   H     0.80001   0.04766   0.44267   0.00000  Uiso   1.00
H148   H     0.73269   0.00327   0.24440   0.00000  Uiso   1.00
N149   N     0.81362   0.15216   0.23740   0.00000  Uiso   1.00
N150   N     0.85305   0.18117   0.26261   0.00000  Uiso   1.00
N151   N     0.90926   0.21950   0.09283   0.00000  Uiso   1.00
N152   N     0.78104   0.11753   0.38203   0.00000  Uiso   1.00
O153   O     0.96386   0.24631   0.25310   0.00000  Uiso   1.00
O154   O     0.70281   0.08702   0.24691   0.00000  Uiso   1.00
O155   O     0.72488   0.23702   0.24502   0.00000  Uiso   1.00
O156   O     0.94178   0.09632   0.25499   0.00000  Uiso   1.00
O157   O     0.96995   0.17397   0.32247   0.00000  Uiso   1.00
O158   O     0.69672   0.15937   0.17753   0.00000  Uiso   1.00
O159   O     0.73098   0.16467   0.31439   0.00000  Uiso   1.00
O160   O     0.93569   0.16866   0.18561   0.00000  Uiso   1.00
Zn161  Zn    0.93700   0.17287   0.25540   0.00000  Uiso   1.00
Zn162  Zn    0.72967   0.16046   0.24461   0.00000  Uiso   1.00
C163   C     0.01504   0.59823   0.24875   0.00000  Uiso   1.00
C164   C     0.31166   0.49508   0.15887   0.00000  Uiso   1.00
C165   C     0.03014   0.49935   0.39450   0.00000  Uiso   1.00
C166   C     0.29742   0.47799   0.10797   0.00000  Uiso   1.00
C167   C     0.00575   0.52841   0.47522   0.00000  Uiso   1.00
C168   C     0.29158   0.40516   0.04792   0.00000  Uiso   1.00
C169   C     0.32669   0.52401   0.42495   0.00000  Uiso   1.00
C170   C     0.31934   0.43248   0.08895   0.00000  Uiso   1.00
C171   C     0.07583   0.47284   0.41475   0.00000  Uiso   1.00
C172   C     0.25005   0.49799   0.08443   0.00000  Uiso   1.00
C173   C     0.08695   0.47482   0.46635   0.00000  Uiso   1.00
C174   C     0.31827   0.40176   0.25116   0.00000  Uiso   1.00
C175   C     0.21579   0.46557   0.04921   0.00000  Uiso   1.00
C176   C     0.05440   0.50722   0.49561   0.00000  Uiso   1.00
C177   C     0.23894   0.42046   0.02876   0.00000  Uiso   1.00
C178   C     0.13441   0.45233   0.48930   0.00000  Uiso   1.00
C179   C     0.15942   0.47618   0.03378   0.00000  Uiso   1.00
C180   C     0.12556   0.50651   0.06291   0.00000  Uiso   1.00
C181   C     0.15671   0.40638   0.47077   0.00000  Uiso   1.00
C182   C     0.07277   0.52056   0.04438   0.00000  Uiso   1.00
C183   C     0.20817   0.39034   0.49065   0.00000  Uiso   1.00
C184   C     0.02288   0.65279   0.24800   0.00000  Uiso   1.00
C185   C     0.31042   0.34720   0.25178   0.00000  Uiso   1.00
C186   C     0.02118   0.50216   0.34132   0.00000  Uiso   1.00
H187   H     0.04812   0.54474   0.06729   0.00000  Uiso   1.00
H188   H     0.26727   0.66339   0.25536   0.00000  Uiso   1.00
H189   H     0.16231   0.45825   0.21376   0.00000  Uiso   1.00
H190   H     0.17102   0.54177   0.28621   0.00000  Uiso   1.00
H191   H     0.22128   0.56766   0.06249   0.00000  Uiso   1.00
H192   H     0.22034   0.55908   0.12407   0.00000  Uiso   1.00
H193   H     0.15722   0.46092   0.39376   0.00000  Uiso   1.00
H194   H     0.10451   0.41075   0.37555   0.00000  Uiso   1.00
H195   H     0.22419   0.35473   0.47582   0.00000  Uiso   1.00
H196   H     0.02289   0.41682   0.10713   0.00000  Uiso   1.00
H197   H     0.29046   0.54308   0.40963   0.00000  Uiso   1.00
H198   H     0.31259   0.55111   0.49779   0.00000  Uiso   1.00
H199   H     0.30914   0.37021   0.03332   0.00000  Uiso   1.00
H200   H     0.13837   0.51781   0.10070   0.00000  Uiso   1.00
H201   H     0.13334   0.38100   0.44267   0.00000  Uiso   1.00
H202   H     0.06603   0.33660   0.24440   0.00000  Uiso   1.00
N203   N     0.14695   0.48550   0.23740   0.00000  Uiso   1.00
N204   N     0.18638   0.51450   0.26261   0.00000  Uiso   1.00
N205   N     0.24260   0.55283   0.09283   0.00000  Uiso   1.00
N206   N     0.11437   0.45086   0.38203   0.00000  Uiso   1.00
O207   O     0.29719   0.57964   0.25310   0.00000  Uiso   1.00
O208   O     0.03614   0.42036   0.24691   0.00000  Uiso   1.00
O209   O     0.05822   0.57035   0.24502   0.00000  Uiso   1.00
O210   O     0.27512   0.42965   0.25499   0.00000  Uiso   1.00
O211   O     0.30328   0.50730   0.32247   0.00000  Uiso   1.00
O212   O     0.03005   0.49270   0.17753   0.00000  Uiso   1.00
O213   O     0.06431   0.49801   0.31439   0.00000  Uiso   1.00
O214   O     0.26902   0.50199   0.18561   0.00000  Uiso   1.00
Zn215  Zn    0.27033   0.50621   0.25540   0.00000  Uiso   1.00
Zn216  Zn    0.06300   0.49379   0.24461   0.00000  Uiso   1.00
C217   C     0.34838   0.59823   0.24875   0.00000  Uiso   1.00
C218   C     0.64499   0.49508   0.15887   0.00000  Uiso   1.00
C219   C     0.36348   0.49935   0.39450   0.00000  Uiso   1.00
C220   C     0.63075   0.47799   0.10797   0.00000  Uiso   1.00
C221   C     0.33908   0.52841   0.47522   0.00000  Uiso   1.00
C222   C     0.62491   0.40516   0.04792   0.00000  Uiso   1.00
C223   C     0.66002   0.52401   0.42495   0.00000  Uiso   1.00
C224   C     0.65267   0.43248   0.08895   0.00000  Uiso   1.00
C225   C     0.40917   0.47284   0.41475   0.00000  Uiso   1.00
C226   C     0.58339   0.49799   0.08443   0.00000  Uiso   1.00
C227   C     0.42029   0.47482   0.46635   0.00000  Uiso   1.00
C228   C     0.65160   0.40176   0.25116   0.00000  Uiso   1.00
C229   C     0.54912   0.46557   0.04921   0.00000  Uiso   1.00
C230   C     0.38774   0.50722   0.49561   0.00000  Uiso   1.00
C231   C     0.57227   0.42046   0.02876   0.00000  Uiso   1.00
C232   C     0.46774   0.45233   0.48930   0.00000  Uiso   1.00
C233   C     0.49275   0.47618   0.03378   0.00000  Uiso   1.00
C234   C     0.45889   0.50651   0.06291   0.00000  Uiso   1.00
C235   C     0.49004   0.40638   0.47077   0.00000  Uiso   1.00
C236   C     0.40610   0.52056   0.04438   0.00000  Uiso   1.00
C237   C     0.54151   0.39034   0.49065   0.00000  Uiso   1.00
C238   C     0.35621   0.65279   0.24800   0.00000  Uiso   1.00
C239   C     0.64375   0.34720   0.25178   0.00000  Uiso   1.00
C240   C     0.35452   0.50216   0.34132   0.00000  Uiso   1.00
H241   H     0.38145   0.54474   0.06729   0.00000  Uiso   1.00
H242   H     0.60060   0.66339   0.25536   0.00000  Uiso   1.00
H243   H     0.49564   0.45825   0.21376   0.00000  Uiso   1.00
H244   H     0.50435   0.54177   0.28621   0.00000  Uiso   1.00
H245   H     0.55462   0.56766   0.06249   0.00000  Uiso   1.00
H246   H     0.55367   0.55908   0.12407   0.00000  Uiso   1.00
H247   H     0.49055   0.46092   0.39376   0.00000  Uiso   1.00
H248   H     0.43785   0.41075   0.37555   0.00000  Uiso   1.00
H249   H     0.55752   0.35473   0.47582   0.00000  Uiso   1.00
H250   H     0.35623   0.41682   0.10713   0.00000  Uiso   1.00
H251   H     0.62379   0.54308   0.40963   0.00000  Uiso   1.00
H252   H     0.64592   0.55111   0.49779   0.00000  Uiso   1.00
H253   H     0.64247   0.37021   0.03332   0.00000  Uiso   1.00
H254   H     0.47170   0.51781   0.10070   0.00000  Uiso   1.00
H255   H     0.46667   0.38100   0.44267   0.00000  Uiso   1.00
H256   H     0.39936   0.33660   0.24440   0.00000  Uiso   1.00
N257   N     0.48029   0.48550   0.23740   0.00000  Uiso   1.00
N258   N     0.51971   0.51450   0.26261   0.00000  Uiso   1.00
N259   N     0.57593   0.55283   0.09283   0.00000  Uiso   1.00
N260   N     0.44771   0.45086   0.38203   0.00000  Uiso   1.00
O261   O     0.63052   0.57964   0.25310   0.00000  Uiso   1.00
O262   O     0.36948   0.42036   0.24691   0.00000  Uiso   1.00
O263   O     0.39155   0.57035   0.24502   0.00000  Uiso   1.00
O264   O     0.60845   0.42965   0.25499   0.00000  Uiso   1.00
O265   O     0.63662   0.50730   0.32247   0.00000  Uiso   1.00
O266   O     0.36338   0.49270   0.17753   0.00000  Uiso   1.00
O267   O     0.39764   0.49801   0.31439   0.00000  Uiso   1.00
O268   O     0.60236   0.50199   0.18561   0.00000  Uiso   1.00
Zn269  Zn    0.60366   0.50621   0.25540   0.00000  Uiso   1.00
Zn270  Zn    0.39634   0.49379   0.24461   0.00000  Uiso   1.00
C271   C     0.68171   0.59823   0.24875   0.00000  Uiso   1.00
C272   C     0.97832   0.49508   0.15887   0.00000  Uiso   1.00
C273   C     0.69681   0.49935   0.39450   0.00000  Uiso   1.00
C274   C     0.96409   0.47799   0.10797   0.00000  Uiso   1.00
C275   C     0.67241   0.52841   0.47522   0.00000  Uiso   1.00
C276   C     0.95825   0.40516   0.04792   0.00000  Uiso   1.00
C277   C     0.99335   0.52401   0.42495   0.00000  Uiso   1.00
C278   C     0.98600   0.43248   0.08895   0.00000  Uiso   1.00
C279   C     0.74250   0.47284   0.41475   0.00000  Uiso   1.00
C280   C     0.91672   0.49799   0.08443   0.00000  Uiso   1.00
C281   C     0.75362   0.47482   0.46635   0.00000  Uiso   1.00
C282   C     0.98494   0.40176   0.25116   0.00000  Uiso   1.00
C283   C     0.88245   0.46557   0.04921   0.00000  Uiso   1.00
C284   C     0.72107   0.50722   0.49561   0.00000  Uiso   1.00
C285   C     0.90561   0.42046   0.02876   0.00000  Uiso   1.00
C286   C     0.80107   0.45233   0.48930   0.00000  Uiso   1.00
C287   C     0.82608   0.47618   0.03378   0.00000  Uiso   1.00
C288   C     0.79223   0.50651   0.06291   0.00000  Uiso   1.00
C289   C     0.82338   0.40638   0.47077   0.00000  Uiso   1.00
C290   C     0.73943   0.52056   0.04438   0.00000  Uiso   1.00
C291   C     0.87484   0.39034   0.49065   0.00000  Uiso   1.00
C292   C     0.68954   0.65279   0.24800   0.00000  Uiso   1.00
C293   C     0.97708   0.34720   0.25178   0.00000  Uiso   1.00
C294   C     0.68785   0.50216   0.34132   0.00000  Uiso   1.00
H295   H     0.71478   0.54474   0.06729   0.00000  Uiso   1.00
H296   H     0.93393   0.66339   0.25536   0.00000  Uiso   1.00
H297   H     0.82897   0.45825   0.21376   0.00000  Uiso   1.00
H298   H     0.83769   0.54177   0.28621   0.00000  Uiso   1.00
H299   H     0.88795   0.56766   0.06249   0.00000  Uiso   1.00
H300   H     0.88700   0.55908   0.12407   0.00000  Uiso   1.00
H301   H     0.82389   0.46092   0.39376   0.00000  Uiso   1.00
H302   H     0.77118   0.41075   0.37555   0.00000  Uiso   1.00
H303   H     0.89085   0.35473   0.47582   0.00000  Uiso   1.00
H304   H     0.68956   0.41682   0.10713   0.00000  Uiso   1.00
H305   H     0.95712   0.54308   0.40963   0.00000  Uiso   1.00
H306   H     0.97926   0.55111   0.49779   0.00000  Uiso   1.00
H307   H     0.97581   0.37021   0.03332   0.00000  Uiso   1.00
H308   H     0.80503   0.51781   0.10070   0.00000  Uiso   1.00
H309   H     0.80001   0.38100   0.44267   0.00000  Uiso   1.00
H310   H     0.73269   0.33660   0.24440   0.00000  Uiso   1.00
N311   N     0.81362   0.48550   0.23740   0.00000  Uiso   1.00
N312   N     0.85305   0.51450   0.26261   0.00000  Uiso   1.00
N313   N     0.90926   0.55283   0.09283   0.00000  Uiso   1.00
N314   N     0.78104   0.45086   0.38203   0.00000  Uiso   1.00
O315   O     0.96386   0.57964   0.25310   0.00000  Uiso   1.00
O316   O     0.70281   0.42036   0.24691   0.00000  Uiso   1.00
O317   O     0.72488   0.57035   0.24502   0.00000  Uiso   1.00
O318   O     0.94178   0.42965   0.25499   0.00000  Uiso   1.00
O319   O     0.96995   0.50730   0.32247   0.00000  Uiso   1.00
O320   O     0.69672   0.49270   0.17753   0.00000  Uiso   1.00
O321   O     0.73098   0.49801   0.31439   0.00000  Uiso   1.00
O322   O     0.93569   0.50199   0.18561   0.00000  Uiso   1.00
Zn323  Zn    0.93700   0.50621   0.25540   0.00000  Uiso   1.00
Zn324  Zn    0.72967   0.49379   0.24461   0.00000  Uiso   1.00
C325   C     0.01504   0.93157   0.24875   0.00000  Uiso   1.00
C326   C     0.31166   0.82842   0.15887   0.00000  Uiso   1.00
C327   C     0.03014   0.83269   0.39450   0.00000  Uiso   1.00
C328   C     0.29742   0.81133   0.10797   0.00000  Uiso   1.00
C329   C     0.00575   0.86174   0.47522   0.00000  Uiso   1.00
C330   C     0.29158   0.73850   0.04792   0.00000  Uiso   1.00
C331   C     0.32669   0.85734   0.42495   0.00000  Uiso   1.00
C332   C     0.31934   0.76581   0.08895   0.00000  Uiso   1.00
C333   C     0.07583   0.80617   0.41475   0.00000  Uiso   1.00
C334   C     0.25005   0.83133   0.08443   0.00000  Uiso   1.00
C335   C     0.08695   0.80815   0.46635   0.00000  Uiso   1.00
C336   C     0.31827   0.73509   0.25116   0.00000  Uiso   1.00
C337   C     0.21579   0.79890   0.04921   0.00000  Uiso   1.00
C338   C     0.05440   0.84055   0.49561   0.00000  Uiso   1.00
C339   C     0.23894   0.75379   0.02876   0.00000  Uiso   1.00
C340   C     0.13441   0.78567   0.48930   0.00000  Uiso   1.00
C341   C     0.15942   0.80952   0.03378   0.00000  Uiso   1.00
C342   C     0.12556   0.83984   0.06291   0.00000  Uiso   1.00
C343   C     0.15671   0.73971   0.47077   0.00000  Uiso   1.00
C344   C     0.07277   0.85389   0.04438   0.00000  Uiso   1.00
C345   C     0.20817   0.72367   0.49065   0.00000  Uiso   1.00
C346   C     0.02288   0.98612   0.24800   0.00000  Uiso   1.00
C347   C     0.31042   0.68053   0.25178   0.00000  Uiso   1.00
C348   C     0.02118   0.83549   0.34132   0.00000  Uiso   1.00
H349   H     0.04812   0.87807   0.06729   0.00000  Uiso   1.00
H350   H     0.26727   0.99672   0.25536   0.00000  Uiso   1.00
H351   H     0.16231   0.79158   0.21376   0.00000  Uiso   1.00
H352   H     0.17102   0.87510   0.28621   0.00000  Uiso   1.00
H353   H     0.22128   0.90100   0.06249   0.00000  Uiso   1.00
H354   H     0.22034   0.89241   0.12407   0.00000  Uiso   1.00
H355   H     0.15722   0.79425   0.39376   0.00000  Uiso   1.00
H356   H     0.10451   0.74408   0.37555   0.00000  Uiso   1.00
H357   H     0.22419   0.68806   0.47582   0.00000  Uiso   1.00
H358   H     0.02289   0.75015   0.10713   0.00000  Uiso   1.00
H359   H     0.29046   0.87641   0.40963   0.00000  Uiso   1.00
H360   H     0.31259   0.88444   0.49779   0.00000  Uiso   1.00
H361   H     0.30914   0.70354   0.03332   0.00000  Uiso   1.00
H362   H     0.13837   0.85114   0.10070   0.00000  Uiso   1.00
H363   H     0.13334   0.71433   0.44267   0.00000  Uiso   1.00
H364   H     0.06603   0.66994   0.24440   0.00000  Uiso   1.00
N365   N     0.14695   0.81883   0.23740   0.00000  Uiso   1.00
N366   N     0.18638   0.84784   0.26261   0.00000  Uiso   1.00
N367   N     0.24260   0.88617   0.09283   0.00000  Uiso   1.00
N368   N     0.11437   0.78419   0.38203   0.00000  Uiso   1.00
O369   O     0.29719   0.91298   0.25310   0.00000  Uiso   1.00
O370   O     0.03614   0.75369   0.24691   0.00000  Uiso   1.00
O371   O     0.05822   0.90368   0.24502   0.00000  Uiso   1.00
O372   O     0.27512   0.76298   0.25499   0.00000  Uiso   1.00
O373   O     0.30328   0.84063   0.32247   0.00000  Uiso   1.00
O374   O     0.03005   0.82603   0.17753   0.00000  Uiso   1.00
O375   O     0.06431   0.83134   0.31439   0.00000  Uiso   1.00
O376   O     0.26902   0.83533   0.18561   0.00000  Uiso   1.00
Zn377  Zn    0.27033   0.83954   0.25540   0.00000  Uiso   1.00
Zn378  Zn    0.06300   0.82713   0.24461   0.00000  Uiso   1.00
C379   C     0.34838   0.93157   0.24875   0.00000  Uiso   1.00
C380   C     0.64499   0.82842   0.15887   0.00000  Uiso   1.00
C381   C     0.36348   0.83269   0.39450   0.00000  Uiso   1.00
C382   C     0.63075   0.81133   0.10797   0.00000  Uiso   1.00
C383   C     0.33908   0.86174   0.47522   0.00000  Uiso   1.00
C384   C     0.62491   0.73850   0.04792   0.00000  Uiso   1.00
C385   C     0.66002   0.85734   0.42495   0.00000  Uiso   1.00
C386   C     0.65267   0.76581   0.08895   0.00000  Uiso   1.00
C387   C     0.40917   0.80617   0.41475   0.00000  Uiso   1.00
C388   C     0.58339   0.83133   0.08443   0.00000  Uiso   1.00
C389   C     0.42029   0.80815   0.46635   0.00000  Uiso   1.00
C390   C     0.65160   0.73509   0.25116   0.00000  Uiso   1.00
C391   C     0.54912   0.79890   0.04921   0.00000  Uiso   1.00
C392   C     0.38774   0.84055   0.49561   0.00000  Uiso   1.00
C393   C     0.57227   0.75379   0.02876   0.00000  Uiso   1.00
C394   C     0.46774   0.78567   0.48930   0.00000  Uiso   1.00
C395   C     0.49275   0.80952   0.03378   0.00000  Uiso   1.00
C396   C     0.45889   0.83984   0.06291   0.00000  Uiso   1.00
C397   C     0.49004   0.73971   0.47077   0.00000  Uiso   1.00
C398   C     0.40610   0.85389   0.04438   0.00000  Uiso   1.00
C399   C     0.54151   0.72367   0.49065   0.00000  Uiso   1.00
C400   C     0.35621   0.98612   0.24800   0.00000  Uiso   1.00
C401   C     0.64375   0.68053   0.25178   0.00000  Uiso   1.00
C402   C     0.35452   0.83549   0.34132   0.00000  Uiso   1.00
H403   H     0.38145   0.87807   0.06729   0.00000  Uiso   1.00
H404   H     0.60060   0.99672   0.25536   0.00000  Uiso   1.00
H405   H     0.49564   0.79158   0.21376   0.00000  Uiso   1.00
H406   H     0.50435   0.87510   0.28621   0.00000  Uiso   1.00
H407   H     0.55462   0.90100   0.06249   0.00000  Uiso   1.00
H408   H     0.55367   0.89241   0.12407   0.00000  Uiso   1.00
H409   H     0.49055   0.79425   0.39376   0.00000  Uiso   1.00
H410   H     0.43785   0.74408   0.37555   0.00000  Uiso   1.00
H411   H     0.55752   0.68806   0.47582   0.00000  Uiso   1.00
H412   H     0.35623   0.75015   0.10713   0.00000  Uiso   1.00
H413   H     0.62379   0.87641   0.40963   0.00000  Uiso   1.00
H414   H     0.64592   0.88444   0.49779   0.00000  Uiso   1.00
H415   H     0.64247   0.70354   0.03332   0.00000  Uiso   1.00
H416   H     0.47170   0.85114   0.10070   0.00000  Uiso   1.00
H417   H     0.46667   0.71433   0.44267   0.00000  Uiso   1.00
H418   H     0.39936   0.66994   0.24440   0.00000  Uiso   1.00
N419   N     0.48029   0.81883   0.23740   0.00000  Uiso   1.00
N420   N     0.51971   0.84784   0.26261   0.00000  Uiso   1.00
N421   N     0.57593   0.88617   0.09283   0.00000  Uiso   1.00
N422   N     0.44771   0.78419   0.38203   0.00000  Uiso   1.00
O423   O     0.63052   0.91298   0.25310   0.00000  Uiso   1.00
O424   O     0.36948   0.75369   0.24691   0.00000  Uiso   1.00
O425   O     0.39155   0.90368   0.24502   0.00000  Uiso   1.00
O426   O     0.60845   0.76298   0.25499   0.00000  Uiso   1.00
O427   O     0.63662   0.84063   0.32247   0.00000  Uiso   1.00
O428   O     0.36338   0.82603   0.17753   0.00000  Uiso   1.00
O429   O     0.39764   0.83134   0.31439   0.00000  Uiso   1.00
O430   O     0.60236   0.83533   0.18561   0.00000  Uiso   1.00
Zn431  Zn    0.60366   0.83954   0.25540   0.00000  Uiso   1.00
Zn432  Zn    0.39634   0.82713   0.24461   0.00000  Uiso   1.00
C433   C     0.68171   0.93157   0.24875   0.00000  Uiso   1.00
C434   C     0.97832   0.82842   0.15887   0.00000  Uiso   1.00
C435   C     0.69681   0.83269   0.39450   0.00000  Uiso   1.00
C436   C     0.96409   0.81133   0.10797   0.00000  Uiso   1.00
C437   C     0.67241   0.86174   0.47522   0.00000  Uiso   1.00
C438   C     0.95825   0.73850   0.04792   0.00000  Uiso   1.00
C439   C     0.99335   0.85734   0.42495   0.00000  Uiso   1.00
C440   C     0.98600   0.76581   0.08895   0.00000  Uiso   1.00
C441   C     0.74250   0.80617   0.41475   0.00000  Uiso   1.00
C442   C     0.91672   0.83133   0.08443   0.00000  Uiso   1.00
C443   C     0.75362   0.80815   0.46635   0.00000  Uiso   1.00
C444   C     0.98494   0.73509   0.25116   0.00000  Uiso   1.00
C445   C     0.88245   0.79890   0.04921   0.00000  Uiso   1.00
C446   C     0.72107   0.84055   0.49561   0.00000  Uiso   1.00
C447   C     0.90561   0.75379   0.02876   0.00000  Uiso   1.00
C448   C     0.80107   0.78567   0.48930   0.00000  Uiso   1.00
C449   C     0.82608   0.80952   0.03378   0.00000  Uiso   1.00
C450   C     0.79223   0.83984   0.06291   0.00000  Uiso   1.00
C451   C     0.82338   0.73971   0.47077   0.00000  Uiso   1.00
C452   C     0.73943   0.85389   0.04438   0.00000  Uiso   1.00
C453   C     0.87484   0.72367   0.49065   0.00000  Uiso   1.00
C454   C     0.68954   0.98612   0.24800   0.00000  Uiso   1.00
C455   C     0.97708   0.68053   0.25178   0.00000  Uiso   1.00
C456   C     0.68785   0.83549   0.34132   0.00000  Uiso   1.00
H457   H     0.71478   0.87807   0.06729   0.00000  Uiso   1.00
H458   H     0.93393   0.99672   0.25536   0.00000  Uiso   1.00
H459   H     0.82897   0.79158   0.21376   0.00000  Uiso   1.00
H460   H     0.83769   0.87510   0.28621   0.00000  Uiso   1.00
H461   H     0.88795   0.90100   0.06249   0.00000  Uiso   1.00
H462   H     0.88700   0.89241   0.12407   0.00000  Uiso   1.00
H463   H     0.82389   0.79425   0.39376   0.00000  Uiso   1.00
H464   H     0.77118   0.74408   0.37555   0.00000  Uiso   1.00
H465   H     0.89085   0.68806   0.47582   0.00000  Uiso   1.00
H466   H     0.68956   0.75015   0.10713   0.00000  Uiso   1.00
H467   H     0.95712   0.87641   0.40963   0.00000  Uiso   1.00
H468   H     0.97926   0.88444   0.49779   0.00000  Uiso   1.00
H469   H     0.97581   0.70354   0.03332   0.00000  Uiso   1.00
H470   H     0.80503   0.85114   0.10070   0.00000  Uiso   1.00
H471   H     0.80001   0.71433   0.44267   0.00000  Uiso   1.00
H472   H     0.73269   0.66994   0.24440   0.00000  Uiso   1.00
N473   N     0.81362   0.81883   0.23740   0.00000  Uiso   1.00
N474   N     0.85305   0.84784   0.26261   0.00000  Uiso   1.00
N475   N     0.90926   0.88617   0.09283   0.00000  Uiso   1.00
N476   N     0.78104   0.78419   0.38203   0.00000  Uiso   1.00
O477   O     0.96386   0.91298   0.25310   0.00000  Uiso   1.00
O478   O     0.70281   0.75369   0.24691   0.00000  Uiso   1.00
O479   O     0.72488   0.90368   0.24502   0.00000  Uiso   1.00
O480   O     0.94178   0.76298   0.25499   0.00000  Uiso   1.00
O481   O     0.96995   0.84063   0.32247   0.00000  Uiso   1.00
O482   O     0.69672   0.82603   0.17753   0.00000  Uiso   1.00
O483   O     0.73098   0.83134   0.31439   0.00000  Uiso   1.00
O484   O     0.93569   0.83533   0.18561   0.00000  Uiso   1.00
Zn485  Zn    0.93700   0.83954   0.25540   0.00000  Uiso   1.00
Zn486  Zn    0.72967   0.82713   0.24461   0.00000  Uiso   1.00
C487   C     0.01504   0.26490   0.74875   0.00000  Uiso   1.00
C488   C     0.31166   0.16175   0.65887   0.00000  Uiso   1.00
C489   C     0.03014   0.16602   0.89450   0.00000  Uiso   1.00
C490   C     0.29742   0.14466   0.60797   0.00000  Uiso   1.00
C491   C     0.00575   0.19508   0.97522   0.00000  Uiso   1.00
C492   C     0.29158   0.07183   0.54792   0.00000  Uiso   1.00
C493   C     0.32669   0.19068   0.92495   0.00000  Uiso   1.00
C494   C     0.31934   0.09914   0.58895   0.00000  Uiso   1.00
C495   C     0.07583   0.13951   0.91475   0.00000  Uiso   1.00
C496   C     0.25005   0.16466   0.58443   0.00000  Uiso   1.00
C497   C     0.08695   0.14149   0.96635   0.00000  Uiso   1.00
C498   C     0.31827   0.06843   0.75116   0.00000  Uiso   1.00
C499   C     0.21579   0.13223   0.54921   0.00000  Uiso   1.00
C500   C     0.05440   0.17388   0.99561   0.00000  Uiso   1.00
C501   C     0.23894   0.08712   0.52876   0.00000  Uiso   1.00
C502   C     0.13441   0.11900   0.98930   0.00000  Uiso   1.00
C503   C     0.15942   0.14285   0.53378   0.00000  Uiso   1.00
C504   C     0.12556   0.17318   0.56291   0.00000  Uiso   1.00
C505   C     0.15671   0.07305   0.97077   0.00000  Uiso   1.00
C506   C     0.07277   0.18722   0.54438   0.00000  Uiso   1.00
C507   C     0.20817   0.05701   0.99065   0.00000  Uiso   1.00
C508   C     0.02288   0.31946   0.74800   0.00000  Uiso   1.00
C509   C     0.31042   0.01387   0.75178   0.00000  Uiso   1.00
C510   C     0.02118   0.16883   0.84132   0.00000  Uiso   1.00
H511   H     0.04812   0.21141   0.56729   0.00000  Uiso   1.00
H512   H     0.26727   0.33006   0.75536   0.00000  Uiso   1.00
H513   H     0.16231   0.12492   0.71376   0.00000  Uiso   1.00
H514   H     0.17102   0.20843   0.78621   0.00000  Uiso   1.00
H515   H     0.22128   0.23433   0.56249   0.00000  Uiso   1.00
H516   H     0.22034   0.22574   0.62407   0.00000  Uiso   1.00
H517   H     0.15722   0.12758   0.89376   0.00000  Uiso   1.00
H518   H     0.10451   0.07742   0.87555   0.00000  Uiso   1.00
H519   H     0.22419   0.02139   0.97582   0.00000  Uiso   1.00
H520   H     0.02289   0.08348   0.60713   0.00000  Uiso   1.00
H521   H     0.29046   0.20975   0.90963   0.00000  Uiso   1.00
H522   H     0.31259   0.21777   0.99779   0.00000  Uiso   1.00
H523   H     0.30914   0.03687   0.53332   0.00000  Uiso   1.00
H524   H     0.13837   0.18448   0.60070   0.00000  Uiso   1.00
H525   H     0.13334   0.04766   0.94267   0.00000  Uiso   1.00
H526   H     0.06603   0.00327   0.74440   0.00000  Uiso   1.00
N527   N     0.14695   0.15216   0.73740   0.00000  Uiso   1.00
N528   N     0.18638   0.18117   0.76261   0.00000  Uiso   1.00
N529   N     0.24260   0.21950   0.59283   0.00000  Uiso   1.00
N530   N     0.11437   0.11753   0.88203   0.00000  Uiso   1.00
O531   O     0.29719   0.24631   0.75310   0.00000  Uiso   1.00
O532   O     0.03614   0.08702   0.74691   0.00000  Uiso   1.00
O533   O     0.05822   0.23702   0.74502   0.00000  Uiso   1.00
O534   O     0.27512   0.09632   0.75499   0.00000  Uiso   1.00
O535   O     0.30328   0.17397   0.82247   0.00000  Uiso   1.00
O536   O     0.03005   0.15937   0.67753   0.00000  Uiso   1.00
O537   O     0.06431   0.16467   0.81439   0.00000  Uiso   1.00
O538   O     0.26902   0.16866   0.68561   0.00000  Uiso   1.00
Zn539  Zn    0.27033   0.17287   0.75540   0.00000  Uiso   1.00
Zn540  Zn    0.06300   0.16046   0.74461   0.00000  Uiso   1.00
C541   C     0.34838   0.26490   0.74875   0.00000  Uiso   1.00
C542   C     0.64499   0.16175   0.65887   0.00000  Uiso   1.00
C543   C     0.36348   0.16602   0.89450   0.00000  Uiso   1.00
C544   C     0.63075   0.14466   0.60797   0.00000  Uiso   1.00
C545   C     0.33908   0.19508   0.97522   0.00000  Uiso   1.00
C546   C     0.62491   0.07183   0.54792   0.00000  Uiso   1.00
C547   C     0.66002   0.19068   0.92495   0.00000  Uiso   1.00
C548   C     0.65267   0.09914   0.58895   0.00000  Uiso   1.00
C549   C     0.40917   0.13951   0.91475   0.00000  Uiso   1.00
C550   C     0.58339   0.16466   0.58443   0.00000  Uiso   1.00
C551   C     0.42029   0.14149   0.96635   0.00000  Uiso   1.00
C552   C     0.65160   0.06843   0.75116   0.00000  Uiso   1.00
C553   C     0.54912   0.13223   0.54921   0.00000  Uiso   1.00
C554   C     0.38774   0.17388   0.99561   0.00000  Uiso   1.00
C555   C     0.57227   0.08712   0.52876   0.00000  Uiso   1.00
C556   C     0.46774   0.11900   0.98930   0.00000  Uiso   1.00
C557   C     0.49275   0.14285   0.53378   0.00000  Uiso   1.00
C558   C     0.45889   0.17318   0.56291   0.00000  Uiso   1.00
C559   C     0.49004   0.07305   0.97077   0.00000  Uiso   1.00
C560   C     0.40610   0.18722   0.54438   0.00000  Uiso   1.00
C561   C     0.54151   0.05701   0.99065   0.00000  Uiso   1.00
C562   C     0.35621   0.31946   0.74800   0.00000  Uiso   1.00
C563   C     0.64375   0.01387   0.75178   0.00000  Uiso   1.00
C564   C     0.35452   0.16883   0.84132   0.00000  Uiso   1.00
H565   H     0.38145   0.21141   0.56729   0.00000  Uiso   1.00
H566   H     0.60060   0.33006   0.75536   0.00000  Uiso   1.00
H567   H     0.49564   0.12492   0.71376   0.00000  Uiso   1.00
H568   H     0.50435   0.20843   0.78621   0.00000  Uiso   1.00
H569   H     0.55462   0.23433   0.56249   0.00000  Uiso   1.00
H570   H     0.55367   0.22574   0.62407   0.00000  Uiso   1.00
H571   H     0.49055   0.12758   0.89376   0.00000  Uiso   1.00
H572   H     0.43785   0.07742   0.87555   0.00000  Uiso   1.00
H573   H     0.55752   0.02139   0.97582   0.00000  Uiso   1.00
H574   H     0.35623   0.08348   0.60713   0.00000  Uiso   1.00
H575   H     0.62379   0.20975   0.90963   0.00000  Uiso   1.00
H576   H     0.64592   0.21777   0.99779   0.00000  Uiso   1.00
H577   H     0.64247   0.03687   0.53332   0.00000  Uiso   1.00
H578   H     0.47170   0.18448   0.60070   0.00000  Uiso   1.00
H579   H     0.46667   0.04766   0.94267   0.00000  Uiso   1.00
H580   H     0.39936   0.00327   0.74440   0.00000  Uiso   1.00
N581   N     0.48029   0.15216   0.73740   0.00000  Uiso   1.00
N582   N     0.51971   0.18117   0.76261   0.00000  Uiso   1.00
N583   N     0.57593   0.21950   0.59283   0.00000  Uiso   1.00
N584   N     0.44771   0.11753   0.88203   0.00000  Uiso   1.00
O585   O     0.63052   0.24631   0.75310   0.00000  Uiso   1.00
O586   O     0.36948   0.08702   0.74691   0.00000  Uiso   1.00
O587   O     0.39155   0.23702   0.74502   0.00000  Uiso   1.00
O588   O     0.60845   0.09632   0.75499   0.00000  Uiso   1.00
O589   O     0.63662   0.17397   0.82247   0.00000  Uiso   1.00
O590   O     0.36338   0.15937   0.67753   0.00000  Uiso   1.00
O591   O     0.39764   0.16467   0.81439   0.00000  Uiso   1.00
O592   O     0.60236   0.16866   0.68561   0.00000  Uiso   1.00
Zn593  Zn    0.60366   0.17287   0.75540   0.00000  Uiso   1.00
Zn594  Zn    0.39634   0.16046   0.74461   0.00000  Uiso   1.00
C595   C     0.68171   0.26490   0.74875   0.00000  Uiso   1.00
C596   C     0.97832   0.16175   0.65887   0.00000  Uiso   1.00
C597   C     0.69681   0.16602   0.89450   0.00000  Uiso   1.00
C598   C     0.96409   0.14466   0.60797   0.00000  Uiso   1.00
C599   C     0.67241   0.19508   0.97522   0.00000  Uiso   1.00
C600   C     0.95825   0.07183   0.54792   0.00000  Uiso   1.00
C601   C     0.99335   0.19068   0.92495   0.00000  Uiso   1.00
C602   C     0.98600   0.09914   0.58895   0.00000  Uiso   1.00
C603   C     0.74250   0.13951   0.91475   0.00000  Uiso   1.00
C604   C     0.91672   0.16466   0.58443   0.00000  Uiso   1.00
C605   C     0.75362   0.14149   0.96635   0.00000  Uiso   1.00
C606   C     0.98494   0.06843   0.75116   0.00000  Uiso   1.00
C607   C     0.88245   0.13223   0.54921   0.00000  Uiso   1.00
C608   C     0.72107   0.17388   0.99561   0.00000  Uiso   1.00
C609   C     0.90561   0.08712   0.52876   0.00000  Uiso   1.00
C610   C     0.80107   0.11900   0.98930   0.00000  Uiso   1.00
C611   C     0.82608   0.14285   0.53378   0.00000  Uiso   1.00
C612   C     0.79223   0.17318   0.56291   0.00000  Uiso   1.00
C613   C     0.82338   0.07305   0.97077   0.00000  Uiso   1.00
C614   C     0.73943   0.18722   0.54438   0.00000  Uiso   1.00
C615   C     0.87484   0.05701   0.99065   0.00000  Uiso   1.00
C616   C     0.68954   0.31946   0.74800   0.00000  Uiso   1.00
C617   C     0.97708   0.01387   0.75178   0.00000  Uiso   1.00
C618   C     0.68785   0.16883   0.84132   0.00000  Uiso   1.00
H619   H     0.71478   0.21141   0.56729   0.00000  Uiso   1.00
H620   H     0.93393   0.33006   0.75536   0.00000  Uiso   1.00
H621   H     0.82897   0.12492   0.71376   0.00000  Uiso   1.00
H622   H     0.83769   0.20843   0.78621   0.00000  Uiso   1.00
H623   H     0.88795   0.23433   0.56249   0.00000  Uiso   1.00
H624   H     0.88700   0.22574   0.62407   0.00000  Uiso   1.00
H625   H     0.82389   0.12758   0.89376   0.00000  Uiso   1.00
H626   H     0.77118   0.07742   0.87555   0.00000  Uiso   1.00
H627   H     0.89085   0.02139   0.97582   0.00000  Uiso   1.00
H628   H     0.68956   0.08348   0.60713   0.00000  Uiso   1.00
H629   H     0.95712   0.20975   0.90963   0.00000  Uiso   1.00
H630   H     0.97926   0.21777   0.99779   0.00000  Uiso   1.00
H631   H     0.97581   0.03687   0.53332   0.00000  Uiso   1.00
H632   H     0.80503   0.18448   0.60070   0.00000  Uiso   1.00
H633   H     0.80001   0.04766   0.94267   0.00000  Uiso   1.00
H634   H     0.73269   0.00327   0.74440   0.00000  Uiso   1.00
N635   N     0.81362   0.15216   0.73740   0.00000  Uiso   1.00
N636   N     0.85305   0.18117   0.76261   0.00000  Uiso   1.00
N637   N     0.90926   0.21950   0.59283   0.00000  Uiso   1.00
N638   N     0.78104   0.11753   0.88203   0.00000  Uiso   1.00
O639   O     0.96386   0.24631   0.75310   0.00000  Uiso   1.00
O640   O     0.70281   0.08702   0.74691   0.00000  Uiso   1.00
O641   O     0.72488   0.23702   0.74502   0.00000  Uiso   1.00
O642   O     0.94178   0.09632   0.75499   0.00000  Uiso   1.00
O643   O     0.96995   0.17397   0.82247   0.00000  Uiso   1.00
O644   O     0.69672   0.15937   0.67753   0.00000  Uiso   1.00
O645   O     0.73098   0.16467   0.81439   0.00000  Uiso   1.00
O646   O     0.93569   0.16866   0.68561   0.00000  Uiso   1.00
Zn647  Zn    0.93700   0.17287   0.75540   0.00000  Uiso   1.00
Zn648  Zn    0.72967   0.16046   0.74461   0.00000  Uiso   1.00
C649   C     0.01504   0.59823   0.74875   0.00000  Uiso   1.00
C650   C     0.31166   0.49508   0.65887   0.00000  Uiso   1.00
C651   C     0.03014   0.49935   0.89450   0.00000  Uiso   1.00
C652   C     0.29742   0.47799   0.60797   0.00000  Uiso   1.00
C653   C     0.00575   0.52841   0.97522   0.00000  Uiso   1.00
C654   C     0.29158   0.40516   0.54792   0.00000  Uiso   1.00
C655   C     0.32669   0.52401   0.92495   0.00000  Uiso   1.00
C656   C     0.31934   0.43248   0.58895   0.00000  Uiso   1.00
C657   C     0.07583   0.47284   0.91475   0.00000  Uiso   1.00
C658   C     0.25005   0.49799   0.58443   0.00000  Uiso   1.00
C659   C     0.08695   0.47482   0.96635   0.00000  Uiso   1.00
C660   C     0.31827   0.40176   0.75116   0.00000  Uiso   1.00
C661   C     0.21579   0.46557   0.54921   0.00000  Uiso   1.00
C662   C     0.05440   0.50722   0.99561   0.00000  Uiso   1.00
C663   C     0.23894   0.42046   0.52876   0.00000  Uiso   1.00
C664   C     0.13441   0.45233   0.98930   0.00000  Uiso   1.00
C665   C     0.15942   0.47618   0.53378   0.00000  Uiso   1.00
C666   C     0.12556   0.50651   0.56291   0.00000  Uiso   1.00
C667   C     0.15671   0.40638   0.97077   0.00000  Uiso   1.00
C668   C     0.07277   0.52056   0.54438   0.00000  Uiso   1.00
C669   C     0.20817   0.39034   0.99065   0.00000  Uiso   1.00
C670   C     0.02288   0.65279   0.74800   0.00000  Uiso   1.00
C671   C     0.31042   0.34720   0.75178   0.00000  Uiso   1.00
C672   C     0.02118   0.50216   0.84132   0.00000  Uiso   1.00
H673   H     0.04812   0.54474   0.56729   0.00000  Uiso   1.00
H674   H     0.26727   0.66339   0.75536   0.00000  Uiso   1.00
H675   H     0.16231   0.45825   0.71376   0.00000  Uiso   1.00
H676   H     0.17102   0.54177   0.78621   0.00000  Uiso   1.00
H677   H     0.22128   0.56766   0.56249   0.00000  Uiso   1.00
H678   H     0.22034   0.55908   0.62407   0.00000  Uiso   1.00
H679   H     0.15722   0.46092   0.89376   0.00000  Uiso   1.00
H680   H     0.10451   0.41075   0.87555   0.00000  Uiso   1.00
H681   H     0.22419   0.35473   0.97582   0.00000  Uiso   1.00
H682   H     0.02289   0.41682   0.60713   0.00000  Uiso   1.00
H683   H     0.29046   0.54308   0.90963   0.00000  Uiso   1.00
H684   H     0.31259   0.55111   0.99779   0.00000  Uiso   1.00
H685   H     0.30914   0.37021   0.53332   0.00000  Uiso   1.00
H686   H     0.13837   0.51781   0.60070   0.00000  Uiso   1.00
H687   H     0.13334   0.38100   0.94267   0.00000  Uiso   1.00
H688   H     0.06603   0.33660   0.74440   0.00000  Uiso   1.00
N689   N     0.14695   0.48550   0.73740   0.00000  Uiso   1.00
N690   N     0.18638   0.51450   0.76261   0.00000  Uiso   1.00
N691   N     0.24260   0.55283   0.59283   0.00000  Uiso   1.00
N692   N     0.11437   0.45086   0.88203   0.00000  Uiso   1.00
O693   O     0.29719   0.57964   0.75310   0.00000  Uiso   1.00
O694   O     0.03614   0.42036   0.74691   0.00000  Uiso   1.00
O695   O     0.05822   0.57035   0.74502   0.00000  Uiso   1.00
O696   O     0.27512   0.42965   0.75499   0.00000  Uiso   1.00
O697   O     0.30328   0.50730   0.82247   0.00000  Uiso   1.00
O698   O     0.03005   0.49270   0.67753   0.00000  Uiso   1.00
O699   O     0.06431   0.49801   0.81439   0.00000  Uiso   1.00
O700   O     0.26902   0.50199   0.68561   0.00000  Uiso   1.00
Zn701  Zn    0.27033   0.50621   0.75540   0.00000  Uiso   1.00
Zn702  Zn    0.06300   0.49379   0.74461   0.00000  Uiso   1.00
C703   C     0.34838   0.59823   0.74875   0.00000  Uiso   1.00
C704   C     0.64499   0.49508   0.65887   0.00000  Uiso   1.00
C705   C     0.36348   0.49935   0.89450   0.00000  Uiso   1.00
C706   C     0.63075   0.47799   0.60797   0.00000  Uiso   1.00
C707   C     0.33908   0.52841   0.97522   0.00000  Uiso   1.00
C708   C     0.62491   0.40516   0.54792   0.00000  Uiso   1.00
C709   C     0.66002   0.52401   0.92495   0.00000  Uiso   1.00
C710   C     0.65267   0.43248   0.58895   0.00000  Uiso   1.00
C711   C     0.40917   0.47284   0.91475   0.00000  Uiso   1.00
C712   C     0.58339   0.49799   0.58443   0.00000  Uiso   1.00
C713   C     0.42029   0.47482   0.96635   0.00000  Uiso   1.00
C714   C     0.65160   0.40176   0.75116   0.00000  Uiso   1.00
C715   C     0.54912   0.46557   0.54921   0.00000  Uiso   1.00
C716   C     0.38774   0.50722   0.99561   0.00000  Uiso   1.00
C717   C     0.57227   0.42046   0.52876   0.00000  Uiso   1.00
C718   C     0.46774   0.45233   0.98930   0.00000  Uiso   1.00
C719   C     0.49275   0.47618   0.53378   0.00000  Uiso   1.00
C720   C     0.45889   0.50651   0.56291   0.00000  Uiso   1.00
C721   C     0.49004   0.40638   0.97077   0.00000  Uiso   1.00
C722   C     0.40610   0.52056   0.54438   0.00000  Uiso   1.00
C723   C     0.54151   0.39034   0.99065   0.00000  Uiso   1.00
C724   C     0.35621   0.65279   0.74800   0.00000  Uiso   1.00
C725   C     0.64375   0.34720   0.75178   0.00000  Uiso   1.00
C726   C     0.35452   0.50216   0.84132   0.00000  Uiso   1.00
H727   H     0.38145   0.54474   0.56729   0.00000  Uiso   1.00
H728   H     0.60060   0.66339   0.75536   0.00000  Uiso   1.00
H729   H     0.49564   0.45825   0.71376   0.00000  Uiso   1.00
H730   H     0.50435   0.54177   0.78621   0.00000  Uiso   1.00
H731   H     0.55462   0.56766   0.56249   0.00000  Uiso   1.00
H732   H     0.55367   0.55908   0.62407   0.00000  Uiso   1.00
H733   H     0.49055   0.46092   0.89376   0.00000  Uiso   1.00
H734   H     0.43785   0.41075   0.87555   0.00000  Uiso   1.00
H735   H     0.55752   0.35473   0.97582   0.00000  Uiso   1.00
H736   H     0.35623   0.41682   0.60713   0.00000  Uiso   1.00
H737   H     0.62379   0.54308   0.90963   0.00000  Uiso   1.00
H738   H     0.64592   0.55111   0.99779   0.00000  Uiso   1.00
H739   H     0.64247   0.37021   0.53332   0.00000  Uiso   1.00
H740   H     0.47170   0.51781   0.60070   0.00000  Uiso   1.00
H741   H     0.46667   0.38100   0.94267   0.00000  Uiso   1.00
H742   H     0.39936   0.33660   0.74440   0.00000  Uiso   1.00
N743   N     0.48029   0.48550   0.73740   0.00000  Uiso   1.00
N744   N     0.51971   0.51450   0.76261   0.00000  Uiso   1.00
N745   N     0.57593   0.55283   0.59283   0.00000  Uiso   1.00
N746   N     0.44771   0.45086   0.88203   0.00000  Uiso   1.00
O747   O     0.63052   0.57964   0.75310   0.00000  Uiso   1.00
O748   O     0.36948   0.42036   0.74691   0.00000  Uiso   1.00
O749   O     0.39155   0.57035   0.74502   0.00000  Uiso   1.00
O750   O     0.60845   0.42965   0.75499   0.00000  Uiso   1.00
O751   O     0.63662   0.50730   0.82247   0.00000  Uiso   1.00
O752   O     0.36338   0.49270   0.67753   0.00000  Uiso   1.00
O753   O     0.39764   0.49801   0.81439   0.00000  Uiso   1.00
O754   O     0.60236   0.50199   0.68561   0.00000  Uiso   1.00
Zn755  Zn    0.60366   0.50621   0.75540   0.00000  Uiso   1.00
Zn756  Zn    0.39634   0.49379   0.74461   0.00000  Uiso   1.00
C757   C     0.68171   0.59823   0.74875   0.00000  Uiso   1.00
C758   C     0.97832   0.49508   0.65887   0.00000  Uiso   1.00
C759   C     0.69681   0.49935   0.89450   0.00000  Uiso   1.00
C760   C     0.96409   0.47799   0.60797   0.00000  Uiso   1.00
C761   C     0.67241   0.52841   0.97522   0.00000  Uiso   1.00
C762   C     0.95825   0.40516   0.54792   0.00000  Uiso   1.00
C763   C     0.99335   0.52401   0.92495   0.00000  Uiso   1.00
C764   C     0.98600   0.43248   0.58895   0.00000  Uiso   1.00
C765   C     0.74250   0.47284   0.91475   0.00000  Uiso   1.00
C766   C     0.91672   0.49799   0.58443   0.00000  Uiso   1.00
C767   C     0.75362   0.47482   0.96635   0.00000  Uiso   1.00
C768   C     0.98494   0.40176   0.75116   0.00000  Uiso   1.00
C769   C     0.88245   0.46557   0.54921   0.00000  Uiso   1.00
C770   C     0.72107   0.50722   0.99561   0.00000  Uiso   1.00
C771   C     0.90561   0.42046   0.52876   0.00000  Uiso   1.00
C772   C     0.80107   0.45233   0.98930   0.00000  Uiso   1.00
C773   C     0.82608   0.47618   0.53378   0.00000  Uiso   1.00
C774   C     0.79223   0.50651   0.56291   0.00000  Uiso   1.00
C775   C     0.82338   0.40638   0.97077   0.00000  Uiso   1.00
C776   C     0.73943   0.52056   0.54438   0.00000  Uiso   1.00
C777   C     0.87484   0.39034   0.99065   0.00000  Uiso   1.00
C778   C     0.68954   0.65279   0.74800   0.00000  Uiso   1.00
C779   C     0.97708   0.34720   0.75178   0.00000  Uiso   1.00
C780   C     0.68785   0.50216   0.84132   0.00000  Uiso   1.00
H781   H     0.71478   0.54474   0.56729   0.00000  Uiso   1.00
H782   H     0.93393   0.66339   0.75536   0.00000  Uiso   1.00
H783   H     0.82897   0.45825   0.71376   0.00000  Uiso   1.00
H784   H     0.83769   0.54177   0.78621   0.00000  Uiso   1.00
H785   H     0.88795   0.56766   0.56249   0.00000  Uiso   1.00
H786   H     0.88700   0.55908   0.62407   0.00000  Uiso   1.00
H787   H     0.82389   0.46092   0.89376   0.00000  Uiso   1.00
H788   H     0.77118   0.41075   0.87555   0.00000  Uiso   1.00
H789   H     0.89085   0.35473   0.97582   0.00000  Uiso   1.00
H790   H     0.68956   0.41682   0.60713   0.00000  Uiso   1.00
H791   H     0.95712   0.54308   0.90963   0.00000  Uiso   1.00
H792   H     0.97926   0.55111   0.99779   0.00000  Uiso   1.00
H793   H     0.97581   0.37021   0.53332   0.00000  Uiso   1.00
H794   H     0.80503   0.51781   0.60070   0.00000  Uiso   1.00
H795   H     0.80001   0.38100   0.94267   0.00000  Uiso   1.00
H796   H     0.73269   0.33660   0.74440   0.00000  Uiso   1.00
N797   N     0.81362   0.48550   0.73740   0.00000  Uiso   1.00
N798   N     0.85305   0.51450   0.76261   0.00000  Uiso   1.00
N799   N     0.90926   0.55283   0.59283   0.00000  Uiso   1.00
N800   N     0.78104   0.45086   0.88203   0.00000  Uiso   1.00
O801   O     0.96386   0.57964   0.75310   0.00000  Uiso   1.00
O802   O     0.70281   0.42036   0.74691   0.00000  Uiso   1.00
O803   O     0.72488   0.57035   0.74502   0.00000  Uiso   1.00
O804   O     0.94178   0.42965   0.75499   0.00000  Uiso   1.00
O805   O     0.96995   0.50730   0.82247   0.00000  Uiso   1.00
O806   O     0.69672   0.49270   0.67753   0.00000  Uiso   1.00
O807   O     0.73098   0.49801   0.81439   0.00000  Uiso   1.00
O808   O     0.93569   0.50199   0.68561   0.00000  Uiso   1.00
Zn809  Zn    0.93700   0.50621   0.75540   0.00000  Uiso   1.00
Zn810  Zn    0.72967   0.49379   0.74461   0.00000  Uiso   1.00
C811   C     0.01504   0.93157   0.74875   0.00000  Uiso   1.00
C812   C     0.31166   0.82842   0.65887   0.00000  Uiso   1.00
C813   C     0.03014   0.83269   0.89450   0.00000  Uiso   1.00
C814   C     0.29742   0.81133   0.60797   0.00000  Uiso   1.00
C815   C     0.00575   0.86174   0.97522   0.00000  Uiso   1.00
C816   C     0.29158   0.73850   0.54792   0.00000  Uiso   1.00
C817   C     0.32669   0.85734   0.92495   0.00000  Uiso   1.00
C818   C     0.31934   0.76581   0.58895   0.00000  Uiso   1.00
C819   C     0.07583   0.80617   0.91475   0.00000  Uiso   1.00
C820   C     0.25005   0.83133   0.58443   0.00000  Uiso   1.00
C821   C     0.08695   0.80815   0.96635   0.00000  Uiso   1.00
C822   C     0.31827   0.73509   0.75116   0.00000  Uiso   1.00
C823   C     0.21579   0.79890   0.54921   0.00000  Uiso   1.00
C824   C     0.05440   0.84055   0.99561   0.00000  Uiso   1.00
C825   C     0.23894   0.75379   0.52876   0.00000  Uiso   1.00
C826   C     0.13441   0.78567   0.98930   0.00000  Uiso   1.00
C827   C     0.15942   0.80952   0.53378   0.00000  Uiso   1.00
C828   C     0.12556   0.83984   0.56291   0.00000  Uiso   1.00
C829   C     0.15671   0.73971   0.97077   0.00000  Uiso   1.00
C830   C     0.07277   0.85389   0.54438   0.00000  Uiso   1.00
C831   C     0.20817   0.72367   0.99065   0.00000  Uiso   1.00
C832   C     0.02288   0.98612   0.74800   0.00000  Uiso   1.00
C833   C     0.31042   0.68053   0.75178   0.00000  Uiso   1.00
C834   C     0.02118   0.83549   0.84132   0.00000  Uiso   1.00
H835   H     0.04812   0.87807   0.56729   0.00000  Uiso   1.00
H836   H     0.26727   0.99672   0.75536   0.00000  Uiso   1.00
H837   H     0.16231   0.79158   0.71376   0.00000  Uiso   1.00
H838   H     0.17102   0.87510   0.78621   0.00000  Uiso   1.00
H839   H     0.22128   0.90100   0.56249   0.00000  Uiso   1.00
H840   H     0.22034   0.89241   0.62407   0.00000  Uiso   1.00
H841   H     0.15722   0.79425   0.89376   0.00000  Uiso   1.00
H842   H     0.10451   0.74408   0.87555   0.00000  Uiso   1.00
H843   H     0.22419   0.68806   0.97582   0.00000  Uiso   1.00
H844   H     0.02289   0.75015   0.60713   0.00000  Uiso   1.00
H845   H     0.29046   0.87641   0.90963   0.00000  Uiso   1.00
H846   H     0.31259   0.88444   0.99779   0.00000  Uiso   1.00
H847   H     0.30914   0.70354   0.53332   0.00000  Uiso   1.00
H848   H     0.13837   0.85114   0.60070   0.00000  Uiso   1.00
H849   H     0.13334   0.71433   0.94267   0.00000  Uiso   1.00
H850   H     0.06603   0.66994   0.74440   0.00000  Uiso   1.00
N851   N     0.14695   0.81883   0.73740   0.00000  Uiso   1.00
N852   N     0.18638   0.84784   0.76261   0.00000  Uiso   1.00
N853   N     0.24260   0.88617   0.59283   0.00000  Uiso   1.00
N854   N     0.11437   0.78419   0.88203   0.00000  Uiso   1.00
O855   O     0.29719   0.91298   0.75310   0.00000  Uiso   1.00
O856   O     0.03614   0.75369   0.74691   0.00000  Uiso   1.00
O857   O     0.05822   0.90368   0.74502   0.00000  Uiso   1.00
O858   O     0.27512   0.76298   0.75499   0.00000  Uiso   1.00
O859   O     0.30328   0.84063   0.82247   0.00000  Uiso   1.00
O860   O     0.03005   0.82603   0.67753   0.00000  Uiso   1.00
O861   O     0.06431   0.83134   0.81439   0.00000  Uiso   1.00
O862   O     0.26902   0.83533   0.68561   0.00000  Uiso   1.00
Zn863  Zn    0.27033   0.83954   0.75540   0.00000  Uiso   1.00
Zn864  Zn    0.06300   0.82713   0.74461   0.00000  Uiso   1.00
C865   C     0.34838   0.93157   0.74875   0.00000  Uiso   1.00
C866   C     0.64499   0.82842   0.65887   0.00000  Uiso   1.00
C867   C     0.36348   0.83269   0.89450   0.00000  Uiso   1.00
C868   C     0.63075   0.81133   0.60797   0.00000  Uiso   1.00
C869   C     0.33908   0.86174   0.97522   0.00000  Uiso   1.00
C870   C     0.62491   0.73850   0.54792   0.00000  Uiso   1.00
C871   C     0.66002   0.85734   0.92495   0.00000  Uiso   1.00
C872   C     0.65267   0.76581   0.58895   0.00000  Uiso   1.00
C873   C     0.40917   0.80617   0.91475   0.00000  Uiso   1.00
C874   C     0.58339   0.83133   0.58443   0.00000  Uiso   1.00
C875   C     0.42029   0.80815   0.96635   0.00000  Uiso   1.00
C876   C     0.65160   0.73509   0.75116   0.00000  Uiso   1.00
C877   C     0.54912   0.79890   0.54921   0.00000  Uiso   1.00
C878   C     0.38774   0.84055   0.99561   0.00000  Uiso   1.00
C879   C     0.57227   0.75379   0.52876   0.00000  Uiso   1.00
C880   C     0.46774   0.78567   0.98930   0.00000  Uiso   1.00
C881   C     0.49275   0.80952   0.53378   0.00000  Uiso   1.00
C882   C     0.45889   0.83984   0.56291   0.00000  Uiso   1.00
C883   C     0.49004   0.73971   0.97077   0.00000  Uiso   1.00
C884   C     0.40610   0.85389   0.54438   0.00000  Uiso   1.00
C885   C     0.54151   0.72367   0.99065   0.00000  Uiso   1.00
C886   C     0.35621   0.98612   0.74800   0.00000  Uiso   1.00
C887   C     0.64375   0.68053   0.75178   0.00000  Uiso   1.00
C888   C     0.35452   0.83549   0.84132   0.00000  Uiso   1.00
H889   H     0.38145   0.87807   0.56729   0.00000  Uiso   1.00
H890   H     0.60060   0.99672   0.75536   0.00000  Uiso   1.00
H891   H     0.49564   0.79158   0.71376   0.00000  Uiso   1.00
H892   H     0.50435   0.87510   0.78621   0.00000  Uiso   1.00
H893   H     0.55462   0.90100   0.56249   0.00000  Uiso   1.00
H894   H     0.55367   0.89241   0.62407   0.00000  Uiso   1.00
H895   H     0.49055   0.79425   0.89376   0.00000  Uiso   1.00
H896   H     0.43785   0.74408   0.87555   0.00000  Uiso   1.00
H897   H     0.55752   0.68806   0.97582   0.00000  Uiso   1.00
H898   H     0.35623   0.75015   0.60713   0.00000  Uiso   1.00
H899   H     0.62379   0.87641   0.90963   0.00000  Uiso   1.00
H900   H     0.64592   0.88444   0.99779   0.00000  Uiso   1.00
H901   H     0.64247   0.70354   0.53332   0.00000  Uiso   1.00
H902   H     0.47170   0.85114   0.60070   0.00000  Uiso   1.00
H903   H     0.46667   0.71433   0.94267   0.00000  Uiso   1.00
H904   H     0.39936   0.66994   0.74440   0.00000  Uiso   1.00
N905   N     0.48029   0.81883   0.73740   0.00000  Uiso   1.00
N906   N     0.51971   0.84784   0.76261   0.00000  Uiso   1.00
N907   N     0.57593   0.88617   0.59283   0.00000  Uiso   1.00
N908   N     0.44771   0.78419   0.88203   0.00000  Uiso   1.00
O909   O     0.63052   0.91298   0.75310   0.00000  Uiso   1.00
O910   O     0.36948   0.75369   0.74691   0.00000  Uiso   1.00
O911   O     0.39155   0.90368   0.74502   0.00000  Uiso   1.00
O912   O     0.60845   0.76298   0.75499   0.00000  Uiso   1.00
O913   O     0.63662   0.84063   0.82247   0.00000  Uiso   1.00
O914   O     0.36338   0.82603   0.67753   0.00000  Uiso   1.00
O915   O     0.39764   0.83134   0.81439   0.00000  Uiso   1.00
O916   O     0.60236   0.83533   0.68561   0.00000  Uiso   1.00
Zn917  Zn    0.60366   0.83954   0.75540   0.00000  Uiso   1.00
Zn918  Zn    0.39634   0.82713   0.74461   0.00000  Uiso   1.00
C919   C     0.68171   0.93157   0.74875   0.00000  Uiso   1.00
C920   C     0.97832   0.82842   0.65887   0.00000  Uiso   1.00
C921   C     0.69681   0.83269   0.89450   0.00000  Uiso   1.00
C922   C     0.96409   0.81133   0.60797   0.00000  Uiso   1.00
C923   C     0.67241   0.86174   0.97522   0.00000  Uiso   1.00
C924   C     0.95825   0.73850   0.54792   0.00000  Uiso   1.00
C925   C     0.99335   0.85734   0.92495   0.00000  Uiso   1.00
C926   C     0.98600   0.76581   0.58895   0.00000  Uiso   1.00
C927   C     0.74250   0.80617   0.91475   0.00000  Uiso   1.00
C928   C     0.91672   0.83133   0.58443   0.00000  Uiso   1.00
C929   C     0.75362   0.80815   0.96635   0.00000  Uiso   1.00
C930   C     0.98494   0.73509   0.75116   0.00000  Uiso   1.00
C931   C     0.88245   0.79890   0.54921   0.00000  Uiso   1.00
C932   C     0.72107   0.84055   0.99561   0.00000  Uiso   1.00
C933   C     0.90561   0.75379   0.52876   0.00000  Uiso   1.00
C934   C     0.80107   0.78567   0.98930   0.00000  Uiso   1.00
C935   C     0.82608   0.80952   0.53378   0.00000  Uiso   1.00
C936   C     0.79223   0.83984   0.56291   0.00000  Uiso   1.00
C937   C     0.82338   0.73971   0.97077   0.00000  Uiso   1.00
C938   C     0.73943   0.85389   0.54438   0.00000  Uiso   1.00
C939   C     0.87484   0.72367   0.99065   0.00000  Uiso   1.00
C940   C     0.68954   0.98612   0.74800   0.00000  Uiso   1.00
C941   C     0.97708   0.68053   0.75178   0.00000  Uiso   1.00
C942   C     0.68785   0.83549   0.84132   0.00000  Uiso   1.00
H943   H     0.71478   0.87807   0.56729   0.00000  Uiso   1.00
H944   H     0.93393   0.99672   0.75536   0.00000  Uiso   1.00
H945   H     0.82897   0.79158   0.71376   0.00000  Uiso   1.00
H946   H     0.83769   0.87510   0.78621   0.00000  Uiso   1.00
H947   H     0.88795   0.90100   0.56249   0.00000  Uiso   1.00
H948   H     0.88700   0.89241   0.62407   0.00000  Uiso   1.00
H949   H     0.82389   0.79425   0.89376   0.00000  Uiso   1.00
H950   H     0.77118   0.74408   0.87555   0.00000  Uiso   1.00
H951   H     0.89085   0.68806   0.97582   0.00000  Uiso   1.00
H952   H     0.68956   0.75015   0.60713   0.00000  Uiso   1.00
H953   H     0.95712   0.87641   0.90963   0.00000  Uiso   1.00
H954   H     0.97926   0.88444   0.99779   0.00000  Uiso   1.00
H955   H     0.97581   0.70354   0.53332   0.00000  Uiso   1.00
H956   H     0.80503   0.85114   0.60070   0.00000  Uiso   1.00
H957   H     0.80001   0.71433   0.94267   0.00000  Uiso   1.00
H958   H     0.73269   0.66994   0.74440   0.00000  Uiso   1.00
N959   N     0.81362   0.81883   0.73740   0.00000  Uiso   1.00
N960   N     0.85305   0.84784   0.76261   0.00000  Uiso   1.00
N961   N     0.90926   0.88617   0.59283   0.00000  Uiso   1.00
N962   N     0.78104   0.78419   0.88203   0.00000  Uiso   1.00
O963   O     0.96386   0.91298   0.75310   0.00000  Uiso   1.00
O964   O     0.70281   0.75369   0.74691   0.00000  Uiso   1.00
O965   O     0.72488   0.90368   0.74502   0.00000  Uiso   1.00
O966   O     0.94178   0.76298   0.75499   0.00000  Uiso   1.00
O967   O     0.96995   0.84063   0.82247   0.00000  Uiso   1.00
O968   O     0.69672   0.82603   0.67753   0.00000  Uiso   1.00
O969   O     0.73098   0.83134   0.81439   0.00000  Uiso   1.00
O970   O     0.93569   0.83533   0.68561   0.00000  Uiso   1.00
Zn971  Zn    0.93700   0.83954   0.75540   0.00000  Uiso   1.00
Zn972  Zn    0.72967   0.82713   0.74461   0.00000  Uiso   1.00
loop_
_geom_bond_atom_site_label_1
_geom_bond_atom_site_label_2
_geom_bond_distance
_geom_bond_site_symmetry_2
_ccdc_geom_bond_type
C1     C22     1.403   .     S
C1     O47     1.289   .     A
C1     O153    1.276   1_455 S
C2     C4      1.450   .     S
C2     O52     1.296   .     A
C2     O104    1.292   .     S
C3     C9      1.410   .     A
C3     C24     1.465   .     S
C3     C115    1.401   1_455 S
C4     C10     1.392   .     A
C4     C8      1.401   .     A
C5     C14     1.396   .     A
C5     C115    1.386   1_455 S
C5     H144    1.084   1_455 S
C6     H37     1.084   .     S
C6     C8      1.391   .     A
C6     C15     1.401   .     A
C7     H35     1.083   .     S
C7     C57     1.401   .     S
C7     C59     1.386   .     S
C8     H88     1.083   .     S
C9     C11     1.419   .     A
C9     N44     1.439   .     S
C10    N43     1.441   .     S
C10    C13     1.410   .     A
C11    C14     1.423   .     A
C11    C16     1.417   .     A
C12    O48     1.289   .     A
C12    C23     1.402   .     S
C12    O100    1.276   .     S
C13    C17     1.412   .     A
C13    C15     1.420   .     A
C14    C506    1.394   .     S
C15    C507    1.395   1_554 S
C16    C19     1.410   .     A
C16    C503    1.408   .     S
C17    C18     1.409   .     A
C17    C502    1.408   1_554 S
C18    C20     1.387   .     A
C18    H38     1.078   .     S
C19    H39     1.077   .     S
C19    C21     1.390   .     A
C20    H25     1.084   .     S
C20    C500    1.394   1_554 S
C21    H33     1.084   .     S
C21    C501    1.395   .     S
C22    C293    1.339   1_455 S
C22    H202    1.088   .     S
C23    C400    1.339   1_545 S
C23    H350    1.088   1_545 S
C24    O51     1.299   .     A
C24    O157    1.295   1_455 S
H26    C185    1.088   .     S
H27    N41     1.029   .     S
H28    N42     1.029   .     S
H29    N43     1.045   .     S
H30    N43     1.044   .     S
H31    N44     1.045   .     S
H32    N44     1.044   .     S
H34    C116    1.083   1_455 S
H36    C59     1.084   .     S
H40    C346    1.088   1_545 S
N41    N42     1.285   .     D
N41    Zn54    2.019   .     S
N42    Zn53    2.019   .     S
O45    Zn53    1.952   .     S
O45    C55     1.276   .     S
O46    Zn54    1.952   .     S
O46    C120    1.276   1_455 S
O47    Zn54    1.979   .     S
O48    Zn53    1.979   .     S
O49    Zn53    1.945   .     S
O49    C78     1.295   .     S
O50    Zn54    1.945   .     S
O50    C110    1.292   1_455 S
O51    Zn54    1.908   .     S
O52    Zn53    1.908   .     S
C55    C76     1.403   .     S
C55    O101    1.289   .     A
C56    C58     1.450   .     S
C56    O106    1.296   .     A
C56    O158    1.292   .     S
C57    C63     1.410   .     A
C57    C78     1.465   .     S
C58    C64     1.392   .     A
C58    C62     1.401   .     A
C59    C68     1.396   .     A
C60    H91     1.084   .     S
C60    C62     1.391   .     A
C60    C69     1.401   .     A
C61    H89     1.083   .     S
C61    C111    1.401   .     S
C61    C113    1.386   .     S
C62    H142    1.083   .     S
C63    C65     1.419   .     A
C63    N98     1.439   .     S
C64    N97     1.441   .     S
C64    C67     1.410   .     A
C65    C68     1.423   .     A
C65    C70     1.417   .     A
C66    O102    1.289   .     A
C66    C77     1.402   .     S
C66    O154    1.276   .     S
C67    C71     1.412   .     A
C67    C69     1.420   .     A
C68    C560    1.394   .     S
C69    C561    1.395   1_554 S
C70    C73     1.410   .     A
C70    C557    1.408   .     S
C71    C72     1.409   .     A
C71    C556    1.408   1_554 S
C72    C74     1.387   .     A
C72    H92     1.078   .     S
C73    H93     1.077   .     S
C73    C75     1.390   .     A
C74    H79     1.084   .     S
C74    C554    1.394   1_554 S
C75    H87     1.084   .     S
C75    C555    1.395   .     S
C76    C185    1.339   .     S
C76    H256    1.088   .     S
C77    C454    1.339   1_545 S
C77    H404    1.088   1_545 S
C78    O105    1.299   .     A
H80    C239    1.088   .     S
H81    N95     1.029   .     S
H82    N96     1.029   .     S
H83    N97     1.045   .     S
H84    N97     1.044   .     S
H85    N98     1.045   .     S
H86    N98     1.044   .     S
H90    C113    1.084   .     S
H94    C400    1.088   1_545 S
N95    N96     1.285   .     D
N95    Zn108   2.019   .     S
N96    Zn107   2.019   .     S
O99    Zn107   1.952   .     S
O99    C109    1.276   .     S
O100   Zn108   1.952   .     S
O101   Zn108   1.979   .     S
O102   Zn107   1.979   .     S
O103   Zn107   1.945   .     S
O103   C132    1.295   .     S
O104   Zn108   1.945   .     S
O105   Zn108   1.908   .     S
O106   Zn107   1.908   .     S
C109   C130    1.403   .     S
C109   O155    1.289   .     A
C110   C112    1.450   .     S
C110   O160    1.296   .     A
C110   O50     1.292   1_655 S
C111   C117    1.410   .     A
C111   C132    1.465   .     S
C112   C118    1.392   .     A
C112   C116    1.401   .     A
C113   C122    1.396   .     A
C114   H145    1.084   .     S
C114   C116    1.391   .     A
C114   C123    1.401   .     A
C115   H143    1.083   .     S
C115   C3      1.401   1_655 S
C115   C5      1.386   1_655 S
C116   H34     1.083   1_655 S
C117   C119    1.419   .     A
C117   N152    1.439   .     S
C118   N151    1.441   .     S
C118   C121    1.410   .     A
C119   C122    1.423   .     A
C119   C124    1.417   .     A
C120   O156    1.289   .     A
C120   C131    1.402   .     S
C120   O46     1.276   1_655 S
C121   C125    1.412   .     A
C121   C123    1.420   .     A
C122   C614    1.394   .     S
C123   C615    1.395   1_554 S
C124   C127    1.410   .     A
C124   C611    1.408   .     S
C125   C126    1.409   .     A
C125   C610    1.408   1_554 S
C126   C128    1.387   .     A
C126   H146    1.078   .     S
C127   H147    1.077   .     S
C127   C129    1.390   .     A
C128   H133    1.084   .     S
C128   C608    1.394   1_554 S
C129   H141    1.084   .     S
C129   C609    1.395   .     S
C130   C239    1.339   .     S
C130   H310    1.088   .     S
C131   C346    1.339   1_645 S
C131   H458    1.088   1_545 S
C132   O159    1.299   .     A
H134   C293    1.088   .     S
H135   N149    1.029   .     S
H136   N150    1.029   .     S
H137   N151    1.045   .     S
H138   N151    1.044   .     S
H139   N152    1.045   .     S
H140   N152    1.044   .     S
H144   C5      1.084   1_655 S
H148   C454    1.088   1_545 S
N149   N150    1.285   .     D
N149   Zn162   2.019   .     S
N150   Zn161   2.019   .     S
O153   Zn161   1.952   .     S
O153   C1      1.276   1_655 S
O154   Zn162   1.952   .     S
O155   Zn162   1.979   .     S
O156   Zn161   1.979   .     S
O157   Zn161   1.945   .     S
O157   C24     1.295   1_655 S
O158   Zn162   1.945   .     S
O159   Zn162   1.908   .     S
O160   Zn161   1.908   .     S
C163   C184    1.403   .     S
C163   O209    1.289   .     A
C163   O315    1.276   1_455 S
C164   C166    1.450   .     S
C164   O214    1.296   .     A
C164   O266    1.292   .     S
C165   C171    1.410   .     A
C165   C186    1.465   .     S
C165   C277    1.401   1_455 S
C166   C172    1.392   .     A
C166   C170    1.401   .     A
C167   C176    1.396   .     A
C167   C277    1.386   1_455 S
C167   H306    1.084   1_455 S
C168   H199    1.084   .     S
C168   C170    1.391   .     A
C168   C177    1.401   .     A
C169   H197    1.083   .     S
C169   C219    1.401   .     S
C169   C221    1.386   .     S
C170   H250    1.083   .     S
C171   C173    1.419   .     A
C171   N206    1.439   .     S
C172   N205    1.441   .     S
C172   C175    1.410   .     A
C173   C176    1.423   .     A
C173   C178    1.417   .     A
C174   O210    1.289   .     A
C174   C185    1.402   .     S
C174   O262    1.276   .     S
C175   C179    1.412   .     A
C175   C177    1.420   .     A
C176   C668    1.394   .     S
C177   C669    1.395   1_554 S
C178   C181    1.410   .     A
C178   C665    1.408   .     S
C179   C180    1.409   .     A
C179   C664    1.408   1_554 S
C180   C182    1.387   .     A
C180   H200    1.078   .     S
C181   H201    1.077   .     S
C181   C183    1.390   .     A
C182   H187    1.084   .     S
C182   C662    1.394   1_554 S
C183   H195    1.084   .     S
C183   C663    1.395   .     S
C184   C455    1.339   1_455 S
C184   H364    1.088   .     S
C186   O213    1.299   .     A
C186   O319    1.295   1_455 S
H188   C347    1.088   .     S
H189   N203    1.029   .     S
H190   N204    1.029   .     S
H191   N205    1.045   .     S
H192   N205    1.044   .     S
H193   N206    1.045   .     S
H194   N206    1.044   .     S
H196   C278    1.083   1_455 S
H198   C221    1.084   .     S
N203   N204    1.285   .     D
N203   Zn216   2.019   .     S
N204   Zn215   2.019   .     S
O207   Zn215   1.952   .     S
O207   C217    1.276   .     S
O208   Zn216   1.952   .     S
O208   C282    1.276   1_455 S
O209   Zn216   1.979   .     S
O210   Zn215   1.979   .     S
O211   Zn215   1.945   .     S
O211   C240    1.295   .     S
O212   Zn216   1.945   .     S
O212   C272    1.292   1_455 S
O213   Zn216   1.908   .     S
O214   Zn215   1.908   .     S
C217   C238    1.403   .     S
C217   O263    1.289   .     A
C218   C220    1.450   .     S
C218   O268    1.296   .     A
C218   O320    1.292   .     S
C219   C225    1.410   .     A
C219   C240    1.465   .     S
C220   C226    1.392   .     A
C220   C224    1.401   .     A
C221   C230    1.396   .     A
C222   H253    1.084   .     S
C222   C224    1.391   .     A
C222   C231    1.401   .     A
C223   H251    1.083   .     S
C223   C273    1.401   .     S
C223   C275    1.386   .     S
C224   H304    1.083   .     S
C225   C227    1.419   .     A
C225   N260    1.439   .     S
C226   N259    1.441   .     S
C226   C229    1.410   .     A
C227   C230    1.423   .     A
C227   C232    1.417   .     A
C228   O264    1.289   .     A
C228   C239    1.402   .     S
C228   O316    1.276   .     S
C229   C233    1.412   .     A
C229   C231    1.420   .     A
C230   C722    1.394   .     S
C231   C723    1.395   1_554 S
C232   C235    1.410   .     A
C232   C719    1.408   .     S
C233   C234    1.409   .     A
C233   C718    1.408   1_554 S
C234   C236    1.387   .     A
C234   H254    1.078   .     S
C235   H255    1.077   .     S
C235   C237    1.390   .     A
C236   H241    1.084   .     S
C236   C716    1.394   1_554 S
C237   H249    1.084   .     S
C237   C717    1.395   .     S
C238   C347    1.339   .     S
C238   H418    1.088   .     S
C240   O267    1.299   .     A
H242   C401    1.088   .     S
H243   N257    1.029   .     S
H244   N258    1.029   .     S
H245   N259    1.045   .     S
H246   N259    1.044   .     S
H247   N260    1.045   .     S
H248   N260    1.044   .     S
H252   C275    1.084   .     S
N257   N258    1.285   .     D
N257   Zn270   2.019   .     S
N258   Zn269   2.019   .     S
O261   Zn269   1.952   .     S
O261   C271    1.276   .     S
O262   Zn270   1.952   .     S
O263   Zn270   1.979   .     S
O264   Zn269   1.979   .     S
O265   Zn269   1.945   .     S
O265   C294    1.295   .     S
O266   Zn270   1.945   .     S
O267   Zn270   1.908   .     S
O268   Zn269   1.908   .     S
C271   C292    1.403   .     S
C271   O317    1.289   .     A
C272   C274    1.450   .     S
C272   O322    1.296   .     A
C272   O212    1.292   1_655 S
C273   C279    1.410   .     A
C273   C294    1.465   .     S
C274   C280    1.392   .     A
C274   C278    1.401   .     A
C275   C284    1.396   .     A
C276   H307    1.084   .     S
C276   C278    1.391   .     A
C276   C285    1.401   .     A
C277   H305    1.083   .     S
C277   C165    1.401   1_655 S
C277   C167    1.386   1_655 S
C278   H196    1.083   1_655 S
C279   C281    1.419   .     A
C279   N314    1.439   .     S
C280   N313    1.441   .     S
C280   C283    1.410   .     A
C281   C284    1.423   .     A
C281   C286    1.417   .     A
C282   O318    1.289   .     A
C282   C293    1.402   .     S
C282   O208    1.276   1_655 S
C283   C287    1.412   .     A
C283   C285    1.420   .     A
C284   C776    1.394   .     S
C285   C777    1.395   1_554 S
C286   C289    1.410   .     A
C286   C773    1.408   .     S
C287   C288    1.409   .     A
C287   C772    1.408   1_554 S
C288   C290    1.387   .     A
C288   H308    1.078   .     S
C289   H309    1.077   .     S
C289   C291    1.390   .     A
C290   H295    1.084   .     S
C290   C770    1.394   1_554 S
C291   H303    1.084   .     S
C291   C771    1.395   .     S
C292   C401    1.339   .     S
C292   H472    1.088   .     S
C293   C22     1.339   1_655 S
C294   O321    1.299   .     A
H296   C455    1.088   .     S
H297   N311    1.029   .     S
H298   N312    1.029   .     S
H299   N313    1.045   .     S
H300   N313    1.044   .     S
H301   N314    1.045   .     S
H302   N314    1.044   .     S
H306   C167    1.084   1_655 S
N311   N312    1.285   .     D
N311   Zn324   2.019   .     S
N312   Zn323   2.019   .     S
O315   Zn323   1.952   .     S
O315   C163    1.276   1_655 S
O316   Zn324   1.952   .     S
O317   Zn324   1.979   .     S
O318   Zn323   1.979   .     S
O319   Zn323   1.945   .     S
O319   C186    1.295   1_655 S
O320   Zn324   1.945   .     S
O321   Zn324   1.908   .     S
O322   Zn323   1.908   .     S
C325   C346    1.403   .     S
C325   O371    1.289   .     A
C325   O477    1.276   1_455 S
C326   C328    1.450   .     S
C326   O376    1.296   .     A
C326   O428    1.292   .     S
C327   C333    1.410   .     A
C327   C348    1.465   .     S
C327   C439    1.401   1_455 S
C328   C334    1.392   .     A
C328   C332    1.401   .     A
C329   C338    1.396   .     A
C329   C439    1.386   1_455 S
C329   H468    1.084   1_455 S
C330   H361    1.084   .     S
C330   C332    1.391   .     A
C330   C339    1.401   .     A
C331   H359    1.083   .     S
C331   C381    1.401   .     S
C331   C383    1.386   .     S
C332   H412    1.083   .     S
C333   C335    1.419   .     A
C333   N368    1.439   .     S
C334   N367    1.441   .     S
C334   C337    1.410   .     A
C335   C338    1.423   .     A
C335   C340    1.417   .     A
C336   O372    1.289   .     A
C336   C347    1.402   .     S
C336   O424    1.276   .     S
C337   C341    1.412   .     A
C337   C339    1.420   .     A
C338   C830    1.394   .     S
C339   C831    1.395   1_554 S
C340   C343    1.410   .     A
C340   C827    1.408   .     S
C341   C342    1.409   .     A
C341   C826    1.408   1_554 S
C342   C344    1.387   .     A
C342   H362    1.078   .     S
C343   H363    1.077   .     S
C343   C345    1.390   .     A
C344   H349    1.084   .     S
C344   C824    1.394   1_554 S
C345   H357    1.084   .     S
C345   C825    1.395   .     S
C346   C131    1.339   1_465 S
C346   H40     1.088   1_565 S
C348   O375    1.299   .     A
C348   O481    1.295   1_455 S
H350   C23     1.088   1_565 S
H351   N365    1.029   .     S
H352   N366    1.029   .     S
H353   N367    1.045   .     S
H354   N367    1.044   .     S
H355   N368    1.045   .     S
H356   N368    1.044   .     S
H358   C440    1.083   1_455 S
H360   C383    1.084   .     S
N365   N366    1.285   .     D
N365   Zn378   2.019   .     S
N366   Zn377   2.019   .     S
O369   Zn377   1.952   .     S
O369   C379    1.276   .     S
O370   Zn378   1.952   .     S
O370   C444    1.276   1_455 S
O371   Zn378   1.979   .     S
O372   Zn377   1.979   .     S
O373   Zn377   1.945   .     S
O373   C402    1.295   .     S
O374   Zn378   1.945   .     S
O374   C434    1.292   1_455 S
O375   Zn378   1.908   .     S
O376   Zn377   1.908   .     S
C379   C400    1.403   .     S
C379   O425    1.289   .     A
C380   C382    1.450   .     S
C380   O430    1.296   .     A
C380   O482    1.292   .     S
C381   C387    1.410   .     A
C381   C402    1.465   .     S
C382   C388    1.392   .     A
C382   C386    1.401   .     A
C383   C392    1.396   .     A
C384   H415    1.084   .     S
C384   C386    1.391   .     A
C384   C393    1.401   .     A
C385   H413    1.083   .     S
C385   C435    1.401   .     S
C385   C437    1.386   .     S
C386   H466    1.083   .     S
C387   C389    1.419   .     A
C387   N422    1.439   .     S
C388   N421    1.441   .     S
C388   C391    1.410   .     A
C389   C392    1.423   .     A
C389   C394    1.417   .     A
C390   O426    1.289   .     A
C390   C401    1.402   .     S
C390   O478    1.276   .     S
C391   C395    1.412   .     A
C391   C393    1.420   .     A
C392   C884    1.394   .     S
C393   C885    1.395   1_554 S
C394   C397    1.410   .     A
C394   C881    1.408   .     S
C395   C396    1.409   .     A
C395   C880    1.408   1_554 S
C396   C398    1.387   .     A
C396   H416    1.078   .     S
C397   H417    1.077   .     S
C397   C399    1.390   .     A
C398   H403    1.084   .     S
C398   C878    1.394   1_554 S
C399   H411    1.084   .     S
C399   C879    1.395   .     S
C400   C23     1.339   1_565 S
C400   H94     1.088   1_565 S
C402   O429    1.299   .     A
H404   C77     1.088   1_565 S
H405   N419    1.029   .     S
H406   N420    1.029   .     S
H407   N421    1.045   .     S
H408   N421    1.044   .     S
H409   N422    1.045   .     S
H410   N422    1.044   .     S
H414   C437    1.084   .     S
N419   N420    1.285   .     D
N419   Zn432   2.019   .     S
N420   Zn431   2.019   .     S
O423   Zn431   1.952   .     S
O423   C433    1.276   .     S
O424   Zn432   1.952   .     S
O425   Zn432   1.979   .     S
O426   Zn431   1.979   .     S
O427   Zn431   1.945   .     S
O427   C456    1.295   .     S
O428   Zn432   1.945   .     S
O429   Zn432   1.908   .     S
O430   Zn431   1.908   .     S
C433   C454    1.403   .     S
C433   O479    1.289   .     A
C434   C436    1.450   .     S
C434   O484    1.296   .     A
C434   O374    1.292   1_655 S
C435   C441    1.410   .     A
C435   C456    1.465   .     S
C436   C442    1.392   .     A
C436   C440    1.401   .     A
C437   C446    1.396   .     A
C438   H469    1.084   .     S
C438   C440    1.391   .     A
C438   C447    1.401   .     A
C439   H467    1.083   .     S
C439   C327    1.401   1_655 S
C439   C329    1.386   1_655 S
C440   H358    1.083   1_655 S
C441   C443    1.419   .     A
C441   N476    1.439   .     S
C442   N475    1.441   .     S
C442   C445    1.410   .     A
C443   C446    1.423   .     A
C443   C448    1.417   .     A
C444   O480    1.289   .     A
C444   C455    1.402   .     S
C444   O370    1.276   1_655 S
C445   C449    1.412   .     A
C445   C447    1.420   .     A
C446   C938    1.394   .     S
C447   C939    1.395   1_554 S
C448   C451    1.410   .     A
C448   C935    1.408   .     S
C449   C450    1.409   .     A
C449   C934    1.408   1_554 S
C450   C452    1.387   .     A
C450   H470    1.078   .     S
C451   H471    1.077   .     S
C451   C453    1.390   .     A
C452   H457    1.084   .     S
C452   C932    1.394   1_554 S
C453   H465    1.084   .     S
C453   C933    1.395   .     S
C454   C77     1.339   1_565 S
C454   H148    1.088   1_565 S
C455   C184    1.339   1_655 S
C456   O483    1.299   .     A
H458   C131    1.088   1_565 S
H459   N473    1.029   .     S
H460   N474    1.029   .     S
H461   N475    1.045   .     S
H462   N475    1.044   .     S
H463   N476    1.045   .     S
H464   N476    1.044   .     S
H468   C329    1.084   1_655 S
N473   N474    1.285   .     D
N473   Zn486   2.019   .     S
N474   Zn485   2.019   .     S
O477   Zn485   1.952   .     S
O477   C325    1.276   1_655 S
O478   Zn486   1.952   .     S
O479   Zn486   1.979   .     S
O480   Zn485   1.979   .     S
O481   Zn485   1.945   .     S
O481   C348    1.295   1_655 S
O482   Zn486   1.945   .     S
O483   Zn486   1.908   .     S
O484   Zn485   1.908   .     S
C487   C508    1.403   .     S
C487   O533    1.289   .     A
C487   O639    1.276   1_455 S
C488   C490    1.450   .     S
C488   O538    1.296   .     A
C488   O590    1.292   .     S
C489   C495    1.410   .     A
C489   C510    1.465   .     S
C489   C601    1.401   1_455 S
C490   C496    1.392   .     A
C490   C494    1.401   .     A
C491   C500    1.396   .     A
C491   C601    1.386   1_455 S
C491   H630    1.084   1_455 S
C492   H523    1.084   .     S
C492   C494    1.391   .     A
C492   C501    1.401   .     A
C493   H521    1.083   .     S
C493   C543    1.401   .     S
C493   C545    1.386   .     S
C494   H574    1.083   .     S
C495   C497    1.419   .     A
C495   N530    1.439   .     S
C496   N529    1.441   .     S
C496   C499    1.410   .     A
C497   C500    1.423   .     A
C497   C502    1.417   .     A
C498   O534    1.289   .     A
C498   C509    1.402   .     S
C498   O586    1.276   .     S
C499   C503    1.412   .     A
C499   C501    1.420   .     A
C500   C20     1.394   1_556 S
C502   C505    1.410   .     A
C502   C17     1.408   1_556 S
C503   C504    1.409   .     A
C504   C506    1.387   .     A
C504   H524    1.078   .     S
C505   H525    1.077   .     S
C505   C507    1.390   .     A
C506   H511    1.084   .     S
C507   H519    1.084   .     S
C507   C15     1.395   1_556 S
C508   C779    1.339   1_455 S
C508   H688    1.088   .     S
C509   C886    1.339   1_545 S
C509   H836    1.088   1_545 S
C510   O537    1.299   .     A
C510   O643    1.295   1_455 S
H512   C671    1.088   .     S
H513   N527    1.029   .     S
H514   N528    1.029   .     S
H515   N529    1.045   .     S
H516   N529    1.044   .     S
H517   N530    1.045   .     S
H518   N530    1.044   .     S
H520   C602    1.083   1_455 S
H522   C545    1.084   .     S
H526   C832    1.088   1_545 S
N527   N528    1.285   .     D
N527   Zn540   2.019   .     S
N528   Zn539   2.019   .     S
O531   Zn539   1.952   .     S
O531   C541    1.276   .     S
O532   Zn540   1.952   .     S
O532   C606    1.276   1_455 S
O533   Zn540   1.979   .     S
O534   Zn539   1.979   .     S
O535   Zn539   1.945   .     S
O535   C564    1.295   .     S
O536   Zn540   1.945   .     S
O536   C596    1.292   1_455 S
O537   Zn540   1.908   .     S
O538   Zn539   1.908   .     S
C541   C562    1.403   .     S
C541   O587    1.289   .     A
C542   C544    1.450   .     S
C542   O592    1.296   .     A
C542   O644    1.292   .     S
C543   C549    1.410   .     A
C543   C564    1.465   .     S
C544   C550    1.392   .     A
C544   C548    1.401   .     A
C545   C554    1.396   .     A
C546   H577    1.084   .     S
C546   C548    1.391   .     A
C546   C555    1.401   .     A
C547   H575    1.083   .     S
C547   C597    1.401   .     S
C547   C599    1.386   .     S
C548   H628    1.083   .     S
C549   C551    1.419   .     A
C549   N584    1.439   .     S
C550   N583    1.441   .     S
C550   C553    1.410   .     A
C551   C554    1.423   .     A
C551   C556    1.417   .     A
C552   O588    1.289   .     A
C552   C563    1.402   .     S
C552   O640    1.276   .     S
C553   C557    1.412   .     A
C553   C555    1.420   .     A
C554   C74     1.394   1_556 S
C556   C559    1.410   .     A
C556   C71     1.408   1_556 S
C557   C558    1.409   .     A
C558   C560    1.387   .     A
C558   H578    1.078   .     S
C559   H579    1.077   .     S
C559   C561    1.390   .     A
C560   H565    1.084   .     S
C561   H573    1.084   .     S
C561   C69     1.395   1_556 S
C562   C671    1.339   .     S
C562   H742    1.088   .     S
C563   C940    1.339   1_545 S
C563   H890    1.088   1_545 S
C564   O591    1.299   .     A
H566   C725    1.088   .     S
H567   N581    1.029   .     S
H568   N582    1.029   .     S
H569   N583    1.045   .     S
H570   N583    1.044   .     S
H571   N584    1.045   .     S
H572   N584    1.044   .     S
H576   C599    1.084   .     S
H580   C886    1.088   1_545 S
N581   N582    1.285   .     D
N581   Zn594   2.019   .     S
N582   Zn593   2.019   .     S
O585   Zn593   1.952   .     S
O585   C595    1.276   .     S
O586   Zn594   1.952   .     S
O587   Zn594   1.979   .     S
O588   Zn593   1.979   .     S
O589   Zn593   1.945   .     S
O589   C618    1.295   .     S
O590   Zn594   1.945   .     S
O591   Zn594   1.908   .     S
O592   Zn593   1.908   .     S
C595   C616    1.403   .     S
C595   O641    1.289   .     A
C596   C598    1.450   .     S
C596   O646    1.296   .     A
C596   O536    1.292   1_655 S
C597   C603    1.410   .     A
C597   C618    1.465   .     S
C598   C604    1.392   .     A
C598   C602    1.401   .     A
C599   C608    1.396   .     A
C600   H631    1.084   .     S
C600   C602    1.391   .     A
C600   C609    1.401   .     A
C601   H629    1.083   .     S
C601   C489    1.401   1_655 S
C601   C491    1.386   1_655 S
C602   H520    1.083   1_655 S
C603   C605    1.419   .     A
C603   N638    1.439   .     S
C604   N637    1.441   .     S
C604   C607    1.410   .     A
C605   C608    1.423   .     A
C605   C610    1.417   .     A
C606   O642    1.289   .     A
C606   C617    1.402   .     S
C606   O532    1.276   1_655 S
C607   C611    1.412   .     A
C607   C609    1.420   .     A
C608   C128    1.394   1_556 S
C610   C613    1.410   .     A
C610   C125    1.408   1_556 S
C611   C612    1.409   .     A
C612   C614    1.387   .     A
C612   H632    1.078   .     S
C613   H633    1.077   .     S
C613   C615    1.390   .     A
C614   H619    1.084   .     S
C615   H627    1.084   .     S
C615   C123    1.395   1_556 S
C616   C725    1.339   .     S
C616   H796    1.088   .     S
C617   C832    1.339   1_645 S
C617   H944    1.088   1_545 S
C618   O645    1.299   .     A
H620   C779    1.088   .     S
H621   N635    1.029   .     S
H622   N636    1.029   .     S
H623   N637    1.045   .     S
H624   N637    1.044   .     S
H625   N638    1.045   .     S
H626   N638    1.044   .     S
H630   C491    1.084   1_655 S
H634   C940    1.088   1_545 S
N635   N636    1.285   .     D
N635   Zn648   2.019   .     S
N636   Zn647   2.019   .     S
O639   Zn647   1.952   .     S
O639   C487    1.276   1_655 S
O640   Zn648   1.952   .     S
O641   Zn648   1.979   .     S
O642   Zn647   1.979   .     S
O643   Zn647   1.945   .     S
O643   C510    1.295   1_655 S
O644   Zn648   1.945   .     S
O645   Zn648   1.908   .     S
O646   Zn647   1.908   .     S
C649   C670    1.403   .     S
C649   O695    1.289   .     A
C649   O801    1.276   1_455 S
C650   C652    1.450   .     S
C650   O700    1.296   .     A
C650   O752    1.292   .     S
C651   C657    1.410   .     A
C651   C672    1.465   .     S
C651   C763    1.401   1_455 S
C652   C658    1.392   .     A
C652   C656    1.401   .     A
C653   C662    1.396   .     A
C653   C763    1.386   1_455 S
C653   H792    1.084   1_455 S
C654   H685    1.084   .     S
C654   C656    1.391   .     A
C654   C663    1.401   .     A
C655   H683    1.083   .     S
C655   C705    1.401   .     S
C655   C707    1.386   .     S
C656   H736    1.083   .     S
C657   C659    1.419   .     A
C657   N692    1.439   .     S
C658   N691    1.441   .     S
C658   C661    1.410   .     A
C659   C662    1.423   .     A
C659   C664    1.417   .     A
C660   O696    1.289   .     A
C660   C671    1.402   .     S
C660   O748    1.276   .     S
C661   C665    1.412   .     A
C661   C663    1.420   .     A
C662   C182    1.394   1_556 S
C664   C667    1.410   .     A
C664   C179    1.408   1_556 S
C665   C666    1.409   .     A
C666   C668    1.387   .     A
C666   H686    1.078   .     S
C667   H687    1.077   .     S
C667   C669    1.390   .     A
C668   H673    1.084   .     S
C669   H681    1.084   .     S
C669   C177    1.395   1_556 S
C670   C941    1.339   1_455 S
C670   H850    1.088   .     S
C672   O699    1.299   .     A
C672   O805    1.295   1_455 S
H674   C833    1.088   .     S
H675   N689    1.029   .     S
H676   N690    1.029   .     S
H677   N691    1.045   .     S
H678   N691    1.044   .     S
H679   N692    1.045   .     S
H680   N692    1.044   .     S
H682   C764    1.083   1_455 S
H684   C707    1.084   .     S
N689   N690    1.285   .     D
N689   Zn702   2.019   .     S
N690   Zn701   2.019   .     S
O693   Zn701   1.952   .     S
O693   C703    1.276   .     S
O694   Zn702   1.952   .     S
O694   C768    1.276   1_455 S
O695   Zn702   1.979   .     S
O696   Zn701   1.979   .     S
O697   Zn701   1.945   .     S
O697   C726    1.295   .     S
O698   Zn702   1.945   .     S
O698   C758    1.292   1_455 S
O699   Zn702   1.908   .     S
O700   Zn701   1.908   .     S
C703   C724    1.403   .     S
C703   O749    1.289   .     A
C704   C706    1.450   .     S
C704   O754    1.296   .     A
C704   O806    1.292   .     S
C705   C711    1.410   .     A
C705   C726    1.465   .     S
C706   C712    1.392   .     A
C706   C710    1.401   .     A
C707   C716    1.396   .     A
C708   H739    1.084   .     S
C708   C710    1.391   .     A
C708   C717    1.401   .     A
C709   H737    1.083   .     S
C709   C759    1.401   .     S
C709   C761    1.386   .     S
C710   H790    1.083   .     S
C711   C713    1.419   .     A
C711   N746    1.439   .     S
C712   N745    1.441   .     S
C712   C715    1.410   .     A
C713   C716    1.423   .     A
C713   C718    1.417   .     A
C714   O750    1.289   .     A
C714   C725    1.402   .     S
C714   O802    1.276   .     S
C715   C719    1.412   .     A
C715   C717    1.420   .     A
C716   C236    1.394   1_556 S
C718   C721    1.410   .     A
C718   C233    1.408   1_556 S
C719   C720    1.409   .     A
C720   C722    1.387   .     A
C720   H740    1.078   .     S
C721   H741    1.077   .     S
C721   C723    1.390   .     A
C722   H727    1.084   .     S
C723   H735    1.084   .     S
C723   C231    1.395   1_556 S
C724   C833    1.339   .     S
C724   H904    1.088   .     S
C726   O753    1.299   .     A
H728   C887    1.088   .     S
H729   N743    1.029   .     S
H730   N744    1.029   .     S
H731   N745    1.045   .     S
H732   N745    1.044   .     S
H733   N746    1.045   .     S
H734   N746    1.044   .     S
H738   C761    1.084   .     S
N743   N744    1.285   .     D
N743   Zn756   2.019   .     S
N744   Zn755   2.019   .     S
O747   Zn755   1.952   .     S
O747   C757    1.276   .     S
O748   Zn756   1.952   .     S
O749   Zn756   1.979   .     S
O750   Zn755   1.979   .     S
O751   Zn755   1.945   .     S
O751   C780    1.295   .     S
O752   Zn756   1.945   .     S
O753   Zn756   1.908   .     S
O754   Zn755   1.908   .     S
C757   C778    1.403   .     S
C757   O803    1.289   .     A
C758   C760    1.450   .     S
C758   O808    1.296   .     A
C758   O698    1.292   1_655 S
C759   C765    1.410   .     A
C759   C780    1.465   .     S
C760   C766    1.392   .     A
C760   C764    1.401   .     A
C761   C770    1.396   .     A
C762   H793    1.084   .     S
C762   C764    1.391   .     A
C762   C771    1.401   .     A
C763   H791    1.083   .     S
C763   C651    1.401   1_655 S
C763   C653    1.386   1_655 S
C764   H682    1.083   1_655 S
C765   C767    1.419   .     A
C765   N800    1.439   .     S
C766   N799    1.441   .     S
C766   C769    1.410   .     A
C767   C770    1.423   .     A
C767   C772    1.417   .     A
C768   O804    1.289   .     A
C768   C779    1.402   .     S
C768   O694    1.276   1_655 S
C769   C773    1.412   .     A
C769   C771    1.420   .     A
C770   C290    1.394   1_556 S
C772   C775    1.410   .     A
C772   C287    1.408   1_556 S
C773   C774    1.409   .     A
C774   C776    1.387   .     A
C774   H794    1.078   .     S
C775   H795    1.077   .     S
C775   C777    1.390   .     A
C776   H781    1.084   .     S
C777   H789    1.084   .     S
C777   C285    1.395   1_556 S
C778   C887    1.339   .     S
C778   H958    1.088   .     S
C779   C508    1.339   1_655 S
C780   O807    1.299   .     A
H782   C941    1.088   .     S
H783   N797    1.029   .     S
H784   N798    1.029   .     S
H785   N799    1.045   .     S
H786   N799    1.044   .     S
H787   N800    1.045   .     S
H788   N800    1.044   .     S
H792   C653    1.084   1_655 S
N797   N798    1.285   .     D
N797   Zn810   2.019   .     S
N798   Zn809   2.019   .     S
O801   Zn809   1.952   .     S
O801   C649    1.276   1_655 S
O802   Zn810   1.952   .     S
O803   Zn810   1.979   .     S
O804   Zn809   1.979   .     S
O805   Zn809   1.945   .     S
O805   C672    1.295   1_655 S
O806   Zn810   1.945   .     S
O807   Zn810   1.908   .     S
O808   Zn809   1.908   .     S
C811   C832    1.403   .     S
C811   O857    1.289   .     A
C811   O963    1.276   1_455 S
C812   C814    1.450   .     S
C812   O862    1.296   .     A
C812   O914    1.292   .     S
C813   C819    1.410   .     A
C813   C834    1.465   .     S
C813   C925    1.401   1_455 S
C814   C820    1.392   .     A
C814   C818    1.401   .     A
C815   C824    1.396   .     A
C815   C925    1.386   1_455 S
C815   H954    1.084   1_455 S
C816   H847    1.084   .     S
C816   C818    1.391   .     A
C816   C825    1.401   .     A
C817   H845    1.083   .     S
C817   C867    1.401   .     S
C817   C869    1.386   .     S
C818   H898    1.083   .     S
C819   C821    1.419   .     A
C819   N854    1.439   .     S
C820   N853    1.441   .     S
C820   C823    1.410   .     A
C821   C824    1.423   .     A
C821   C826    1.417   .     A
C822   O858    1.289   .     A
C822   C833    1.402   .     S
C822   O910    1.276   .     S
C823   C827    1.412   .     A
C823   C825    1.420   .     A
C824   C344    1.394   1_556 S
C826   C829    1.410   .     A
C826   C341    1.408   1_556 S
C827   C828    1.409   .     A
C828   C830    1.387   .     A
C828   H848    1.078   .     S
C829   H849    1.077   .     S
C829   C831    1.390   .     A
C830   H835    1.084   .     S
C831   H843    1.084   .     S
C831   C339    1.395   1_556 S
C832   C617    1.339   1_465 S
C832   H526    1.088   1_565 S
C834   O861    1.299   .     A
C834   O967    1.295   1_455 S
H836   C509    1.088   1_565 S
H837   N851    1.029   .     S
H838   N852    1.029   .     S
H839   N853    1.045   .     S
H840   N853    1.044   .     S
H841   N854    1.045   .     S
H842   N854    1.044   .     S
H844   C926    1.083   1_455 S
H846   C869    1.084   .     S
N851   N852    1.285   .     D
N851   Zn864   2.019   .     S
N852   Zn863   2.019   .     S
O855   Zn863   1.952   .     S
O855   C865    1.276   .     S
O856   Zn864   1.952   .     S
O856   C930    1.276   1_455 S
O857   Zn864   1.979   .     S
O858   Zn863   1.979   .     S
O859   Zn863   1.945   .     S
O859   C888    1.295   .     S
O860   Zn864   1.945   .     S
O860   C920    1.292   1_455 S
O861   Zn864   1.908   .     S
O862   Zn863   1.908   .     S
C865   C886    1.403   .     S
C865   O911    1.289   .     A
C866   C868    1.450   .     S
C866   O916    1.296   .     A
C866   O968    1.292   .     S
C867   C873    1.410   .     A
C867   C888    1.465   .     S
C868   C874    1.392   .     A
C868   C872    1.401   .     A
C869   C878    1.396   .     A
C870   H901    1.084   .     S
C870   C872    1.391   .     A
C870   C879    1.401   .     A
C871   H899    1.083   .     S
C871   C921    1.401   .     S
C871   C923    1.386   .     S
C872   H952    1.083   .     S
C873   C875    1.419   .     A
C873   N908    1.439   .     S
C874   N907    1.441   .     S
C874   C877    1.410   .     A
C875   C878    1.423   .     A
C875   C880    1.417   .     A
C876   O912    1.289   .     A
C876   C887    1.402   .     S
C876   O964    1.276   .     S
C877   C881    1.412   .     A
C877   C879    1.420   .     A
C878   C398    1.394   1_556 S
C880   C883    1.410   .     A
C880   C395    1.408   1_556 S
C881   C882    1.409   .     A
C882   C884    1.387   .     A
C882   H902    1.078   .     S
C883   H903    1.077   .     S
C883   C885    1.390   .     A
C884   H889    1.084   .     S
C885   H897    1.084   .     S
C885   C393    1.395   1_556 S
C886   C509    1.339   1_565 S
C886   H580    1.088   1_565 S
C888   O915    1.299   .     A
H890   C563    1.088   1_565 S
H891   N905    1.029   .     S
H892   N906    1.029   .     S
H893   N907    1.045   .     S
H894   N907    1.044   .     S
H895   N908    1.045   .     S
H896   N908    1.044   .     S
H900   C923    1.084   .     S
N905   N906    1.285   .     D
N905   Zn918   2.019   .     S
N906   Zn917   2.019   .     S
O909   Zn917   1.952   .     S
O909   C919    1.276   .     S
O910   Zn918   1.952   .     S
O911   Zn918   1.979   .     S
O912   Zn917   1.979   .     S
O913   Zn917   1.945   .     S
O913   C942    1.295   .     S
O914   Zn918   1.945   .     S
O915   Zn918   1.908   .     S
O916   Zn917   1.908   .     S
C919   C940    1.403   .     S
C919   O965    1.289   .     A
C920   C922    1.450   .     S
C920   O970    1.296   .     A
C920   O860    1.292   1_655 S
C921   C927    1.410   .     A
C921   C942    1.465   .     S
C922   C928    1.392   .     A
C922   C926    1.401   .     A
C923   C932    1.396   .     A
C924   H955    1.084   .     S
C924   C926    1.391   .     A
C924   C933    1.401   .     A
C925   H953    1.083   .     S
C925   C813    1.401   1_655 S
C925   C815    1.386   1_655 S
C926   H844    1.083   1_655 S
C927   C929    1.419   .     A
C927   N962    1.439   .     S
C928   N961    1.441   .     S
C928   C931    1.410   .     A
C929   C932    1.423   .     A
C929   C934    1.417   .     A
C930   O966    1.289   .     A
C930   C941    1.402   .     S
C930   O856    1.276   1_655 S
C931   C935    1.412   .     A
C931   C933    1.420   .     A
C932   C452    1.394   1_556 S
C934   C937    1.410   .     A
C934   C449    1.408   1_556 S
C935   C936    1.409   .     A
C936   C938    1.387   .     A
C936   H956    1.078   .     S
C937   H957    1.077   .     S
C937   C939    1.390   .     A
C938   H943    1.084   .     S
C939   H951    1.084   .     S
C939   C447    1.395   1_556 S
C940   C563    1.339   1_565 S
C940   H634    1.088   1_565 S
C941   C670    1.339   1_655 S
C942   O969    1.299   .     A
H944   C617    1.088   1_565 S
H945   N959    1.029   .     S
H946   N960    1.029   .     S
H947   N961    1.045   .     S
H948   N961    1.044   .     S
H949   N962    1.045   .     S
H950   N962    1.044   .     S
H954   C815    1.084   1_655 S
N959   N960    1.285   .     D
N959   Zn972   2.019   .     S
N960   Zn971   2.019   .     S
O963   Zn971   1.952   .     S
O963   C811    1.276   1_655 S
O964   Zn972   1.952   .     S
O965   Zn972   1.979   .     S
O966   Zn971   1.979   .     S
O967   Zn971   1.945   .     S
O967   C834    1.295   1_655 S
O968   Zn972   1.945   .     S
O969   Zn972   1.908   .     S
O970   Zn971   1.908   .     S
