data_str_m3_o1_o16_pcu_sym.84
_audit_creation_date              2020-01-03
_audit_creation_method            'Materials Studio'
_symmetry_space_group_name_H-M    'P1'
_symmetry_Int_Tables_number       1
_symmetry_cell_setting            triclinic
loop_
_symmetry_equiv_pos_as_xyz
  x,y,z
_cell_length_a                    29.6179
_cell_length_b                    31.9439
_cell_length_c                    26.1082
_cell_angle_alpha                 90.1622
_cell_angle_beta                  71.0461
_cell_angle_gamma                 89.8238
loop_
_atom_site_label
_atom_site_type_symbol
_atom_site_fract_x
_atom_site_fract_y
_atom_site_fract_z
_atom_site_U_iso_or_equiv
_atom_site_adp_type
_atom_site_occupancy
C1     C     0.16664   0.24645   0.25009   0.00000  Uiso   1.00
C2     C     0.12730   0.14467   0.40703   0.00000  Uiso   1.00
C3     C     0.17030   0.31165   0.29578   0.00000  Uiso   1.00
C4     C     0.14111   0.16059   0.35113   0.00000  Uiso   1.00
C5     C     0.16933   0.02172   0.29596   0.00000  Uiso   1.00
C6     C     0.16655   0.04264   0.24957   0.00000  Uiso   1.00
C7     C     0.16319   0.02154   0.20351   0.00000  Uiso   1.00
C8     C     0.16399   0.31142   0.20336   0.00000  Uiso   1.00
C9     C     0.16689   0.29056   0.24977   0.00000  Uiso   1.00
C10    C     0.32026   0.14453   0.21158   0.00000  Uiso   1.00
C11    C     0.03508   0.14463   0.21185   0.00000  Uiso   1.00
C12    C     0.14908   0.13271   0.48813   0.00000  Uiso   1.00
C13    C     0.01231   0.18862   0.28874   0.00000  Uiso   1.00
C14    C     0.29787   0.18826   0.28835   0.00000  Uiso   1.00
C15    C     0.16680   0.08684   0.24951   0.00000  Uiso   1.00
C16    C     0.19295   0.16715   0.14766   0.00000  Uiso   1.00
C17    C     0.26813   0.15819   0.49984   0.00000  Uiso   1.00
C18    C     0.20865   0.16204   0.08874   0.00000  Uiso   1.00
C19    C     0.07892   0.14114   0.43757   0.00000  Uiso   1.00
C20    C     0.06566   0.13056   0.49210   0.00000  Uiso   1.00
C21    C     0.09998   0.12830   0.01801   0.00000  Uiso   1.00
C22    C     0.28953   0.19628   0.07228   0.00000  Uiso   1.00
C23    C     0.16245   0.13393   0.43124   0.00000  Uiso   1.00
C24    C     0.16104   0.04514   0.15487   0.00000  Uiso   1.00
C25    C     0.02298   0.21360   0.33118   0.00000  Uiso   1.00
C26    C     0.17248   0.28812   0.34449   0.00000  Uiso   1.00
C27    C     0.18535   0.13909   0.01203   0.00000  Uiso   1.00
C28    C     0.23365   0.14248   0.47882   0.00000  Uiso   1.00
C29    C     0.24634   0.13187   0.42430   0.00000  Uiso   1.00
C30    C     0.21089   0.12594   0.40110   0.00000  Uiso   1.00
C31    C     0.17455   0.14632   0.06715   0.00000  Uiso   1.00
C32    C     0.25540   0.17089   0.05417   0.00000  Uiso   1.00
H33    H     0.06233   0.12705   0.18161   0.00000  Uiso   1.00
H34    H     0.27868   0.21124   0.11166   0.00000  Uiso   1.00
H35    H     0.15490   0.07060   0.34398   0.00000  Uiso   1.00
H36    H     0.17210   0.07755   0.14913   0.00000  Uiso   1.00
H37    H     0.17524   0.26149   0.15644   0.00000  Uiso   1.00
H38    H     0.00284   0.10850   0.14818   0.00000  Uiso   1.00
H39    H     0.05853   0.22418   0.32630   0.00000  Uiso   1.00
H40    H     0.16129   0.25570   0.35045   0.00000  Uiso   1.00
H41    H     0.27031   0.20572   0.31842   0.00000  Uiso   1.00
H42    H     0.28347   0.13022   0.39906   0.00000  Uiso   1.00
H43    H     0.30407   0.16334   0.47280   0.00000  Uiso   1.00
H44    H     0.13889   0.14105   0.09395   0.00000  Uiso   1.00
H45    H     0.05146   0.14646   0.41925   0.00000  Uiso   1.00
H46    H     0.08705   0.12270   0.06102   0.00000  Uiso   1.00
H47    H     0.02838   0.12621   0.01515   0.00000  Uiso   1.00
H48    H     0.22225   0.11624   0.35917   0.00000  Uiso   1.00
N49    N     0.04760   0.16668   0.25001   0.00000  Uiso   1.00
N50    N     0.28573   0.16665   0.25000   0.00000  Uiso   1.00
O51    O     0.12846   0.22775   0.25000   0.00000  Uiso   1.00
O52    O     0.16972   0.04268   0.34232   0.00000  Uiso   1.00
O53    O     0.14637   0.02896   0.12091   0.00000  Uiso   1.00
O54    O     0.16324   0.29046   0.15704   0.00000  Uiso   1.00
O55    O     0.30738   0.12234   0.17318   0.00000  Uiso   1.00
O56    O     0.32460   0.22347   0.37272   0.00000  Uiso   1.00
O57    O     0.18735   0.30435   0.37825   0.00000  Uiso   1.00
O58    O     0.20490   0.22774   0.25000   0.00000  Uiso   1.00
O59    O     0.10947   0.16666   0.32681   0.00000  Uiso   1.00
O60    O     0.18591   0.16665   0.32681   0.00000  Uiso   1.00
O61    O     0.12843   0.10559   0.24999   0.00000  Uiso   1.00
O62    O     0.20488   0.10558   0.24999   0.00000  Uiso   1.00
O63    O     0.14742   0.16668   0.17319   0.00000  Uiso   1.00
O64    O     0.22387   0.16667   0.17319   0.00000  Uiso   1.00
O65    O     0.33006   0.20267   0.04217   0.00000  Uiso   1.00
Zn66   Zn    0.11562   0.16667   0.25000   0.00000  Uiso   1.00
Zn67   Zn    0.21771   0.16666   0.25000   0.00000  Uiso   1.00
C68    C     0.49997   0.24645   0.25009   0.00000  Uiso   1.00
C69    C     0.46063   0.14467   0.40703   0.00000  Uiso   1.00
C70    C     0.50364   0.31165   0.29578   0.00000  Uiso   1.00
C71    C     0.47444   0.16059   0.35113   0.00000  Uiso   1.00
C72    C     0.50266   0.02172   0.29596   0.00000  Uiso   1.00
C73    C     0.49989   0.04264   0.24957   0.00000  Uiso   1.00
C74    C     0.49652   0.02154   0.20351   0.00000  Uiso   1.00
C75    C     0.49733   0.31142   0.20336   0.00000  Uiso   1.00
C76    C     0.50023   0.29056   0.24977   0.00000  Uiso   1.00
C77    C     0.65359   0.14453   0.21158   0.00000  Uiso   1.00
C78    C     0.36841   0.14463   0.21185   0.00000  Uiso   1.00
C79    C     0.48241   0.13271   0.48813   0.00000  Uiso   1.00
C80    C     0.34565   0.18862   0.28874   0.00000  Uiso   1.00
C81    C     0.63120   0.18826   0.28835   0.00000  Uiso   1.00
C82    C     0.50014   0.08684   0.24951   0.00000  Uiso   1.00
C83    C     0.52629   0.16715   0.14766   0.00000  Uiso   1.00
C84    C     0.60147   0.15819   0.49984   0.00000  Uiso   1.00
C85    C     0.54198   0.16204   0.08874   0.00000  Uiso   1.00
C86    C     0.41225   0.14114   0.43757   0.00000  Uiso   1.00
C87    C     0.39899   0.13056   0.49210   0.00000  Uiso   1.00
C88    C     0.43332   0.12830   0.01801   0.00000  Uiso   1.00
C89    C     0.62287   0.19628   0.07228   0.00000  Uiso   1.00
C90    C     0.49579   0.13393   0.43124   0.00000  Uiso   1.00
C91    C     0.49437   0.04514   0.15487   0.00000  Uiso   1.00
C92    C     0.35632   0.21360   0.33118   0.00000  Uiso   1.00
C93    C     0.50582   0.28812   0.34449   0.00000  Uiso   1.00
C94    C     0.51868   0.13909   0.01203   0.00000  Uiso   1.00
C95    C     0.56698   0.14248   0.47882   0.00000  Uiso   1.00
C96    C     0.57967   0.13187   0.42430   0.00000  Uiso   1.00
C97    C     0.54422   0.12594   0.40110   0.00000  Uiso   1.00
C98    C     0.50789   0.14632   0.06715   0.00000  Uiso   1.00
C99    C     0.58873   0.17089   0.05417   0.00000  Uiso   1.00
H100   H     0.39566   0.12705   0.18161   0.00000  Uiso   1.00
H101   H     0.61201   0.21124   0.11166   0.00000  Uiso   1.00
H102   H     0.48823   0.07060   0.34398   0.00000  Uiso   1.00
H103   H     0.50544   0.07755   0.14913   0.00000  Uiso   1.00
H104   H     0.50858   0.26149   0.15644   0.00000  Uiso   1.00
H105   H     0.33617   0.10850   0.14818   0.00000  Uiso   1.00
H106   H     0.39187   0.22418   0.32630   0.00000  Uiso   1.00
H107   H     0.49463   0.25570   0.35045   0.00000  Uiso   1.00
H108   H     0.60364   0.20572   0.31842   0.00000  Uiso   1.00
H109   H     0.61681   0.13022   0.39906   0.00000  Uiso   1.00
H110   H     0.63740   0.16334   0.47280   0.00000  Uiso   1.00
H111   H     0.47223   0.14105   0.09395   0.00000  Uiso   1.00
H112   H     0.38479   0.14646   0.41925   0.00000  Uiso   1.00
H113   H     0.42038   0.12270   0.06102   0.00000  Uiso   1.00
H114   H     0.36172   0.12621   0.01515   0.00000  Uiso   1.00
H115   H     0.55558   0.11624   0.35917   0.00000  Uiso   1.00
N116   N     0.38093   0.16668   0.25001   0.00000  Uiso   1.00
N117   N     0.61906   0.16665   0.25000   0.00000  Uiso   1.00
O118   O     0.46179   0.22775   0.25000   0.00000  Uiso   1.00
O119   O     0.50305   0.04268   0.34232   0.00000  Uiso   1.00
O120   O     0.47970   0.02896   0.12091   0.00000  Uiso   1.00
O121   O     0.49657   0.29046   0.15704   0.00000  Uiso   1.00
O122   O     0.64071   0.12234   0.17318   0.00000  Uiso   1.00
O123   O     0.65794   0.22347   0.37272   0.00000  Uiso   1.00
O124   O     0.52068   0.30435   0.37825   0.00000  Uiso   1.00
O125   O     0.53823   0.22774   0.25000   0.00000  Uiso   1.00
O126   O     0.44280   0.16666   0.32681   0.00000  Uiso   1.00
O127   O     0.51924   0.16665   0.32681   0.00000  Uiso   1.00
O128   O     0.46177   0.10559   0.24999   0.00000  Uiso   1.00
O129   O     0.53821   0.10558   0.24999   0.00000  Uiso   1.00
O130   O     0.48076   0.16668   0.17319   0.00000  Uiso   1.00
O131   O     0.55720   0.16667   0.17319   0.00000  Uiso   1.00
O132   O     0.66339   0.20267   0.04217   0.00000  Uiso   1.00
Zn133  Zn    0.44896   0.16667   0.25000   0.00000  Uiso   1.00
Zn134  Zn    0.55104   0.16666   0.25000   0.00000  Uiso   1.00
C135   C     0.83330   0.24645   0.25009   0.00000  Uiso   1.00
C136   C     0.79396   0.14467   0.40703   0.00000  Uiso   1.00
C137   C     0.83697   0.31165   0.29578   0.00000  Uiso   1.00
C138   C     0.80778   0.16059   0.35113   0.00000  Uiso   1.00
C139   C     0.83599   0.02172   0.29596   0.00000  Uiso   1.00
C140   C     0.83322   0.04264   0.24957   0.00000  Uiso   1.00
C141   C     0.82986   0.02154   0.20351   0.00000  Uiso   1.00
C142   C     0.83066   0.31142   0.20336   0.00000  Uiso   1.00
C143   C     0.83356   0.29056   0.24977   0.00000  Uiso   1.00
C144   C     0.98692   0.14453   0.21158   0.00000  Uiso   1.00
C145   C     0.70174   0.14463   0.21185   0.00000  Uiso   1.00
C146   C     0.81575   0.13271   0.48813   0.00000  Uiso   1.00
C147   C     0.67898   0.18862   0.28874   0.00000  Uiso   1.00
C148   C     0.96454   0.18826   0.28835   0.00000  Uiso   1.00
C149   C     0.83347   0.08684   0.24951   0.00000  Uiso   1.00
C150   C     0.85962   0.16715   0.14766   0.00000  Uiso   1.00
C151   C     0.93480   0.15819   0.49984   0.00000  Uiso   1.00
C152   C     0.87531   0.16204   0.08874   0.00000  Uiso   1.00
C153   C     0.74558   0.14114   0.43757   0.00000  Uiso   1.00
C154   C     0.73233   0.13056   0.49210   0.00000  Uiso   1.00
C155   C     0.76665   0.12830   0.01801   0.00000  Uiso   1.00
C156   C     0.95620   0.19628   0.07228   0.00000  Uiso   1.00
C157   C     0.82912   0.13393   0.43124   0.00000  Uiso   1.00
C158   C     0.82770   0.04514   0.15487   0.00000  Uiso   1.00
C159   C     0.68965   0.21360   0.33118   0.00000  Uiso   1.00
C160   C     0.83915   0.28812   0.34449   0.00000  Uiso   1.00
C161   C     0.85201   0.13909   0.01203   0.00000  Uiso   1.00
C162   C     0.90032   0.14248   0.47882   0.00000  Uiso   1.00
C163   C     0.91300   0.13187   0.42430   0.00000  Uiso   1.00
C164   C     0.87755   0.12594   0.40110   0.00000  Uiso   1.00
C165   C     0.84122   0.14632   0.06715   0.00000  Uiso   1.00
C166   C     0.92206   0.17089   0.05417   0.00000  Uiso   1.00
H167   H     0.72900   0.12705   0.18161   0.00000  Uiso   1.00
H168   H     0.94535   0.21124   0.11166   0.00000  Uiso   1.00
H169   H     0.82157   0.07060   0.34398   0.00000  Uiso   1.00
H170   H     0.83877   0.07755   0.14913   0.00000  Uiso   1.00
H171   H     0.84191   0.26149   0.15644   0.00000  Uiso   1.00
H172   H     0.66951   0.10850   0.14818   0.00000  Uiso   1.00
H173   H     0.72520   0.22418   0.32630   0.00000  Uiso   1.00
H174   H     0.82796   0.25570   0.35045   0.00000  Uiso   1.00
H175   H     0.93697   0.20572   0.31842   0.00000  Uiso   1.00
H176   H     0.95014   0.13022   0.39906   0.00000  Uiso   1.00
H177   H     0.97073   0.16334   0.47280   0.00000  Uiso   1.00
H178   H     0.80556   0.14105   0.09395   0.00000  Uiso   1.00
H179   H     0.71813   0.14646   0.41925   0.00000  Uiso   1.00
H180   H     0.75371   0.12270   0.06102   0.00000  Uiso   1.00
H181   H     0.69505   0.12621   0.01515   0.00000  Uiso   1.00
H182   H     0.88892   0.11624   0.35917   0.00000  Uiso   1.00
N183   N     0.71426   0.16668   0.25001   0.00000  Uiso   1.00
N184   N     0.95239   0.16665   0.25000   0.00000  Uiso   1.00
O185   O     0.79512   0.22775   0.25000   0.00000  Uiso   1.00
O186   O     0.83639   0.04268   0.34232   0.00000  Uiso   1.00
O187   O     0.81304   0.02896   0.12091   0.00000  Uiso   1.00
O188   O     0.82991   0.29046   0.15704   0.00000  Uiso   1.00
O189   O     0.97405   0.12234   0.17318   0.00000  Uiso   1.00
O190   O     0.99127   0.22347   0.37272   0.00000  Uiso   1.00
O191   O     0.85402   0.30435   0.37825   0.00000  Uiso   1.00
O192   O     0.87157   0.22774   0.25000   0.00000  Uiso   1.00
O193   O     0.77613   0.16666   0.32681   0.00000  Uiso   1.00
O194   O     0.85258   0.16665   0.32681   0.00000  Uiso   1.00
O195   O     0.79510   0.10559   0.24999   0.00000  Uiso   1.00
O196   O     0.87154   0.10558   0.24999   0.00000  Uiso   1.00
O197   O     0.81409   0.16668   0.17319   0.00000  Uiso   1.00
O198   O     0.89053   0.16667   0.17319   0.00000  Uiso   1.00
O199   O     0.99673   0.20267   0.04217   0.00000  Uiso   1.00
Zn200  Zn    0.78229   0.16667   0.25000   0.00000  Uiso   1.00
Zn201  Zn    0.88438   0.16666   0.25000   0.00000  Uiso   1.00
C202   C     0.16664   0.57978   0.25009   0.00000  Uiso   1.00
C203   C     0.12730   0.47800   0.40703   0.00000  Uiso   1.00
C204   C     0.17030   0.64498   0.29578   0.00000  Uiso   1.00
C205   C     0.14111   0.49392   0.35113   0.00000  Uiso   1.00
C206   C     0.16933   0.35505   0.29596   0.00000  Uiso   1.00
C207   C     0.16655   0.37597   0.24957   0.00000  Uiso   1.00
C208   C     0.16319   0.35488   0.20351   0.00000  Uiso   1.00
C209   C     0.16399   0.64475   0.20336   0.00000  Uiso   1.00
C210   C     0.16689   0.62390   0.24977   0.00000  Uiso   1.00
C211   C     0.32026   0.47787   0.21158   0.00000  Uiso   1.00
C212   C     0.03508   0.47797   0.21185   0.00000  Uiso   1.00
C213   C     0.14908   0.46605   0.48813   0.00000  Uiso   1.00
C214   C     0.01231   0.52196   0.28874   0.00000  Uiso   1.00
C215   C     0.29787   0.52160   0.28835   0.00000  Uiso   1.00
C216   C     0.16680   0.42017   0.24951   0.00000  Uiso   1.00
C217   C     0.19295   0.50049   0.14766   0.00000  Uiso   1.00
C218   C     0.26813   0.49153   0.49984   0.00000  Uiso   1.00
C219   C     0.20865   0.49537   0.08874   0.00000  Uiso   1.00
C220   C     0.07892   0.47447   0.43757   0.00000  Uiso   1.00
C221   C     0.06566   0.46390   0.49210   0.00000  Uiso   1.00
C222   C     0.09998   0.46164   0.01801   0.00000  Uiso   1.00
C223   C     0.28953   0.52961   0.07228   0.00000  Uiso   1.00
C224   C     0.16245   0.46726   0.43124   0.00000  Uiso   1.00
C225   C     0.16104   0.37847   0.15487   0.00000  Uiso   1.00
C226   C     0.02298   0.54693   0.33118   0.00000  Uiso   1.00
C227   C     0.17248   0.62145   0.34449   0.00000  Uiso   1.00
C228   C     0.18535   0.47243   0.01203   0.00000  Uiso   1.00
C229   C     0.23365   0.47581   0.47882   0.00000  Uiso   1.00
C230   C     0.24634   0.46520   0.42430   0.00000  Uiso   1.00
C231   C     0.21089   0.45928   0.40110   0.00000  Uiso   1.00
C232   C     0.17455   0.47965   0.06715   0.00000  Uiso   1.00
C233   C     0.25540   0.50423   0.05417   0.00000  Uiso   1.00
H234   H     0.06233   0.46039   0.18161   0.00000  Uiso   1.00
H235   H     0.27868   0.54458   0.11166   0.00000  Uiso   1.00
H236   H     0.15490   0.40393   0.34398   0.00000  Uiso   1.00
H237   H     0.17210   0.41088   0.14913   0.00000  Uiso   1.00
H238   H     0.17524   0.59483   0.15644   0.00000  Uiso   1.00
H239   H     0.00284   0.44183   0.14818   0.00000  Uiso   1.00
H240   H     0.05853   0.55752   0.32630   0.00000  Uiso   1.00
H241   H     0.16129   0.58903   0.35045   0.00000  Uiso   1.00
H242   H     0.27031   0.53905   0.31842   0.00000  Uiso   1.00
H243   H     0.28347   0.46355   0.39906   0.00000  Uiso   1.00
H244   H     0.30407   0.49668   0.47280   0.00000  Uiso   1.00
H245   H     0.13889   0.47439   0.09395   0.00000  Uiso   1.00
H246   H     0.05146   0.47980   0.41925   0.00000  Uiso   1.00
H247   H     0.08705   0.45603   0.06102   0.00000  Uiso   1.00
H248   H     0.02838   0.45955   0.01515   0.00000  Uiso   1.00
H249   H     0.22225   0.44958   0.35917   0.00000  Uiso   1.00
N250   N     0.04760   0.50001   0.25001   0.00000  Uiso   1.00
N251   N     0.28573   0.49998   0.25000   0.00000  Uiso   1.00
O252   O     0.12846   0.56108   0.25000   0.00000  Uiso   1.00
O253   O     0.16972   0.37601   0.34232   0.00000  Uiso   1.00
O254   O     0.14637   0.36229   0.12091   0.00000  Uiso   1.00
O255   O     0.16324   0.62379   0.15704   0.00000  Uiso   1.00
O256   O     0.30738   0.45567   0.17318   0.00000  Uiso   1.00
O257   O     0.32460   0.55680   0.37272   0.00000  Uiso   1.00
O258   O     0.18735   0.63768   0.37825   0.00000  Uiso   1.00
O259   O     0.20490   0.56107   0.25000   0.00000  Uiso   1.00
O260   O     0.10947   0.50000   0.32681   0.00000  Uiso   1.00
O261   O     0.18591   0.49999   0.32681   0.00000  Uiso   1.00
O262   O     0.12843   0.43893   0.24999   0.00000  Uiso   1.00
O263   O     0.20488   0.43892   0.24999   0.00000  Uiso   1.00
O264   O     0.14742   0.50001   0.17319   0.00000  Uiso   1.00
O265   O     0.22387   0.50000   0.17319   0.00000  Uiso   1.00
O266   O     0.33006   0.53600   0.04217   0.00000  Uiso   1.00
Zn267  Zn    0.11562   0.50001   0.25000   0.00000  Uiso   1.00
Zn268  Zn    0.21771   0.49999   0.25000   0.00000  Uiso   1.00
C269   C     0.49997   0.57978   0.25009   0.00000  Uiso   1.00
C270   C     0.46063   0.47800   0.40703   0.00000  Uiso   1.00
C271   C     0.50364   0.64498   0.29578   0.00000  Uiso   1.00
C272   C     0.47444   0.49392   0.35113   0.00000  Uiso   1.00
C273   C     0.50266   0.35505   0.29596   0.00000  Uiso   1.00
C274   C     0.49989   0.37597   0.24957   0.00000  Uiso   1.00
C275   C     0.49652   0.35488   0.20351   0.00000  Uiso   1.00
C276   C     0.49733   0.64475   0.20336   0.00000  Uiso   1.00
C277   C     0.50023   0.62390   0.24977   0.00000  Uiso   1.00
C278   C     0.65359   0.47787   0.21158   0.00000  Uiso   1.00
C279   C     0.36841   0.47797   0.21185   0.00000  Uiso   1.00
C280   C     0.48241   0.46605   0.48813   0.00000  Uiso   1.00
C281   C     0.34565   0.52196   0.28874   0.00000  Uiso   1.00
C282   C     0.63120   0.52160   0.28835   0.00000  Uiso   1.00
C283   C     0.50014   0.42017   0.24951   0.00000  Uiso   1.00
C284   C     0.52629   0.50049   0.14766   0.00000  Uiso   1.00
C285   C     0.60147   0.49153   0.49984   0.00000  Uiso   1.00
C286   C     0.54198   0.49537   0.08874   0.00000  Uiso   1.00
C287   C     0.41225   0.47447   0.43757   0.00000  Uiso   1.00
C288   C     0.39899   0.46390   0.49210   0.00000  Uiso   1.00
C289   C     0.43332   0.46164   0.01801   0.00000  Uiso   1.00
C290   C     0.62287   0.52961   0.07228   0.00000  Uiso   1.00
C291   C     0.49579   0.46726   0.43124   0.00000  Uiso   1.00
C292   C     0.49437   0.37847   0.15487   0.00000  Uiso   1.00
C293   C     0.35632   0.54693   0.33118   0.00000  Uiso   1.00
C294   C     0.50582   0.62145   0.34449   0.00000  Uiso   1.00
C295   C     0.51868   0.47243   0.01203   0.00000  Uiso   1.00
C296   C     0.56698   0.47581   0.47882   0.00000  Uiso   1.00
C297   C     0.57967   0.46520   0.42430   0.00000  Uiso   1.00
C298   C     0.54422   0.45928   0.40110   0.00000  Uiso   1.00
C299   C     0.50789   0.47965   0.06715   0.00000  Uiso   1.00
C300   C     0.58873   0.50423   0.05417   0.00000  Uiso   1.00
H301   H     0.39566   0.46039   0.18161   0.00000  Uiso   1.00
H302   H     0.61201   0.54458   0.11166   0.00000  Uiso   1.00
H303   H     0.48823   0.40393   0.34398   0.00000  Uiso   1.00
H304   H     0.50544   0.41088   0.14913   0.00000  Uiso   1.00
H305   H     0.50858   0.59483   0.15644   0.00000  Uiso   1.00
H306   H     0.33617   0.44183   0.14818   0.00000  Uiso   1.00
H307   H     0.39187   0.55752   0.32630   0.00000  Uiso   1.00
H308   H     0.49463   0.58903   0.35045   0.00000  Uiso   1.00
H309   H     0.60364   0.53905   0.31842   0.00000  Uiso   1.00
H310   H     0.61681   0.46355   0.39906   0.00000  Uiso   1.00
H311   H     0.63740   0.49668   0.47280   0.00000  Uiso   1.00
H312   H     0.47223   0.47439   0.09395   0.00000  Uiso   1.00
H313   H     0.38479   0.47980   0.41925   0.00000  Uiso   1.00
H314   H     0.42038   0.45603   0.06102   0.00000  Uiso   1.00
H315   H     0.36172   0.45955   0.01515   0.00000  Uiso   1.00
H316   H     0.55558   0.44958   0.35917   0.00000  Uiso   1.00
N317   N     0.38093   0.50001   0.25001   0.00000  Uiso   1.00
N318   N     0.61906   0.49998   0.25000   0.00000  Uiso   1.00
O319   O     0.46179   0.56108   0.25000   0.00000  Uiso   1.00
O320   O     0.50305   0.37601   0.34232   0.00000  Uiso   1.00
O321   O     0.47970   0.36229   0.12091   0.00000  Uiso   1.00
O322   O     0.49657   0.62379   0.15704   0.00000  Uiso   1.00
O323   O     0.64071   0.45567   0.17318   0.00000  Uiso   1.00
O324   O     0.65794   0.55680   0.37272   0.00000  Uiso   1.00
O325   O     0.52068   0.63768   0.37825   0.00000  Uiso   1.00
O326   O     0.53823   0.56107   0.25000   0.00000  Uiso   1.00
O327   O     0.44280   0.50000   0.32681   0.00000  Uiso   1.00
O328   O     0.51924   0.49999   0.32681   0.00000  Uiso   1.00
O329   O     0.46177   0.43893   0.24999   0.00000  Uiso   1.00
O330   O     0.53821   0.43892   0.24999   0.00000  Uiso   1.00
O331   O     0.48076   0.50001   0.17319   0.00000  Uiso   1.00
O332   O     0.55720   0.50000   0.17319   0.00000  Uiso   1.00
O333   O     0.66339   0.53600   0.04217   0.00000  Uiso   1.00
Zn334  Zn    0.44896   0.50001   0.25000   0.00000  Uiso   1.00
Zn335  Zn    0.55104   0.49999   0.25000   0.00000  Uiso   1.00
C336   C     0.83330   0.57978   0.25009   0.00000  Uiso   1.00
C337   C     0.79396   0.47800   0.40703   0.00000  Uiso   1.00
C338   C     0.83697   0.64498   0.29578   0.00000  Uiso   1.00
C339   C     0.80778   0.49392   0.35113   0.00000  Uiso   1.00
C340   C     0.83599   0.35505   0.29596   0.00000  Uiso   1.00
C341   C     0.83322   0.37597   0.24957   0.00000  Uiso   1.00
C342   C     0.82986   0.35488   0.20351   0.00000  Uiso   1.00
C343   C     0.83066   0.64475   0.20336   0.00000  Uiso   1.00
C344   C     0.83356   0.62390   0.24977   0.00000  Uiso   1.00
C345   C     0.98692   0.47787   0.21158   0.00000  Uiso   1.00
C346   C     0.70174   0.47797   0.21185   0.00000  Uiso   1.00
C347   C     0.81575   0.46605   0.48813   0.00000  Uiso   1.00
C348   C     0.67898   0.52196   0.28874   0.00000  Uiso   1.00
C349   C     0.96454   0.52160   0.28835   0.00000  Uiso   1.00
C350   C     0.83347   0.42017   0.24951   0.00000  Uiso   1.00
C351   C     0.85962   0.50049   0.14766   0.00000  Uiso   1.00
C352   C     0.93480   0.49153   0.49984   0.00000  Uiso   1.00
C353   C     0.87531   0.49537   0.08874   0.00000  Uiso   1.00
C354   C     0.74558   0.47447   0.43757   0.00000  Uiso   1.00
C355   C     0.73233   0.46390   0.49210   0.00000  Uiso   1.00
C356   C     0.76665   0.46164   0.01801   0.00000  Uiso   1.00
C357   C     0.95620   0.52961   0.07228   0.00000  Uiso   1.00
C358   C     0.82912   0.46726   0.43124   0.00000  Uiso   1.00
C359   C     0.82770   0.37847   0.15487   0.00000  Uiso   1.00
C360   C     0.68965   0.54693   0.33118   0.00000  Uiso   1.00
C361   C     0.83915   0.62145   0.34449   0.00000  Uiso   1.00
C362   C     0.85201   0.47243   0.01203   0.00000  Uiso   1.00
C363   C     0.90032   0.47581   0.47882   0.00000  Uiso   1.00
C364   C     0.91300   0.46520   0.42430   0.00000  Uiso   1.00
C365   C     0.87755   0.45928   0.40110   0.00000  Uiso   1.00
C366   C     0.84122   0.47965   0.06715   0.00000  Uiso   1.00
C367   C     0.92206   0.50423   0.05417   0.00000  Uiso   1.00
H368   H     0.72900   0.46039   0.18161   0.00000  Uiso   1.00
H369   H     0.94535   0.54458   0.11166   0.00000  Uiso   1.00
H370   H     0.82157   0.40393   0.34398   0.00000  Uiso   1.00
H371   H     0.83877   0.41088   0.14913   0.00000  Uiso   1.00
H372   H     0.84191   0.59483   0.15644   0.00000  Uiso   1.00
H373   H     0.66951   0.44183   0.14818   0.00000  Uiso   1.00
H374   H     0.72520   0.55752   0.32630   0.00000  Uiso   1.00
H375   H     0.82796   0.58903   0.35045   0.00000  Uiso   1.00
H376   H     0.93697   0.53905   0.31842   0.00000  Uiso   1.00
H377   H     0.95014   0.46355   0.39906   0.00000  Uiso   1.00
H378   H     0.97073   0.49668   0.47280   0.00000  Uiso   1.00
H379   H     0.80556   0.47439   0.09395   0.00000  Uiso   1.00
H380   H     0.71813   0.47980   0.41925   0.00000  Uiso   1.00
H381   H     0.75371   0.45603   0.06102   0.00000  Uiso   1.00
H382   H     0.69505   0.45955   0.01515   0.00000  Uiso   1.00
H383   H     0.88892   0.44958   0.35917   0.00000  Uiso   1.00
N384   N     0.71426   0.50001   0.25001   0.00000  Uiso   1.00
N385   N     0.95239   0.49998   0.25000   0.00000  Uiso   1.00
O386   O     0.79512   0.56108   0.25000   0.00000  Uiso   1.00
O387   O     0.83639   0.37601   0.34232   0.00000  Uiso   1.00
O388   O     0.81304   0.36229   0.12091   0.00000  Uiso   1.00
O389   O     0.82991   0.62379   0.15704   0.00000  Uiso   1.00
O390   O     0.97405   0.45567   0.17318   0.00000  Uiso   1.00
O391   O     0.99127   0.55680   0.37272   0.00000  Uiso   1.00
O392   O     0.85402   0.63768   0.37825   0.00000  Uiso   1.00
O393   O     0.87157   0.56107   0.25000   0.00000  Uiso   1.00
O394   O     0.77613   0.50000   0.32681   0.00000  Uiso   1.00
O395   O     0.85258   0.49999   0.32681   0.00000  Uiso   1.00
O396   O     0.79510   0.43893   0.24999   0.00000  Uiso   1.00
O397   O     0.87154   0.43892   0.24999   0.00000  Uiso   1.00
O398   O     0.81409   0.50001   0.17319   0.00000  Uiso   1.00
O399   O     0.89053   0.50000   0.17319   0.00000  Uiso   1.00
O400   O     0.99673   0.53600   0.04217   0.00000  Uiso   1.00
Zn401  Zn    0.78229   0.50001   0.25000   0.00000  Uiso   1.00
Zn402  Zn    0.88438   0.49999   0.25000   0.00000  Uiso   1.00
C403   C     0.16664   0.91312   0.25009   0.00000  Uiso   1.00
C404   C     0.12730   0.81133   0.40703   0.00000  Uiso   1.00
C405   C     0.17030   0.97831   0.29578   0.00000  Uiso   1.00
C406   C     0.14111   0.82726   0.35113   0.00000  Uiso   1.00
C407   C     0.16933   0.68838   0.29596   0.00000  Uiso   1.00
C408   C     0.16655   0.70930   0.24957   0.00000  Uiso   1.00
C409   C     0.16319   0.68821   0.20351   0.00000  Uiso   1.00
C410   C     0.16399   0.97809   0.20336   0.00000  Uiso   1.00
C411   C     0.16689   0.95723   0.24977   0.00000  Uiso   1.00
C412   C     0.32026   0.81120   0.21158   0.00000  Uiso   1.00
C413   C     0.03508   0.81130   0.21185   0.00000  Uiso   1.00
C414   C     0.14908   0.79938   0.48813   0.00000  Uiso   1.00
C415   C     0.01231   0.85529   0.28874   0.00000  Uiso   1.00
C416   C     0.29787   0.85493   0.28835   0.00000  Uiso   1.00
C417   C     0.16680   0.75350   0.24951   0.00000  Uiso   1.00
C418   C     0.19295   0.83382   0.14766   0.00000  Uiso   1.00
C419   C     0.26813   0.82486   0.49984   0.00000  Uiso   1.00
C420   C     0.20865   0.82871   0.08874   0.00000  Uiso   1.00
C421   C     0.07892   0.80780   0.43757   0.00000  Uiso   1.00
C422   C     0.06566   0.79723   0.49210   0.00000  Uiso   1.00
C423   C     0.09998   0.79497   0.01801   0.00000  Uiso   1.00
C424   C     0.28953   0.86294   0.07228   0.00000  Uiso   1.00
C425   C     0.16245   0.80060   0.43124   0.00000  Uiso   1.00
C426   C     0.16104   0.71180   0.15487   0.00000  Uiso   1.00
C427   C     0.02298   0.88027   0.33118   0.00000  Uiso   1.00
C428   C     0.17248   0.95478   0.34449   0.00000  Uiso   1.00
C429   C     0.18535   0.80576   0.01203   0.00000  Uiso   1.00
C430   C     0.23365   0.80914   0.47882   0.00000  Uiso   1.00
C431   C     0.24634   0.79854   0.42430   0.00000  Uiso   1.00
C432   C     0.21089   0.79261   0.40110   0.00000  Uiso   1.00
C433   C     0.17455   0.81299   0.06715   0.00000  Uiso   1.00
C434   C     0.25540   0.83756   0.05417   0.00000  Uiso   1.00
H435   H     0.06233   0.79372   0.18161   0.00000  Uiso   1.00
H436   H     0.27868   0.87791   0.11166   0.00000  Uiso   1.00
H437   H     0.15490   0.73726   0.34398   0.00000  Uiso   1.00
H438   H     0.17210   0.74422   0.14913   0.00000  Uiso   1.00
H439   H     0.17524   0.92816   0.15644   0.00000  Uiso   1.00
H440   H     0.00284   0.77516   0.14818   0.00000  Uiso   1.00
H441   H     0.05853   0.89085   0.32630   0.00000  Uiso   1.00
H442   H     0.16129   0.92236   0.35045   0.00000  Uiso   1.00
H443   H     0.27031   0.87239   0.31842   0.00000  Uiso   1.00
H444   H     0.28347   0.79689   0.39906   0.00000  Uiso   1.00
H445   H     0.30407   0.83001   0.47280   0.00000  Uiso   1.00
H446   H     0.13889   0.80772   0.09395   0.00000  Uiso   1.00
H447   H     0.05146   0.81313   0.41925   0.00000  Uiso   1.00
H448   H     0.08705   0.78937   0.06102   0.00000  Uiso   1.00
H449   H     0.02838   0.79288   0.01515   0.00000  Uiso   1.00
H450   H     0.22225   0.78291   0.35917   0.00000  Uiso   1.00
N451   N     0.04760   0.83334   0.25001   0.00000  Uiso   1.00
N452   N     0.28573   0.83331   0.25000   0.00000  Uiso   1.00
O453   O     0.12846   0.89442   0.25000   0.00000  Uiso   1.00
O454   O     0.16972   0.70934   0.34232   0.00000  Uiso   1.00
O455   O     0.14637   0.69562   0.12091   0.00000  Uiso   1.00
O456   O     0.16324   0.95712   0.15704   0.00000  Uiso   1.00
O457   O     0.30738   0.78901   0.17318   0.00000  Uiso   1.00
O458   O     0.32460   0.89014   0.37272   0.00000  Uiso   1.00
O459   O     0.18735   0.97102   0.37825   0.00000  Uiso   1.00
O460   O     0.20490   0.89441   0.25000   0.00000  Uiso   1.00
O461   O     0.10947   0.83333   0.32681   0.00000  Uiso   1.00
O462   O     0.18591   0.83332   0.32681   0.00000  Uiso   1.00
O463   O     0.12843   0.77226   0.24999   0.00000  Uiso   1.00
O464   O     0.20488   0.77225   0.24999   0.00000  Uiso   1.00
O465   O     0.14742   0.83335   0.17319   0.00000  Uiso   1.00
O466   O     0.22387   0.83334   0.17319   0.00000  Uiso   1.00
O467   O     0.33006   0.86933   0.04217   0.00000  Uiso   1.00
Zn468  Zn    0.11562   0.83334   0.25000   0.00000  Uiso   1.00
Zn469  Zn    0.21771   0.83333   0.25000   0.00000  Uiso   1.00
C470   C     0.49997   0.91312   0.25009   0.00000  Uiso   1.00
C471   C     0.46063   0.81133   0.40703   0.00000  Uiso   1.00
C472   C     0.50364   0.97831   0.29578   0.00000  Uiso   1.00
C473   C     0.47444   0.82726   0.35113   0.00000  Uiso   1.00
C474   C     0.50266   0.68838   0.29596   0.00000  Uiso   1.00
C475   C     0.49989   0.70930   0.24957   0.00000  Uiso   1.00
C476   C     0.49652   0.68821   0.20351   0.00000  Uiso   1.00
C477   C     0.49733   0.97809   0.20336   0.00000  Uiso   1.00
C478   C     0.50023   0.95723   0.24977   0.00000  Uiso   1.00
C479   C     0.65359   0.81120   0.21158   0.00000  Uiso   1.00
C480   C     0.36841   0.81130   0.21185   0.00000  Uiso   1.00
C481   C     0.48241   0.79938   0.48813   0.00000  Uiso   1.00
C482   C     0.34565   0.85529   0.28874   0.00000  Uiso   1.00
C483   C     0.63120   0.85493   0.28835   0.00000  Uiso   1.00
C484   C     0.50014   0.75350   0.24951   0.00000  Uiso   1.00
C485   C     0.52629   0.83382   0.14766   0.00000  Uiso   1.00
C486   C     0.60147   0.82486   0.49984   0.00000  Uiso   1.00
C487   C     0.54198   0.82871   0.08874   0.00000  Uiso   1.00
C488   C     0.41225   0.80780   0.43757   0.00000  Uiso   1.00
C489   C     0.39899   0.79723   0.49210   0.00000  Uiso   1.00
C490   C     0.43332   0.79497   0.01801   0.00000  Uiso   1.00
C491   C     0.62287   0.86294   0.07228   0.00000  Uiso   1.00
C492   C     0.49579   0.80060   0.43124   0.00000  Uiso   1.00
C493   C     0.49437   0.71180   0.15487   0.00000  Uiso   1.00
C494   C     0.35632   0.88027   0.33118   0.00000  Uiso   1.00
C495   C     0.50582   0.95478   0.34449   0.00000  Uiso   1.00
C496   C     0.51868   0.80576   0.01203   0.00000  Uiso   1.00
C497   C     0.56698   0.80914   0.47882   0.00000  Uiso   1.00
C498   C     0.57967   0.79854   0.42430   0.00000  Uiso   1.00
C499   C     0.54422   0.79261   0.40110   0.00000  Uiso   1.00
C500   C     0.50789   0.81299   0.06715   0.00000  Uiso   1.00
C501   C     0.58873   0.83756   0.05417   0.00000  Uiso   1.00
H502   H     0.39566   0.79372   0.18161   0.00000  Uiso   1.00
H503   H     0.61201   0.87791   0.11166   0.00000  Uiso   1.00
H504   H     0.48823   0.73726   0.34398   0.00000  Uiso   1.00
H505   H     0.50544   0.74422   0.14913   0.00000  Uiso   1.00
H506   H     0.50858   0.92816   0.15644   0.00000  Uiso   1.00
H507   H     0.33617   0.77516   0.14818   0.00000  Uiso   1.00
H508   H     0.39187   0.89085   0.32630   0.00000  Uiso   1.00
H509   H     0.49463   0.92236   0.35045   0.00000  Uiso   1.00
H510   H     0.60364   0.87239   0.31842   0.00000  Uiso   1.00
H511   H     0.61681   0.79689   0.39906   0.00000  Uiso   1.00
H512   H     0.63740   0.83001   0.47280   0.00000  Uiso   1.00
H513   H     0.47223   0.80772   0.09395   0.00000  Uiso   1.00
H514   H     0.38479   0.81313   0.41925   0.00000  Uiso   1.00
H515   H     0.42038   0.78937   0.06102   0.00000  Uiso   1.00
H516   H     0.36172   0.79288   0.01515   0.00000  Uiso   1.00
H517   H     0.55558   0.78291   0.35917   0.00000  Uiso   1.00
N518   N     0.38093   0.83334   0.25001   0.00000  Uiso   1.00
N519   N     0.61906   0.83331   0.25000   0.00000  Uiso   1.00
O520   O     0.46179   0.89442   0.25000   0.00000  Uiso   1.00
O521   O     0.50305   0.70934   0.34232   0.00000  Uiso   1.00
O522   O     0.47970   0.69562   0.12091   0.00000  Uiso   1.00
O523   O     0.49657   0.95712   0.15704   0.00000  Uiso   1.00
O524   O     0.64071   0.78901   0.17318   0.00000  Uiso   1.00
O525   O     0.65794   0.89014   0.37272   0.00000  Uiso   1.00
O526   O     0.52068   0.97102   0.37825   0.00000  Uiso   1.00
O527   O     0.53823   0.89441   0.25000   0.00000  Uiso   1.00
O528   O     0.44280   0.83333   0.32681   0.00000  Uiso   1.00
O529   O     0.51924   0.83332   0.32681   0.00000  Uiso   1.00
O530   O     0.46177   0.77226   0.24999   0.00000  Uiso   1.00
O531   O     0.53821   0.77225   0.24999   0.00000  Uiso   1.00
O532   O     0.48076   0.83335   0.17319   0.00000  Uiso   1.00
O533   O     0.55720   0.83334   0.17319   0.00000  Uiso   1.00
O534   O     0.66339   0.86933   0.04217   0.00000  Uiso   1.00
Zn535  Zn    0.44896   0.83334   0.25000   0.00000  Uiso   1.00
Zn536  Zn    0.55104   0.83333   0.25000   0.00000  Uiso   1.00
C537   C     0.83330   0.91312   0.25009   0.00000  Uiso   1.00
C538   C     0.79396   0.81133   0.40703   0.00000  Uiso   1.00
C539   C     0.83697   0.97831   0.29578   0.00000  Uiso   1.00
C540   C     0.80778   0.82726   0.35113   0.00000  Uiso   1.00
C541   C     0.83599   0.68838   0.29596   0.00000  Uiso   1.00
C542   C     0.83322   0.70930   0.24957   0.00000  Uiso   1.00
C543   C     0.82986   0.68821   0.20351   0.00000  Uiso   1.00
C544   C     0.83066   0.97809   0.20336   0.00000  Uiso   1.00
C545   C     0.83356   0.95723   0.24977   0.00000  Uiso   1.00
C546   C     0.98692   0.81120   0.21158   0.00000  Uiso   1.00
C547   C     0.70174   0.81130   0.21185   0.00000  Uiso   1.00
C548   C     0.81575   0.79938   0.48813   0.00000  Uiso   1.00
C549   C     0.67898   0.85529   0.28874   0.00000  Uiso   1.00
C550   C     0.96454   0.85493   0.28835   0.00000  Uiso   1.00
C551   C     0.83347   0.75350   0.24951   0.00000  Uiso   1.00
C552   C     0.85962   0.83382   0.14766   0.00000  Uiso   1.00
C553   C     0.93480   0.82486   0.49984   0.00000  Uiso   1.00
C554   C     0.87531   0.82871   0.08874   0.00000  Uiso   1.00
C555   C     0.74558   0.80780   0.43757   0.00000  Uiso   1.00
C556   C     0.73233   0.79723   0.49210   0.00000  Uiso   1.00
C557   C     0.76665   0.79497   0.01801   0.00000  Uiso   1.00
C558   C     0.95620   0.86294   0.07228   0.00000  Uiso   1.00
C559   C     0.82912   0.80060   0.43124   0.00000  Uiso   1.00
C560   C     0.82770   0.71180   0.15487   0.00000  Uiso   1.00
C561   C     0.68965   0.88027   0.33118   0.00000  Uiso   1.00
C562   C     0.83915   0.95478   0.34449   0.00000  Uiso   1.00
C563   C     0.85201   0.80576   0.01203   0.00000  Uiso   1.00
C564   C     0.90032   0.80914   0.47882   0.00000  Uiso   1.00
C565   C     0.91300   0.79854   0.42430   0.00000  Uiso   1.00
C566   C     0.87755   0.79261   0.40110   0.00000  Uiso   1.00
C567   C     0.84122   0.81299   0.06715   0.00000  Uiso   1.00
C568   C     0.92206   0.83756   0.05417   0.00000  Uiso   1.00
H569   H     0.72900   0.79372   0.18161   0.00000  Uiso   1.00
H570   H     0.94535   0.87791   0.11166   0.00000  Uiso   1.00
H571   H     0.82157   0.73726   0.34398   0.00000  Uiso   1.00
H572   H     0.83877   0.74422   0.14913   0.00000  Uiso   1.00
H573   H     0.84191   0.92816   0.15644   0.00000  Uiso   1.00
H574   H     0.66951   0.77516   0.14818   0.00000  Uiso   1.00
H575   H     0.72520   0.89085   0.32630   0.00000  Uiso   1.00
H576   H     0.82796   0.92236   0.35045   0.00000  Uiso   1.00
H577   H     0.93697   0.87239   0.31842   0.00000  Uiso   1.00
H578   H     0.95014   0.79689   0.39906   0.00000  Uiso   1.00
H579   H     0.97073   0.83001   0.47280   0.00000  Uiso   1.00
H580   H     0.80556   0.80772   0.09395   0.00000  Uiso   1.00
H581   H     0.71813   0.81313   0.41925   0.00000  Uiso   1.00
H582   H     0.75371   0.78937   0.06102   0.00000  Uiso   1.00
H583   H     0.69505   0.79288   0.01515   0.00000  Uiso   1.00
H584   H     0.88892   0.78291   0.35917   0.00000  Uiso   1.00
N585   N     0.71426   0.83334   0.25001   0.00000  Uiso   1.00
N586   N     0.95239   0.83331   0.25000   0.00000  Uiso   1.00
O587   O     0.79512   0.89442   0.25000   0.00000  Uiso   1.00
O588   O     0.83639   0.70934   0.34232   0.00000  Uiso   1.00
O589   O     0.81304   0.69562   0.12091   0.00000  Uiso   1.00
O590   O     0.82991   0.95712   0.15704   0.00000  Uiso   1.00
O591   O     0.97405   0.78901   0.17318   0.00000  Uiso   1.00
O592   O     0.99127   0.89014   0.37272   0.00000  Uiso   1.00
O593   O     0.85402   0.97102   0.37825   0.00000  Uiso   1.00
O594   O     0.87157   0.89441   0.25000   0.00000  Uiso   1.00
O595   O     0.77613   0.83333   0.32681   0.00000  Uiso   1.00
O596   O     0.85258   0.83332   0.32681   0.00000  Uiso   1.00
O597   O     0.79510   0.77226   0.24999   0.00000  Uiso   1.00
O598   O     0.87154   0.77225   0.24999   0.00000  Uiso   1.00
O599   O     0.81409   0.83335   0.17319   0.00000  Uiso   1.00
O600   O     0.89053   0.83334   0.17319   0.00000  Uiso   1.00
O601   O     0.99673   0.86933   0.04217   0.00000  Uiso   1.00
Zn602  Zn    0.78229   0.83334   0.25000   0.00000  Uiso   1.00
Zn603  Zn    0.88438   0.83333   0.25000   0.00000  Uiso   1.00
C604   C     0.16664   0.24645   0.75009   0.00000  Uiso   1.00
C605   C     0.12730   0.14467   0.90703   0.00000  Uiso   1.00
C606   C     0.17030   0.31165   0.79578   0.00000  Uiso   1.00
C607   C     0.14111   0.16059   0.85113   0.00000  Uiso   1.00
C608   C     0.16933   0.02172   0.79596   0.00000  Uiso   1.00
C609   C     0.16655   0.04264   0.74957   0.00000  Uiso   1.00
C610   C     0.16319   0.02154   0.70351   0.00000  Uiso   1.00
C611   C     0.16399   0.31142   0.70336   0.00000  Uiso   1.00
C612   C     0.16689   0.29056   0.74977   0.00000  Uiso   1.00
C613   C     0.32026   0.14453   0.71158   0.00000  Uiso   1.00
C614   C     0.03508   0.14463   0.71185   0.00000  Uiso   1.00
C615   C     0.14908   0.13271   0.98813   0.00000  Uiso   1.00
C616   C     0.01231   0.18862   0.78874   0.00000  Uiso   1.00
C617   C     0.29787   0.18826   0.78835   0.00000  Uiso   1.00
C618   C     0.16680   0.08684   0.74951   0.00000  Uiso   1.00
C619   C     0.19295   0.16715   0.64766   0.00000  Uiso   1.00
C620   C     0.26813   0.15819   0.99984   0.00000  Uiso   1.00
C621   C     0.20865   0.16204   0.58874   0.00000  Uiso   1.00
C622   C     0.07892   0.14114   0.93757   0.00000  Uiso   1.00
C623   C     0.06566   0.13056   0.99210   0.00000  Uiso   1.00
C624   C     0.09998   0.12830   0.51801   0.00000  Uiso   1.00
C625   C     0.28953   0.19628   0.57228   0.00000  Uiso   1.00
C626   C     0.16245   0.13393   0.93124   0.00000  Uiso   1.00
C627   C     0.16104   0.04514   0.65487   0.00000  Uiso   1.00
C628   C     0.02298   0.21360   0.83118   0.00000  Uiso   1.00
C629   C     0.17248   0.28812   0.84449   0.00000  Uiso   1.00
C630   C     0.18535   0.13909   0.51203   0.00000  Uiso   1.00
C631   C     0.23365   0.14248   0.97882   0.00000  Uiso   1.00
C632   C     0.24634   0.13187   0.92430   0.00000  Uiso   1.00
C633   C     0.21089   0.12594   0.90110   0.00000  Uiso   1.00
C634   C     0.17455   0.14632   0.56715   0.00000  Uiso   1.00
C635   C     0.25540   0.17089   0.55417   0.00000  Uiso   1.00
H636   H     0.06233   0.12705   0.68161   0.00000  Uiso   1.00
H637   H     0.27868   0.21124   0.61166   0.00000  Uiso   1.00
H638   H     0.15490   0.07060   0.84398   0.00000  Uiso   1.00
H639   H     0.17210   0.07755   0.64913   0.00000  Uiso   1.00
H640   H     0.17524   0.26149   0.65644   0.00000  Uiso   1.00
H641   H     0.00284   0.10850   0.64818   0.00000  Uiso   1.00
H642   H     0.05853   0.22418   0.82630   0.00000  Uiso   1.00
H643   H     0.16129   0.25570   0.85045   0.00000  Uiso   1.00
H644   H     0.27031   0.20572   0.81842   0.00000  Uiso   1.00
H645   H     0.28347   0.13022   0.89906   0.00000  Uiso   1.00
H646   H     0.30407   0.16334   0.97280   0.00000  Uiso   1.00
H647   H     0.13889   0.14105   0.59395   0.00000  Uiso   1.00
H648   H     0.05146   0.14646   0.91925   0.00000  Uiso   1.00
H649   H     0.08705   0.12270   0.56102   0.00000  Uiso   1.00
H650   H     0.02838   0.12621   0.51515   0.00000  Uiso   1.00
H651   H     0.22225   0.11624   0.85917   0.00000  Uiso   1.00
N652   N     0.04760   0.16668   0.75001   0.00000  Uiso   1.00
N653   N     0.28573   0.16665   0.75000   0.00000  Uiso   1.00
O654   O     0.12846   0.22775   0.75000   0.00000  Uiso   1.00
O655   O     0.16972   0.04268   0.84232   0.00000  Uiso   1.00
O656   O     0.14637   0.02896   0.62091   0.00000  Uiso   1.00
O657   O     0.16324   0.29046   0.65704   0.00000  Uiso   1.00
O658   O     0.30738   0.12234   0.67318   0.00000  Uiso   1.00
O659   O     0.32460   0.22347   0.87272   0.00000  Uiso   1.00
O660   O     0.18735   0.30435   0.87825   0.00000  Uiso   1.00
O661   O     0.20490   0.22774   0.75000   0.00000  Uiso   1.00
O662   O     0.10947   0.16666   0.82681   0.00000  Uiso   1.00
O663   O     0.18591   0.16665   0.82681   0.00000  Uiso   1.00
O664   O     0.12843   0.10559   0.74999   0.00000  Uiso   1.00
O665   O     0.20488   0.10558   0.74999   0.00000  Uiso   1.00
O666   O     0.14742   0.16668   0.67319   0.00000  Uiso   1.00
O667   O     0.22387   0.16667   0.67319   0.00000  Uiso   1.00
O668   O     0.33006   0.20267   0.54217   0.00000  Uiso   1.00
Zn669  Zn    0.11562   0.16667   0.75000   0.00000  Uiso   1.00
Zn670  Zn    0.21771   0.16666   0.75000   0.00000  Uiso   1.00
C671   C     0.49997   0.24645   0.75009   0.00000  Uiso   1.00
C672   C     0.46063   0.14467   0.90703   0.00000  Uiso   1.00
C673   C     0.50364   0.31165   0.79578   0.00000  Uiso   1.00
C674   C     0.47444   0.16059   0.85113   0.00000  Uiso   1.00
C675   C     0.50266   0.02172   0.79596   0.00000  Uiso   1.00
C676   C     0.49989   0.04264   0.74957   0.00000  Uiso   1.00
C677   C     0.49652   0.02154   0.70351   0.00000  Uiso   1.00
C678   C     0.49733   0.31142   0.70336   0.00000  Uiso   1.00
C679   C     0.50023   0.29056   0.74977   0.00000  Uiso   1.00
C680   C     0.65359   0.14453   0.71158   0.00000  Uiso   1.00
C681   C     0.36841   0.14463   0.71185   0.00000  Uiso   1.00
C682   C     0.48241   0.13271   0.98813   0.00000  Uiso   1.00
C683   C     0.34565   0.18862   0.78874   0.00000  Uiso   1.00
C684   C     0.63120   0.18826   0.78835   0.00000  Uiso   1.00
C685   C     0.50014   0.08684   0.74951   0.00000  Uiso   1.00
C686   C     0.52629   0.16715   0.64766   0.00000  Uiso   1.00
C687   C     0.60147   0.15819   0.99984   0.00000  Uiso   1.00
C688   C     0.54198   0.16204   0.58874   0.00000  Uiso   1.00
C689   C     0.41225   0.14114   0.93757   0.00000  Uiso   1.00
C690   C     0.39899   0.13056   0.99210   0.00000  Uiso   1.00
C691   C     0.43332   0.12830   0.51801   0.00000  Uiso   1.00
C692   C     0.62287   0.19628   0.57228   0.00000  Uiso   1.00
C693   C     0.49579   0.13393   0.93124   0.00000  Uiso   1.00
C694   C     0.49437   0.04514   0.65487   0.00000  Uiso   1.00
C695   C     0.35632   0.21360   0.83118   0.00000  Uiso   1.00
C696   C     0.50582   0.28812   0.84449   0.00000  Uiso   1.00
C697   C     0.51868   0.13909   0.51203   0.00000  Uiso   1.00
C698   C     0.56698   0.14248   0.97882   0.00000  Uiso   1.00
C699   C     0.57967   0.13187   0.92430   0.00000  Uiso   1.00
C700   C     0.54422   0.12594   0.90110   0.00000  Uiso   1.00
C701   C     0.50789   0.14632   0.56715   0.00000  Uiso   1.00
C702   C     0.58873   0.17089   0.55417   0.00000  Uiso   1.00
H703   H     0.39566   0.12705   0.68161   0.00000  Uiso   1.00
H704   H     0.61201   0.21124   0.61166   0.00000  Uiso   1.00
H705   H     0.48823   0.07060   0.84398   0.00000  Uiso   1.00
H706   H     0.50544   0.07755   0.64913   0.00000  Uiso   1.00
H707   H     0.50858   0.26149   0.65644   0.00000  Uiso   1.00
H708   H     0.33617   0.10850   0.64818   0.00000  Uiso   1.00
H709   H     0.39187   0.22418   0.82630   0.00000  Uiso   1.00
H710   H     0.49463   0.25570   0.85045   0.00000  Uiso   1.00
H711   H     0.60364   0.20572   0.81842   0.00000  Uiso   1.00
H712   H     0.61681   0.13022   0.89906   0.00000  Uiso   1.00
H713   H     0.63740   0.16334   0.97280   0.00000  Uiso   1.00
H714   H     0.47223   0.14105   0.59395   0.00000  Uiso   1.00
H715   H     0.38479   0.14646   0.91925   0.00000  Uiso   1.00
H716   H     0.42038   0.12270   0.56102   0.00000  Uiso   1.00
H717   H     0.36172   0.12621   0.51515   0.00000  Uiso   1.00
H718   H     0.55558   0.11624   0.85917   0.00000  Uiso   1.00
N719   N     0.38093   0.16668   0.75001   0.00000  Uiso   1.00
N720   N     0.61906   0.16665   0.75000   0.00000  Uiso   1.00
O721   O     0.46179   0.22775   0.75000   0.00000  Uiso   1.00
O722   O     0.50305   0.04268   0.84232   0.00000  Uiso   1.00
O723   O     0.47970   0.02896   0.62091   0.00000  Uiso   1.00
O724   O     0.49657   0.29046   0.65704   0.00000  Uiso   1.00
O725   O     0.64071   0.12234   0.67318   0.00000  Uiso   1.00
O726   O     0.65794   0.22347   0.87272   0.00000  Uiso   1.00
O727   O     0.52068   0.30435   0.87825   0.00000  Uiso   1.00
O728   O     0.53823   0.22774   0.75000   0.00000  Uiso   1.00
O729   O     0.44280   0.16666   0.82681   0.00000  Uiso   1.00
O730   O     0.51924   0.16665   0.82681   0.00000  Uiso   1.00
O731   O     0.46177   0.10559   0.74999   0.00000  Uiso   1.00
O732   O     0.53821   0.10558   0.74999   0.00000  Uiso   1.00
O733   O     0.48076   0.16668   0.67319   0.00000  Uiso   1.00
O734   O     0.55720   0.16667   0.67319   0.00000  Uiso   1.00
O735   O     0.66339   0.20267   0.54217   0.00000  Uiso   1.00
Zn736  Zn    0.44896   0.16667   0.75000   0.00000  Uiso   1.00
Zn737  Zn    0.55104   0.16666   0.75000   0.00000  Uiso   1.00
C738   C     0.83330   0.24645   0.75009   0.00000  Uiso   1.00
C739   C     0.79396   0.14467   0.90703   0.00000  Uiso   1.00
C740   C     0.83697   0.31165   0.79578   0.00000  Uiso   1.00
C741   C     0.80778   0.16059   0.85113   0.00000  Uiso   1.00
C742   C     0.83599   0.02172   0.79596   0.00000  Uiso   1.00
C743   C     0.83322   0.04264   0.74957   0.00000  Uiso   1.00
C744   C     0.82986   0.02154   0.70351   0.00000  Uiso   1.00
C745   C     0.83066   0.31142   0.70336   0.00000  Uiso   1.00
C746   C     0.83356   0.29056   0.74977   0.00000  Uiso   1.00
C747   C     0.98692   0.14453   0.71158   0.00000  Uiso   1.00
C748   C     0.70174   0.14463   0.71185   0.00000  Uiso   1.00
C749   C     0.81575   0.13271   0.98813   0.00000  Uiso   1.00
C750   C     0.67898   0.18862   0.78874   0.00000  Uiso   1.00
C751   C     0.96454   0.18826   0.78835   0.00000  Uiso   1.00
C752   C     0.83347   0.08684   0.74951   0.00000  Uiso   1.00
C753   C     0.85962   0.16715   0.64766   0.00000  Uiso   1.00
C754   C     0.93480   0.15819   0.99984   0.00000  Uiso   1.00
C755   C     0.87531   0.16204   0.58874   0.00000  Uiso   1.00
C756   C     0.74558   0.14114   0.93757   0.00000  Uiso   1.00
C757   C     0.73233   0.13056   0.99210   0.00000  Uiso   1.00
C758   C     0.76665   0.12830   0.51801   0.00000  Uiso   1.00
C759   C     0.95620   0.19628   0.57228   0.00000  Uiso   1.00
C760   C     0.82912   0.13393   0.93124   0.00000  Uiso   1.00
C761   C     0.82770   0.04514   0.65487   0.00000  Uiso   1.00
C762   C     0.68965   0.21360   0.83118   0.00000  Uiso   1.00
C763   C     0.83915   0.28812   0.84449   0.00000  Uiso   1.00
C764   C     0.85201   0.13909   0.51203   0.00000  Uiso   1.00
C765   C     0.90032   0.14248   0.97882   0.00000  Uiso   1.00
C766   C     0.91300   0.13187   0.92430   0.00000  Uiso   1.00
C767   C     0.87755   0.12594   0.90110   0.00000  Uiso   1.00
C768   C     0.84122   0.14632   0.56715   0.00000  Uiso   1.00
C769   C     0.92206   0.17089   0.55417   0.00000  Uiso   1.00
H770   H     0.72900   0.12705   0.68161   0.00000  Uiso   1.00
H771   H     0.94535   0.21124   0.61166   0.00000  Uiso   1.00
H772   H     0.82157   0.07060   0.84398   0.00000  Uiso   1.00
H773   H     0.83877   0.07755   0.64913   0.00000  Uiso   1.00
H774   H     0.84191   0.26149   0.65644   0.00000  Uiso   1.00
H775   H     0.66951   0.10850   0.64818   0.00000  Uiso   1.00
H776   H     0.72520   0.22418   0.82630   0.00000  Uiso   1.00
H777   H     0.82796   0.25570   0.85045   0.00000  Uiso   1.00
H778   H     0.93697   0.20572   0.81842   0.00000  Uiso   1.00
H779   H     0.95014   0.13022   0.89906   0.00000  Uiso   1.00
H780   H     0.97073   0.16334   0.97280   0.00000  Uiso   1.00
H781   H     0.80556   0.14105   0.59395   0.00000  Uiso   1.00
H782   H     0.71813   0.14646   0.91925   0.00000  Uiso   1.00
H783   H     0.75371   0.12270   0.56102   0.00000  Uiso   1.00
H784   H     0.69505   0.12621   0.51515   0.00000  Uiso   1.00
H785   H     0.88892   0.11624   0.85917   0.00000  Uiso   1.00
N786   N     0.71426   0.16668   0.75001   0.00000  Uiso   1.00
N787   N     0.95239   0.16665   0.75000   0.00000  Uiso   1.00
O788   O     0.79512   0.22775   0.75000   0.00000  Uiso   1.00
O789   O     0.83639   0.04268   0.84232   0.00000  Uiso   1.00
O790   O     0.81304   0.02896   0.62091   0.00000  Uiso   1.00
O791   O     0.82991   0.29046   0.65704   0.00000  Uiso   1.00
O792   O     0.97405   0.12234   0.67318   0.00000  Uiso   1.00
O793   O     0.99127   0.22347   0.87272   0.00000  Uiso   1.00
O794   O     0.85402   0.30435   0.87825   0.00000  Uiso   1.00
O795   O     0.87157   0.22774   0.75000   0.00000  Uiso   1.00
O796   O     0.77613   0.16666   0.82681   0.00000  Uiso   1.00
O797   O     0.85258   0.16665   0.82681   0.00000  Uiso   1.00
O798   O     0.79510   0.10559   0.74999   0.00000  Uiso   1.00
O799   O     0.87154   0.10558   0.74999   0.00000  Uiso   1.00
O800   O     0.81409   0.16668   0.67319   0.00000  Uiso   1.00
O801   O     0.89053   0.16667   0.67319   0.00000  Uiso   1.00
O802   O     0.99673   0.20267   0.54217   0.00000  Uiso   1.00
Zn803  Zn    0.78229   0.16667   0.75000   0.00000  Uiso   1.00
Zn804  Zn    0.88438   0.16666   0.75000   0.00000  Uiso   1.00
C805   C     0.16664   0.57978   0.75009   0.00000  Uiso   1.00
C806   C     0.12730   0.47800   0.90703   0.00000  Uiso   1.00
C807   C     0.17030   0.64498   0.79578   0.00000  Uiso   1.00
C808   C     0.14111   0.49392   0.85113   0.00000  Uiso   1.00
C809   C     0.16933   0.35505   0.79596   0.00000  Uiso   1.00
C810   C     0.16655   0.37597   0.74957   0.00000  Uiso   1.00
C811   C     0.16319   0.35488   0.70351   0.00000  Uiso   1.00
C812   C     0.16399   0.64475   0.70336   0.00000  Uiso   1.00
C813   C     0.16689   0.62390   0.74977   0.00000  Uiso   1.00
C814   C     0.32026   0.47787   0.71158   0.00000  Uiso   1.00
C815   C     0.03508   0.47797   0.71185   0.00000  Uiso   1.00
C816   C     0.14908   0.46605   0.98813   0.00000  Uiso   1.00
C817   C     0.01231   0.52196   0.78874   0.00000  Uiso   1.00
C818   C     0.29787   0.52160   0.78835   0.00000  Uiso   1.00
C819   C     0.16680   0.42017   0.74951   0.00000  Uiso   1.00
C820   C     0.19295   0.50049   0.64766   0.00000  Uiso   1.00
C821   C     0.26813   0.49153   0.99984   0.00000  Uiso   1.00
C822   C     0.20865   0.49537   0.58874   0.00000  Uiso   1.00
C823   C     0.07892   0.47447   0.93757   0.00000  Uiso   1.00
C824   C     0.06566   0.46390   0.99210   0.00000  Uiso   1.00
C825   C     0.09998   0.46164   0.51801   0.00000  Uiso   1.00
C826   C     0.28953   0.52961   0.57228   0.00000  Uiso   1.00
C827   C     0.16245   0.46726   0.93124   0.00000  Uiso   1.00
C828   C     0.16104   0.37847   0.65487   0.00000  Uiso   1.00
C829   C     0.02298   0.54693   0.83118   0.00000  Uiso   1.00
C830   C     0.17248   0.62145   0.84449   0.00000  Uiso   1.00
C831   C     0.18535   0.47243   0.51203   0.00000  Uiso   1.00
C832   C     0.23365   0.47581   0.97882   0.00000  Uiso   1.00
C833   C     0.24634   0.46520   0.92430   0.00000  Uiso   1.00
C834   C     0.21089   0.45928   0.90110   0.00000  Uiso   1.00
C835   C     0.17455   0.47965   0.56715   0.00000  Uiso   1.00
C836   C     0.25540   0.50423   0.55417   0.00000  Uiso   1.00
H837   H     0.06233   0.46039   0.68161   0.00000  Uiso   1.00
H838   H     0.27868   0.54458   0.61166   0.00000  Uiso   1.00
H839   H     0.15490   0.40393   0.84398   0.00000  Uiso   1.00
H840   H     0.17210   0.41088   0.64913   0.00000  Uiso   1.00
H841   H     0.17524   0.59483   0.65644   0.00000  Uiso   1.00
H842   H     0.00284   0.44183   0.64818   0.00000  Uiso   1.00
H843   H     0.05853   0.55752   0.82630   0.00000  Uiso   1.00
H844   H     0.16129   0.58903   0.85045   0.00000  Uiso   1.00
H845   H     0.27031   0.53905   0.81842   0.00000  Uiso   1.00
H846   H     0.28347   0.46355   0.89906   0.00000  Uiso   1.00
H847   H     0.30407   0.49668   0.97280   0.00000  Uiso   1.00
H848   H     0.13889   0.47439   0.59395   0.00000  Uiso   1.00
H849   H     0.05146   0.47980   0.91925   0.00000  Uiso   1.00
H850   H     0.08705   0.45603   0.56102   0.00000  Uiso   1.00
H851   H     0.02838   0.45955   0.51515   0.00000  Uiso   1.00
H852   H     0.22225   0.44958   0.85917   0.00000  Uiso   1.00
N853   N     0.04760   0.50001   0.75001   0.00000  Uiso   1.00
N854   N     0.28573   0.49998   0.75000   0.00000  Uiso   1.00
O855   O     0.12846   0.56108   0.75000   0.00000  Uiso   1.00
O856   O     0.16972   0.37601   0.84232   0.00000  Uiso   1.00
O857   O     0.14637   0.36229   0.62091   0.00000  Uiso   1.00
O858   O     0.16324   0.62379   0.65704   0.00000  Uiso   1.00
O859   O     0.30738   0.45567   0.67318   0.00000  Uiso   1.00
O860   O     0.32460   0.55680   0.87272   0.00000  Uiso   1.00
O861   O     0.18735   0.63768   0.87825   0.00000  Uiso   1.00
O862   O     0.20490   0.56107   0.75000   0.00000  Uiso   1.00
O863   O     0.10947   0.50000   0.82681   0.00000  Uiso   1.00
O864   O     0.18591   0.49999   0.82681   0.00000  Uiso   1.00
O865   O     0.12843   0.43893   0.74999   0.00000  Uiso   1.00
O866   O     0.20488   0.43892   0.74999   0.00000  Uiso   1.00
O867   O     0.14742   0.50001   0.67319   0.00000  Uiso   1.00
O868   O     0.22387   0.50000   0.67319   0.00000  Uiso   1.00
O869   O     0.33006   0.53600   0.54217   0.00000  Uiso   1.00
Zn870  Zn    0.11562   0.50001   0.75000   0.00000  Uiso   1.00
Zn871  Zn    0.21771   0.49999   0.75000   0.00000  Uiso   1.00
C872   C     0.49997   0.57978   0.75009   0.00000  Uiso   1.00
C873   C     0.46063   0.47800   0.90703   0.00000  Uiso   1.00
C874   C     0.50364   0.64498   0.79578   0.00000  Uiso   1.00
C875   C     0.47444   0.49392   0.85113   0.00000  Uiso   1.00
C876   C     0.50266   0.35505   0.79596   0.00000  Uiso   1.00
C877   C     0.49989   0.37597   0.74957   0.00000  Uiso   1.00
C878   C     0.49652   0.35488   0.70351   0.00000  Uiso   1.00
C879   C     0.49733   0.64475   0.70336   0.00000  Uiso   1.00
C880   C     0.50023   0.62390   0.74977   0.00000  Uiso   1.00
C881   C     0.65359   0.47787   0.71158   0.00000  Uiso   1.00
C882   C     0.36841   0.47797   0.71185   0.00000  Uiso   1.00
C883   C     0.48241   0.46605   0.98813   0.00000  Uiso   1.00
C884   C     0.34565   0.52196   0.78874   0.00000  Uiso   1.00
C885   C     0.63120   0.52160   0.78835   0.00000  Uiso   1.00
C886   C     0.50014   0.42017   0.74951   0.00000  Uiso   1.00
C887   C     0.52629   0.50049   0.64766   0.00000  Uiso   1.00
C888   C     0.60147   0.49153   0.99984   0.00000  Uiso   1.00
C889   C     0.54198   0.49537   0.58874   0.00000  Uiso   1.00
C890   C     0.41225   0.47447   0.93757   0.00000  Uiso   1.00
C891   C     0.39899   0.46390   0.99210   0.00000  Uiso   1.00
C892   C     0.43332   0.46164   0.51801   0.00000  Uiso   1.00
C893   C     0.62287   0.52961   0.57228   0.00000  Uiso   1.00
C894   C     0.49579   0.46726   0.93124   0.00000  Uiso   1.00
C895   C     0.49437   0.37847   0.65487   0.00000  Uiso   1.00
C896   C     0.35632   0.54693   0.83118   0.00000  Uiso   1.00
C897   C     0.50582   0.62145   0.84449   0.00000  Uiso   1.00
C898   C     0.51868   0.47243   0.51203   0.00000  Uiso   1.00
C899   C     0.56698   0.47581   0.97882   0.00000  Uiso   1.00
C900   C     0.57967   0.46520   0.92430   0.00000  Uiso   1.00
C901   C     0.54422   0.45928   0.90110   0.00000  Uiso   1.00
C902   C     0.50789   0.47965   0.56715   0.00000  Uiso   1.00
C903   C     0.58873   0.50423   0.55417   0.00000  Uiso   1.00
H904   H     0.39566   0.46039   0.68161   0.00000  Uiso   1.00
H905   H     0.61201   0.54458   0.61166   0.00000  Uiso   1.00
H906   H     0.48823   0.40393   0.84398   0.00000  Uiso   1.00
H907   H     0.50544   0.41088   0.64913   0.00000  Uiso   1.00
H908   H     0.50858   0.59483   0.65644   0.00000  Uiso   1.00
H909   H     0.33617   0.44183   0.64818   0.00000  Uiso   1.00
H910   H     0.39187   0.55752   0.82630   0.00000  Uiso   1.00
H911   H     0.49463   0.58903   0.85045   0.00000  Uiso   1.00
H912   H     0.60364   0.53905   0.81842   0.00000  Uiso   1.00
H913   H     0.61681   0.46355   0.89906   0.00000  Uiso   1.00
H914   H     0.63740   0.49668   0.97280   0.00000  Uiso   1.00
H915   H     0.47223   0.47439   0.59395   0.00000  Uiso   1.00
H916   H     0.38479   0.47980   0.91925   0.00000  Uiso   1.00
H917   H     0.42038   0.45603   0.56102   0.00000  Uiso   1.00
H918   H     0.36172   0.45955   0.51515   0.00000  Uiso   1.00
H919   H     0.55558   0.44958   0.85917   0.00000  Uiso   1.00
N920   N     0.38093   0.50001   0.75001   0.00000  Uiso   1.00
N921   N     0.61906   0.49998   0.75000   0.00000  Uiso   1.00
O922   O     0.46179   0.56108   0.75000   0.00000  Uiso   1.00
O923   O     0.50305   0.37601   0.84232   0.00000  Uiso   1.00
O924   O     0.47970   0.36229   0.62091   0.00000  Uiso   1.00
O925   O     0.49657   0.62379   0.65704   0.00000  Uiso   1.00
O926   O     0.64071   0.45567   0.67318   0.00000  Uiso   1.00
O927   O     0.65794   0.55680   0.87272   0.00000  Uiso   1.00
O928   O     0.52068   0.63768   0.87825   0.00000  Uiso   1.00
O929   O     0.53823   0.56107   0.75000   0.00000  Uiso   1.00
O930   O     0.44280   0.50000   0.82681   0.00000  Uiso   1.00
O931   O     0.51924   0.49999   0.82681   0.00000  Uiso   1.00
O932   O     0.46177   0.43893   0.74999   0.00000  Uiso   1.00
O933   O     0.53821   0.43892   0.74999   0.00000  Uiso   1.00
O934   O     0.48076   0.50001   0.67319   0.00000  Uiso   1.00
O935   O     0.55720   0.50000   0.67319   0.00000  Uiso   1.00
O936   O     0.66339   0.53600   0.54217   0.00000  Uiso   1.00
Zn937  Zn    0.44896   0.50001   0.75000   0.00000  Uiso   1.00
Zn938  Zn    0.55104   0.49999   0.75000   0.00000  Uiso   1.00
C939   C     0.83330   0.57978   0.75009   0.00000  Uiso   1.00
C940   C     0.79396   0.47800   0.90703   0.00000  Uiso   1.00
C941   C     0.83697   0.64498   0.79578   0.00000  Uiso   1.00
C942   C     0.80778   0.49392   0.85113   0.00000  Uiso   1.00
C943   C     0.83599   0.35505   0.79596   0.00000  Uiso   1.00
C944   C     0.83322   0.37597   0.74957   0.00000  Uiso   1.00
C945   C     0.82986   0.35488   0.70351   0.00000  Uiso   1.00
C946   C     0.83066   0.64475   0.70336   0.00000  Uiso   1.00
C947   C     0.83356   0.62390   0.74977   0.00000  Uiso   1.00
C948   C     0.98692   0.47787   0.71158   0.00000  Uiso   1.00
C949   C     0.70174   0.47797   0.71185   0.00000  Uiso   1.00
C950   C     0.81575   0.46605   0.98813   0.00000  Uiso   1.00
C951   C     0.67898   0.52196   0.78874   0.00000  Uiso   1.00
C952   C     0.96454   0.52160   0.78835   0.00000  Uiso   1.00
C953   C     0.83347   0.42017   0.74951   0.00000  Uiso   1.00
C954   C     0.85962   0.50049   0.64766   0.00000  Uiso   1.00
C955   C     0.93480   0.49153   0.99984   0.00000  Uiso   1.00
C956   C     0.87531   0.49537   0.58874   0.00000  Uiso   1.00
C957   C     0.74558   0.47447   0.93757   0.00000  Uiso   1.00
C958   C     0.73233   0.46390   0.99210   0.00000  Uiso   1.00
C959   C     0.76665   0.46164   0.51801   0.00000  Uiso   1.00
C960   C     0.95620   0.52961   0.57228   0.00000  Uiso   1.00
C961   C     0.82912   0.46726   0.93124   0.00000  Uiso   1.00
C962   C     0.82770   0.37847   0.65487   0.00000  Uiso   1.00
C963   C     0.68965   0.54693   0.83118   0.00000  Uiso   1.00
C964   C     0.83915   0.62145   0.84449   0.00000  Uiso   1.00
C965   C     0.85201   0.47243   0.51203   0.00000  Uiso   1.00
C966   C     0.90032   0.47581   0.97882   0.00000  Uiso   1.00
C967   C     0.91300   0.46520   0.92430   0.00000  Uiso   1.00
C968   C     0.87755   0.45928   0.90110   0.00000  Uiso   1.00
C969   C     0.84122   0.47965   0.56715   0.00000  Uiso   1.00
C970   C     0.92206   0.50423   0.55417   0.00000  Uiso   1.00
H971   H     0.72900   0.46039   0.68161   0.00000  Uiso   1.00
H972   H     0.94535   0.54458   0.61166   0.00000  Uiso   1.00
H973   H     0.82157   0.40393   0.84398   0.00000  Uiso   1.00
H974   H     0.83877   0.41088   0.64913   0.00000  Uiso   1.00
H975   H     0.84191   0.59483   0.65644   0.00000  Uiso   1.00
H976   H     0.66951   0.44183   0.64818   0.00000  Uiso   1.00
H977   H     0.72520   0.55752   0.82630   0.00000  Uiso   1.00
H978   H     0.82796   0.58903   0.85045   0.00000  Uiso   1.00
H979   H     0.93697   0.53905   0.81842   0.00000  Uiso   1.00
H980   H     0.95014   0.46355   0.89906   0.00000  Uiso   1.00
H981   H     0.97073   0.49668   0.97280   0.00000  Uiso   1.00
H982   H     0.80556   0.47439   0.59395   0.00000  Uiso   1.00
H983   H     0.71813   0.47980   0.91925   0.00000  Uiso   1.00
H984   H     0.75371   0.45603   0.56102   0.00000  Uiso   1.00
H985   H     0.69505   0.45955   0.51515   0.00000  Uiso   1.00
H986   H     0.88892   0.44958   0.85917   0.00000  Uiso   1.00
N987   N     0.71426   0.50001   0.75001   0.00000  Uiso   1.00
N988   N     0.95239   0.49998   0.75000   0.00000  Uiso   1.00
O989   O     0.79512   0.56108   0.75000   0.00000  Uiso   1.00
O990   O     0.83639   0.37601   0.84232   0.00000  Uiso   1.00
O991   O     0.81304   0.36229   0.62091   0.00000  Uiso   1.00
O992   O     0.82991   0.62379   0.65704   0.00000  Uiso   1.00
O993   O     0.97405   0.45567   0.67318   0.00000  Uiso   1.00
O994   O     0.99127   0.55680   0.87272   0.00000  Uiso   1.00
O995   O     0.85402   0.63768   0.87825   0.00000  Uiso   1.00
O996   O     0.87157   0.56107   0.75000   0.00000  Uiso   1.00
O997   O     0.77613   0.50000   0.82681   0.00000  Uiso   1.00
O998   O     0.85258   0.49999   0.82681   0.00000  Uiso   1.00
O999   O     0.79510   0.43893   0.74999   0.00000  Uiso   1.00
O1000  O     0.87154   0.43892   0.74999   0.00000  Uiso   1.00
O1001  O     0.81409   0.50001   0.67319   0.00000  Uiso   1.00
O1002  O     0.89053   0.50000   0.67319   0.00000  Uiso   1.00
O1003  O     0.99673   0.53600   0.54217   0.00000  Uiso   1.00
Zn1004 Zn    0.78229   0.50001   0.75000   0.00000  Uiso   1.00
Zn1005 Zn    0.88438   0.49999   0.75000   0.00000  Uiso   1.00
C1006  C     0.16664   0.91312   0.75009   0.00000  Uiso   1.00
C1007  C     0.12730   0.81133   0.90703   0.00000  Uiso   1.00
C1008  C     0.17030   0.97831   0.79578   0.00000  Uiso   1.00
C1009  C     0.14111   0.82726   0.85113   0.00000  Uiso   1.00
C1010  C     0.16933   0.68838   0.79596   0.00000  Uiso   1.00
C1011  C     0.16655   0.70930   0.74957   0.00000  Uiso   1.00
C1012  C     0.16319   0.68821   0.70351   0.00000  Uiso   1.00
C1013  C     0.16399   0.97809   0.70336   0.00000  Uiso   1.00
C1014  C     0.16689   0.95723   0.74977   0.00000  Uiso   1.00
C1015  C     0.32026   0.81120   0.71158   0.00000  Uiso   1.00
C1016  C     0.03508   0.81130   0.71185   0.00000  Uiso   1.00
C1017  C     0.14908   0.79938   0.98813   0.00000  Uiso   1.00
C1018  C     0.01231   0.85529   0.78874   0.00000  Uiso   1.00
C1019  C     0.29787   0.85493   0.78835   0.00000  Uiso   1.00
C1020  C     0.16680   0.75350   0.74951   0.00000  Uiso   1.00
C1021  C     0.19295   0.83382   0.64766   0.00000  Uiso   1.00
C1022  C     0.26813   0.82486   0.99984   0.00000  Uiso   1.00
C1023  C     0.20865   0.82871   0.58874   0.00000  Uiso   1.00
C1024  C     0.07892   0.80780   0.93757   0.00000  Uiso   1.00
C1025  C     0.06566   0.79723   0.99210   0.00000  Uiso   1.00
C1026  C     0.09998   0.79497   0.51801   0.00000  Uiso   1.00
C1027  C     0.28953   0.86294   0.57228   0.00000  Uiso   1.00
C1028  C     0.16245   0.80060   0.93124   0.00000  Uiso   1.00
C1029  C     0.16104   0.71180   0.65487   0.00000  Uiso   1.00
C1030  C     0.02298   0.88027   0.83118   0.00000  Uiso   1.00
C1031  C     0.17248   0.95478   0.84449   0.00000  Uiso   1.00
C1032  C     0.18535   0.80576   0.51203   0.00000  Uiso   1.00
C1033  C     0.23365   0.80914   0.97882   0.00000  Uiso   1.00
C1034  C     0.24634   0.79854   0.92430   0.00000  Uiso   1.00
C1035  C     0.21089   0.79261   0.90110   0.00000  Uiso   1.00
C1036  C     0.17455   0.81299   0.56715   0.00000  Uiso   1.00
C1037  C     0.25540   0.83756   0.55417   0.00000  Uiso   1.00
H1038  H     0.06233   0.79372   0.68161   0.00000  Uiso   1.00
H1039  H     0.27868   0.87791   0.61166   0.00000  Uiso   1.00
H1040  H     0.15490   0.73726   0.84398   0.00000  Uiso   1.00
H1041  H     0.17210   0.74422   0.64913   0.00000  Uiso   1.00
H1042  H     0.17524   0.92816   0.65644   0.00000  Uiso   1.00
H1043  H     0.00284   0.77516   0.64818   0.00000  Uiso   1.00
H1044  H     0.05853   0.89085   0.82630   0.00000  Uiso   1.00
H1045  H     0.16129   0.92236   0.85045   0.00000  Uiso   1.00
H1046  H     0.27031   0.87239   0.81842   0.00000  Uiso   1.00
H1047  H     0.28347   0.79689   0.89906   0.00000  Uiso   1.00
H1048  H     0.30407   0.83001   0.97280   0.00000  Uiso   1.00
H1049  H     0.13889   0.80772   0.59395   0.00000  Uiso   1.00
H1050  H     0.05146   0.81313   0.91925   0.00000  Uiso   1.00
H1051  H     0.08705   0.78937   0.56102   0.00000  Uiso   1.00
H1052  H     0.02838   0.79288   0.51515   0.00000  Uiso   1.00
H1053  H     0.22225   0.78291   0.85917   0.00000  Uiso   1.00
N1054  N     0.04760   0.83334   0.75001   0.00000  Uiso   1.00
N1055  N     0.28573   0.83331   0.75000   0.00000  Uiso   1.00
O1056  O     0.12846   0.89442   0.75000   0.00000  Uiso   1.00
O1057  O     0.16972   0.70934   0.84232   0.00000  Uiso   1.00
O1058  O     0.14637   0.69562   0.62091   0.00000  Uiso   1.00
O1059  O     0.16324   0.95712   0.65704   0.00000  Uiso   1.00
O1060  O     0.30738   0.78901   0.67318   0.00000  Uiso   1.00
O1061  O     0.32460   0.89014   0.87272   0.00000  Uiso   1.00
O1062  O     0.18735   0.97102   0.87825   0.00000  Uiso   1.00
O1063  O     0.20490   0.89441   0.75000   0.00000  Uiso   1.00
O1064  O     0.10947   0.83333   0.82681   0.00000  Uiso   1.00
O1065  O     0.18591   0.83332   0.82681   0.00000  Uiso   1.00
O1066  O     0.12843   0.77226   0.74999   0.00000  Uiso   1.00
O1067  O     0.20488   0.77225   0.74999   0.00000  Uiso   1.00
O1068  O     0.14742   0.83335   0.67319   0.00000  Uiso   1.00
O1069  O     0.22387   0.83334   0.67319   0.00000  Uiso   1.00
O1070  O     0.33006   0.86933   0.54217   0.00000  Uiso   1.00
Zn1071 Zn    0.11562   0.83334   0.75000   0.00000  Uiso   1.00
Zn1072 Zn    0.21771   0.83333   0.75000   0.00000  Uiso   1.00
C1073  C     0.49997   0.91312   0.75009   0.00000  Uiso   1.00
C1074  C     0.46063   0.81133   0.90703   0.00000  Uiso   1.00
C1075  C     0.50364   0.97831   0.79578   0.00000  Uiso   1.00
C1076  C     0.47444   0.82726   0.85113   0.00000  Uiso   1.00
C1077  C     0.50266   0.68838   0.79596   0.00000  Uiso   1.00
C1078  C     0.49989   0.70930   0.74957   0.00000  Uiso   1.00
C1079  C     0.49652   0.68821   0.70351   0.00000  Uiso   1.00
C1080  C     0.49733   0.97809   0.70336   0.00000  Uiso   1.00
C1081  C     0.50023   0.95723   0.74977   0.00000  Uiso   1.00
C1082  C     0.65359   0.81120   0.71158   0.00000  Uiso   1.00
C1083  C     0.36841   0.81130   0.71185   0.00000  Uiso   1.00
C1084  C     0.48241   0.79938   0.98813   0.00000  Uiso   1.00
C1085  C     0.34565   0.85529   0.78874   0.00000  Uiso   1.00
C1086  C     0.63120   0.85493   0.78835   0.00000  Uiso   1.00
C1087  C     0.50014   0.75350   0.74951   0.00000  Uiso   1.00
C1088  C     0.52629   0.83382   0.64766   0.00000  Uiso   1.00
C1089  C     0.60147   0.82486   0.99984   0.00000  Uiso   1.00
C1090  C     0.54198   0.82871   0.58874   0.00000  Uiso   1.00
C1091  C     0.41225   0.80780   0.93757   0.00000  Uiso   1.00
C1092  C     0.39899   0.79723   0.99210   0.00000  Uiso   1.00
C1093  C     0.43332   0.79497   0.51801   0.00000  Uiso   1.00
C1094  C     0.62287   0.86294   0.57228   0.00000  Uiso   1.00
C1095  C     0.49579   0.80060   0.93124   0.00000  Uiso   1.00
C1096  C     0.49437   0.71180   0.65487   0.00000  Uiso   1.00
C1097  C     0.35632   0.88027   0.83118   0.00000  Uiso   1.00
C1098  C     0.50582   0.95478   0.84449   0.00000  Uiso   1.00
C1099  C     0.51868   0.80576   0.51203   0.00000  Uiso   1.00
C1100  C     0.56698   0.80914   0.97882   0.00000  Uiso   1.00
C1101  C     0.57967   0.79854   0.92430   0.00000  Uiso   1.00
C1102  C     0.54422   0.79261   0.90110   0.00000  Uiso   1.00
C1103  C     0.50789   0.81299   0.56715   0.00000  Uiso   1.00
C1104  C     0.58873   0.83756   0.55417   0.00000  Uiso   1.00
H1105  H     0.39566   0.79372   0.68161   0.00000  Uiso   1.00
H1106  H     0.61201   0.87791   0.61166   0.00000  Uiso   1.00
H1107  H     0.48823   0.73726   0.84398   0.00000  Uiso   1.00
H1108  H     0.50544   0.74422   0.64913   0.00000  Uiso   1.00
H1109  H     0.50858   0.92816   0.65644   0.00000  Uiso   1.00
H1110  H     0.33617   0.77516   0.64818   0.00000  Uiso   1.00
H1111  H     0.39187   0.89085   0.82630   0.00000  Uiso   1.00
H1112  H     0.49463   0.92236   0.85045   0.00000  Uiso   1.00
H1113  H     0.60364   0.87239   0.81842   0.00000  Uiso   1.00
H1114  H     0.61681   0.79689   0.89906   0.00000  Uiso   1.00
H1115  H     0.63740   0.83001   0.97280   0.00000  Uiso   1.00
H1116  H     0.47223   0.80772   0.59395   0.00000  Uiso   1.00
H1117  H     0.38479   0.81313   0.91925   0.00000  Uiso   1.00
H1118  H     0.42038   0.78937   0.56102   0.00000  Uiso   1.00
H1119  H     0.36172   0.79288   0.51515   0.00000  Uiso   1.00
H1120  H     0.55558   0.78291   0.85917   0.00000  Uiso   1.00
N1121  N     0.38093   0.83334   0.75001   0.00000  Uiso   1.00
N1122  N     0.61906   0.83331   0.75000   0.00000  Uiso   1.00
O1123  O     0.46179   0.89442   0.75000   0.00000  Uiso   1.00
O1124  O     0.50305   0.70934   0.84232   0.00000  Uiso   1.00
O1125  O     0.47970   0.69562   0.62091   0.00000  Uiso   1.00
O1126  O     0.49657   0.95712   0.65704   0.00000  Uiso   1.00
O1127  O     0.64071   0.78901   0.67318   0.00000  Uiso   1.00
O1128  O     0.65794   0.89014   0.87272   0.00000  Uiso   1.00
O1129  O     0.52068   0.97102   0.87825   0.00000  Uiso   1.00
O1130  O     0.53823   0.89441   0.75000   0.00000  Uiso   1.00
O1131  O     0.44280   0.83333   0.82681   0.00000  Uiso   1.00
O1132  O     0.51924   0.83332   0.82681   0.00000  Uiso   1.00
O1133  O     0.46177   0.77226   0.74999   0.00000  Uiso   1.00
O1134  O     0.53821   0.77225   0.74999   0.00000  Uiso   1.00
O1135  O     0.48076   0.83335   0.67319   0.00000  Uiso   1.00
O1136  O     0.55720   0.83334   0.67319   0.00000  Uiso   1.00
O1137  O     0.66339   0.86933   0.54217   0.00000  Uiso   1.00
Zn1138 Zn    0.44896   0.83334   0.75000   0.00000  Uiso   1.00
Zn1139 Zn    0.55104   0.83333   0.75000   0.00000  Uiso   1.00
C1140  C     0.83330   0.91312   0.75009   0.00000  Uiso   1.00
C1141  C     0.79396   0.81133   0.90703   0.00000  Uiso   1.00
C1142  C     0.83697   0.97831   0.79578   0.00000  Uiso   1.00
C1143  C     0.80778   0.82726   0.85113   0.00000  Uiso   1.00
C1144  C     0.83599   0.68838   0.79596   0.00000  Uiso   1.00
C1145  C     0.83322   0.70930   0.74957   0.00000  Uiso   1.00
C1146  C     0.82986   0.68821   0.70351   0.00000  Uiso   1.00
C1147  C     0.83066   0.97809   0.70336   0.00000  Uiso   1.00
C1148  C     0.83356   0.95723   0.74977   0.00000  Uiso   1.00
C1149  C     0.98692   0.81120   0.71158   0.00000  Uiso   1.00
C1150  C     0.70174   0.81130   0.71185   0.00000  Uiso   1.00
C1151  C     0.81575   0.79938   0.98813   0.00000  Uiso   1.00
C1152  C     0.67898   0.85529   0.78874   0.00000  Uiso   1.00
C1153  C     0.96454   0.85493   0.78835   0.00000  Uiso   1.00
C1154  C     0.83347   0.75350   0.74951   0.00000  Uiso   1.00
C1155  C     0.85962   0.83382   0.64766   0.00000  Uiso   1.00
C1156  C     0.93480   0.82486   0.99984   0.00000  Uiso   1.00
C1157  C     0.87531   0.82871   0.58874   0.00000  Uiso   1.00
C1158  C     0.74558   0.80780   0.93757   0.00000  Uiso   1.00
C1159  C     0.73233   0.79723   0.99210   0.00000  Uiso   1.00
C1160  C     0.76665   0.79497   0.51801   0.00000  Uiso   1.00
C1161  C     0.95620   0.86294   0.57228   0.00000  Uiso   1.00
C1162  C     0.82912   0.80060   0.93124   0.00000  Uiso   1.00
C1163  C     0.82770   0.71180   0.65487   0.00000  Uiso   1.00
C1164  C     0.68965   0.88027   0.83118   0.00000  Uiso   1.00
C1165  C     0.83915   0.95478   0.84449   0.00000  Uiso   1.00
C1166  C     0.85201   0.80576   0.51203   0.00000  Uiso   1.00
C1167  C     0.90032   0.80914   0.97882   0.00000  Uiso   1.00
C1168  C     0.91300   0.79854   0.92430   0.00000  Uiso   1.00
C1169  C     0.87755   0.79261   0.90110   0.00000  Uiso   1.00
C1170  C     0.84122   0.81299   0.56715   0.00000  Uiso   1.00
C1171  C     0.92206   0.83756   0.55417   0.00000  Uiso   1.00
H1172  H     0.72900   0.79372   0.68161   0.00000  Uiso   1.00
H1173  H     0.94535   0.87791   0.61166   0.00000  Uiso   1.00
H1174  H     0.82157   0.73726   0.84398   0.00000  Uiso   1.00
H1175  H     0.83877   0.74422   0.64913   0.00000  Uiso   1.00
H1176  H     0.84191   0.92816   0.65644   0.00000  Uiso   1.00
H1177  H     0.66951   0.77516   0.64818   0.00000  Uiso   1.00
H1178  H     0.72520   0.89085   0.82630   0.00000  Uiso   1.00
H1179  H     0.82796   0.92236   0.85045   0.00000  Uiso   1.00
H1180  H     0.93697   0.87239   0.81842   0.00000  Uiso   1.00
H1181  H     0.95014   0.79689   0.89906   0.00000  Uiso   1.00
H1182  H     0.97073   0.83001   0.97280   0.00000  Uiso   1.00
H1183  H     0.80556   0.80772   0.59395   0.00000  Uiso   1.00
H1184  H     0.71813   0.81313   0.91925   0.00000  Uiso   1.00
H1185  H     0.75371   0.78937   0.56102   0.00000  Uiso   1.00
H1186  H     0.69505   0.79288   0.51515   0.00000  Uiso   1.00
H1187  H     0.88892   0.78291   0.85917   0.00000  Uiso   1.00
N1188  N     0.71426   0.83334   0.75001   0.00000  Uiso   1.00
N1189  N     0.95239   0.83331   0.75000   0.00000  Uiso   1.00
O1190  O     0.79512   0.89442   0.75000   0.00000  Uiso   1.00
O1191  O     0.83639   0.70934   0.84232   0.00000  Uiso   1.00
O1192  O     0.81304   0.69562   0.62091   0.00000  Uiso   1.00
O1193  O     0.82991   0.95712   0.65704   0.00000  Uiso   1.00
O1194  O     0.97405   0.78901   0.67318   0.00000  Uiso   1.00
O1195  O     0.99127   0.89014   0.87272   0.00000  Uiso   1.00
O1196  O     0.85402   0.97102   0.87825   0.00000  Uiso   1.00
O1197  O     0.87157   0.89441   0.75000   0.00000  Uiso   1.00
O1198  O     0.77613   0.83333   0.82681   0.00000  Uiso   1.00
O1199  O     0.85258   0.83332   0.82681   0.00000  Uiso   1.00
O1200  O     0.79510   0.77226   0.74999   0.00000  Uiso   1.00
O1201  O     0.87154   0.77225   0.74999   0.00000  Uiso   1.00
O1202  O     0.81409   0.83335   0.67319   0.00000  Uiso   1.00
O1203  O     0.89053   0.83334   0.67319   0.00000  Uiso   1.00
O1204  O     0.99673   0.86933   0.54217   0.00000  Uiso   1.00
Zn1205 Zn    0.78229   0.83334   0.75000   0.00000  Uiso   1.00
Zn1206 Zn    0.88438   0.83333   0.75000   0.00000  Uiso   1.00
loop_
_geom_bond_atom_site_label_1
_geom_bond_atom_site_label_2
_geom_bond_distance
_geom_bond_site_symmetry_2
_ccdc_geom_bond_type
C1     O58     1.279   .     A
C1     O51     1.281   .     A
C1     C9      1.409   .     S
C2     C4      1.474   .     S
C2     C23     1.424   .     A
C2     C19     1.400   .     A
C3     C9      1.408   .     A
C3     C26     1.498   .     S
C3     C206    1.387   .     S
C4     O60     1.287   .     A
C4     O59     1.306   .     A
C5     O52     1.385   .     S
C5     C6      1.410   .     A
C5     C405    1.387   1_545 S
C6     C7      1.409   .     A
C6     C15     1.412   .     S
C7     C24     1.497   .     S
C7     C410    1.388   1_545 S
C8     C9      1.411   .     A
C8     O54     1.387   .     S
C8     C208    1.388   .     S
C10    O55     1.378   .     S
C10    N50     1.370   .     A
C10    C78     1.428   .     S
C11    N49     1.365   .     A
C11    H33     1.082   .     S
C11    C144    1.428   1_455 S
C12    C23     1.408   .     A
C12    C624    1.417   .     S
C12    C630    1.421   .     S
C13    C25     1.479   .     S
C13    N49     1.382   .     A
C13    C148    1.418   1_455 S
C14    N50     1.357   .     A
C14    H41     1.083   .     S
C14    C80     1.418   .     S
C15    O62     1.282   .     A
C15    O61     1.279   .     A
C16    O63     1.296   .     A
C16    C18     1.464   .     S
C16    O64     1.296   .     A
C17    H43     1.083   .     S
C17    C28     1.401   .     A
C17    C635    1.402   .     S
C18    C32     1.416   .     A
C18    C31     1.400   .     A
C19    H45     1.082   .     S
C19    C20     1.391   .     A
C20    C624    1.394   .     S
C20    H650    1.082   .     S
C21    H46     1.078   .     S
C21    C615    1.417   1_554 S
C21    C623    1.394   1_554 S
C22    O65     1.221   .     D
C22    C32     1.489   .     S
C22    H34     1.082   .     S
C23    C30     1.416   .     A
C24    O53     1.221   .     D
C24    H36     1.083   .     S
C25    H39     1.074   .     S
C25    O190    1.222   1_455 S
C26    H40     1.084   .     S
C26    O57     1.221   .     D
C27    C31     1.388   .     A
C27    C615    1.421   1_554 S
C27    C631    1.416   1_554 S
C28    C29     1.390   .     A
C28    C630    1.416   .     S
C29    H42     1.084   .     S
C29    C30     1.385   .     A
C30    H48     1.080   .     S
C31    H44     1.075   .     S
C32    C620    1.402   1_554 S
H35    O52     0.987   .     S
H37    O54     0.988   .     S
H38    O189    0.992   1_455 S
H47    C623    1.082   1_554 S
N49    Zn66    2.015   .     S
N50    Zn67    2.015   .     S
O51    Zn66    1.989   .     S
O55    H105    0.992   .     S
O56    C92     1.222   .     S
O58    Zn67    1.987   .     S
O59    Zn66    1.954   .     S
O60    Zn67    1.919   .     S
O61    Zn66    1.987   .     S
O62    Zn67    1.989   .     S
O63    Zn66    1.919   .     S
O64    Zn67    1.954   .     S
C68    O125    1.279   .     A
C68    O118    1.281   .     A
C68    C76     1.409   .     S
C69    C71     1.474   .     S
C69    C90     1.424   .     A
C69    C86     1.400   .     A
C70    C76     1.408   .     A
C70    C93     1.498   .     S
C70    C273    1.387   .     S
C71    O127    1.287   .     A
C71    O126    1.306   .     A
C72    O119    1.385   .     S
C72    C73     1.410   .     A
C72    C472    1.387   1_545 S
C73    C74     1.409   .     A
C73    C82     1.412   .     S
C74    C91     1.497   .     S
C74    C477    1.388   1_545 S
C75    C76     1.411   .     A
C75    O121    1.387   .     S
C75    C275    1.388   .     S
C77    O122    1.378   .     S
C77    N117    1.370   .     A
C77    C145    1.428   .     S
C78    N116    1.365   .     A
C78    H100    1.082   .     S
C79    C90     1.408   .     A
C79    C691    1.417   .     S
C79    C697    1.421   .     S
C80    C92     1.479   .     S
C80    N116    1.382   .     A
C81    N117    1.357   .     A
C81    H108    1.083   .     S
C81    C147    1.418   .     S
C82    O129    1.282   .     A
C82    O128    1.279   .     A
C83    O130    1.296   .     A
C83    C85     1.464   .     S
C83    O131    1.296   .     A
C84    H110    1.083   .     S
C84    C95     1.401   .     A
C84    C702    1.402   .     S
C85    C99     1.416   .     A
C85    C98     1.400   .     A
C86    H112    1.082   .     S
C86    C87     1.391   .     A
C87    C691    1.394   .     S
C87    H717    1.082   .     S
C88    H113    1.078   .     S
C88    C682    1.417   1_554 S
C88    C690    1.394   1_554 S
C89    O132    1.221   .     D
C89    C99     1.489   .     S
C89    H101    1.082   .     S
C90    C97     1.416   .     A
C91    O120    1.221   .     D
C91    H103    1.083   .     S
C92    H106    1.074   .     S
C93    H107    1.084   .     S
C93    O124    1.221   .     D
C94    C98     1.388   .     A
C94    C682    1.421   1_554 S
C94    C698    1.416   1_554 S
C95    C96     1.390   .     A
C95    C697    1.416   .     S
C96    H109    1.084   .     S
C96    C97     1.385   .     A
C97    H115    1.080   .     S
C98    H111    1.075   .     S
C99    C687    1.402   1_554 S
H102   O119    0.987   .     S
H104   O121    0.988   .     S
H114   C690    1.082   1_554 S
N116   Zn133   2.015   .     S
N117   Zn134   2.015   .     S
O118   Zn133   1.989   .     S
O122   H172    0.992   .     S
O123   C159    1.222   .     S
O125   Zn134   1.987   .     S
O126   Zn133   1.954   .     S
O127   Zn134   1.919   .     S
O128   Zn133   1.987   .     S
O129   Zn134   1.989   .     S
O130   Zn133   1.919   .     S
O131   Zn134   1.954   .     S
C135   O192    1.279   .     A
C135   O185    1.281   .     A
C135   C143    1.409   .     S
C136   C138    1.474   .     S
C136   C157    1.424   .     A
C136   C153    1.400   .     A
C137   C143    1.408   .     A
C137   C160    1.498   .     S
C137   C340    1.387   .     S
C138   O194    1.287   .     A
C138   O193    1.306   .     A
C139   O186    1.385   .     S
C139   C140    1.410   .     A
C139   C539    1.387   1_545 S
C140   C141    1.409   .     A
C140   C149    1.412   .     S
C141   C158    1.497   .     S
C141   C544    1.388   1_545 S
C142   C143    1.411   .     A
C142   O188    1.387   .     S
C142   C342    1.388   .     S
C144   O189    1.378   .     S
C144   N184    1.370   .     A
C144   C11     1.428   1_655 S
C145   N183    1.365   .     A
C145   H167    1.082   .     S
C146   C157    1.408   .     A
C146   C758    1.417   .     S
C146   C764    1.421   .     S
C147   C159    1.479   .     S
C147   N183    1.382   .     A
C148   N184    1.357   .     A
C148   H175    1.083   .     S
C148   C13     1.418   1_655 S
C149   O196    1.282   .     A
C149   O195    1.279   .     A
C150   O197    1.296   .     A
C150   C152    1.464   .     S
C150   O198    1.296   .     A
C151   H177    1.083   .     S
C151   C162    1.401   .     A
C151   C769    1.402   .     S
C152   C166    1.416   .     A
C152   C165    1.400   .     A
C153   H179    1.082   .     S
C153   C154    1.391   .     A
C154   C758    1.394   .     S
C154   H784    1.082   .     S
C155   H180    1.078   .     S
C155   C749    1.417   1_554 S
C155   C757    1.394   1_554 S
C156   O199    1.221   .     D
C156   C166    1.489   .     S
C156   H168    1.082   .     S
C157   C164    1.416   .     A
C158   O187    1.221   .     D
C158   H170    1.083   .     S
C159   H173    1.074   .     S
C160   H174    1.084   .     S
C160   O191    1.221   .     D
C161   C165    1.388   .     A
C161   C749    1.421   1_554 S
C161   C765    1.416   1_554 S
C162   C163    1.390   .     A
C162   C764    1.416   .     S
C163   H176    1.084   .     S
C163   C164    1.385   .     A
C164   H182    1.080   .     S
C165   H178    1.075   .     S
C166   C754    1.402   1_554 S
H169   O186    0.987   .     S
H171   O188    0.988   .     S
H181   C757    1.082   1_554 S
N183   Zn200   2.015   .     S
N184   Zn201   2.015   .     S
O185   Zn200   1.989   .     S
O189   H38     0.992   1_655 S
O190   C25     1.222   1_655 S
O192   Zn201   1.987   .     S
O193   Zn200   1.954   .     S
O194   Zn201   1.919   .     S
O195   Zn200   1.987   .     S
O196   Zn201   1.989   .     S
O197   Zn200   1.919   .     S
O198   Zn201   1.954   .     S
C202   O259    1.279   .     A
C202   O252    1.281   .     A
C202   C210    1.409   .     S
C203   C205    1.474   .     S
C203   C224    1.424   .     A
C203   C220    1.400   .     A
C204   C210    1.408   .     A
C204   C227    1.498   .     S
C204   C407    1.387   .     S
C205   O261    1.287   .     A
C205   O260    1.306   .     A
C206   O253    1.385   .     S
C206   C207    1.410   .     A
C207   C208    1.409   .     A
C207   C216    1.412   .     S
C208   C225    1.497   .     S
C209   C210    1.411   .     A
C209   O255    1.387   .     S
C209   C409    1.388   .     S
C211   O256    1.378   .     S
C211   N251    1.370   .     A
C211   C279    1.428   .     S
C212   N250    1.365   .     A
C212   H234    1.082   .     S
C212   C345    1.428   1_455 S
C213   C224    1.408   .     A
C213   C825    1.417   .     S
C213   C831    1.421   .     S
C214   C226    1.479   .     S
C214   N250    1.382   .     A
C214   C349    1.418   1_455 S
C215   N251    1.357   .     A
C215   H242    1.083   .     S
C215   C281    1.418   .     S
C216   O263    1.282   .     A
C216   O262    1.279   .     A
C217   O264    1.296   .     A
C217   C219    1.464   .     S
C217   O265    1.296   .     A
C218   H244    1.083   .     S
C218   C229    1.401   .     A
C218   C836    1.402   .     S
C219   C233    1.416   .     A
C219   C232    1.400   .     A
C220   H246    1.082   .     S
C220   C221    1.391   .     A
C221   C825    1.394   .     S
C221   H851    1.082   .     S
C222   H247    1.078   .     S
C222   C816    1.417   1_554 S
C222   C824    1.394   1_554 S
C223   O266    1.221   .     D
C223   C233    1.489   .     S
C223   H235    1.082   .     S
C224   C231    1.416   .     A
C225   O254    1.221   .     D
C225   H237    1.083   .     S
C226   H240    1.074   .     S
C226   O391    1.222   1_455 S
C227   H241    1.084   .     S
C227   O258    1.221   .     D
C228   C232    1.388   .     A
C228   C816    1.421   1_554 S
C228   C832    1.416   1_554 S
C229   C230    1.390   .     A
C229   C831    1.416   .     S
C230   H243    1.084   .     S
C230   C231    1.385   .     A
C231   H249    1.080   .     S
C232   H245    1.075   .     S
C233   C821    1.402   1_554 S
H236   O253    0.987   .     S
H238   O255    0.988   .     S
H239   O390    0.992   1_455 S
H248   C824    1.082   1_554 S
N250   Zn267   2.015   .     S
N251   Zn268   2.015   .     S
O252   Zn267   1.989   .     S
O256   H306    0.992   .     S
O257   C293    1.222   .     S
O259   Zn268   1.987   .     S
O260   Zn267   1.954   .     S
O261   Zn268   1.919   .     S
O262   Zn267   1.987   .     S
O263   Zn268   1.989   .     S
O264   Zn267   1.919   .     S
O265   Zn268   1.954   .     S
C269   O326    1.279   .     A
C269   O319    1.281   .     A
C269   C277    1.409   .     S
C270   C272    1.474   .     S
C270   C291    1.424   .     A
C270   C287    1.400   .     A
C271   C277    1.408   .     A
C271   C294    1.498   .     S
C271   C474    1.387   .     S
C272   O328    1.287   .     A
C272   O327    1.306   .     A
C273   O320    1.385   .     S
C273   C274    1.410   .     A
C274   C275    1.409   .     A
C274   C283    1.412   .     S
C275   C292    1.497   .     S
C276   C277    1.411   .     A
C276   O322    1.387   .     S
C276   C476    1.388   .     S
C278   O323    1.378   .     S
C278   N318    1.370   .     A
C278   C346    1.428   .     S
C279   N317    1.365   .     A
C279   H301    1.082   .     S
C280   C291    1.408   .     A
C280   C892    1.417   .     S
C280   C898    1.421   .     S
C281   C293    1.479   .     S
C281   N317    1.382   .     A
C282   N318    1.357   .     A
C282   H309    1.083   .     S
C282   C348    1.418   .     S
C283   O330    1.282   .     A
C283   O329    1.279   .     A
C284   O331    1.296   .     A
C284   C286    1.464   .     S
C284   O332    1.296   .     A
C285   H311    1.083   .     S
C285   C296    1.401   .     A
C285   C903    1.402   .     S
C286   C300    1.416   .     A
C286   C299    1.400   .     A
C287   H313    1.082   .     S
C287   C288    1.391   .     A
C288   C892    1.394   .     S
C288   H918    1.082   .     S
C289   H314    1.078   .     S
C289   C883    1.417   1_554 S
C289   C891    1.394   1_554 S
C290   O333    1.221   .     D
C290   C300    1.489   .     S
C290   H302    1.082   .     S
C291   C298    1.416   .     A
C292   O321    1.221   .     D
C292   H304    1.083   .     S
C293   H307    1.074   .     S
C294   H308    1.084   .     S
C294   O325    1.221   .     D
C295   C299    1.388   .     A
C295   C883    1.421   1_554 S
C295   C899    1.416   1_554 S
C296   C297    1.390   .     A
C296   C898    1.416   .     S
C297   H310    1.084   .     S
C297   C298    1.385   .     A
C298   H316    1.080   .     S
C299   H312    1.075   .     S
C300   C888    1.402   1_554 S
H303   O320    0.987   .     S
H305   O322    0.988   .     S
H315   C891    1.082   1_554 S
N317   Zn334   2.015   .     S
N318   Zn335   2.015   .     S
O319   Zn334   1.989   .     S
O323   H373    0.992   .     S
O324   C360    1.222   .     S
O326   Zn335   1.987   .     S
O327   Zn334   1.954   .     S
O328   Zn335   1.919   .     S
O329   Zn334   1.987   .     S
O330   Zn335   1.989   .     S
O331   Zn334   1.919   .     S
O332   Zn335   1.954   .     S
C336   O393    1.279   .     A
C336   O386    1.281   .     A
C336   C344    1.409   .     S
C337   C339    1.474   .     S
C337   C358    1.424   .     A
C337   C354    1.400   .     A
C338   C344    1.408   .     A
C338   C361    1.498   .     S
C338   C541    1.387   .     S
C339   O395    1.287   .     A
C339   O394    1.306   .     A
C340   O387    1.385   .     S
C340   C341    1.410   .     A
C341   C342    1.409   .     A
C341   C350    1.412   .     S
C342   C359    1.497   .     S
C343   C344    1.411   .     A
C343   O389    1.387   .     S
C343   C543    1.388   .     S
C345   O390    1.378   .     S
C345   N385    1.370   .     A
C345   C212    1.428   1_655 S
C346   N384    1.365   .     A
C346   H368    1.082   .     S
C347   C358    1.408   .     A
C347   C959    1.417   .     S
C347   C965    1.421   .     S
C348   C360    1.479   .     S
C348   N384    1.382   .     A
C349   N385    1.357   .     A
C349   H376    1.083   .     S
C349   C214    1.418   1_655 S
C350   O397    1.282   .     A
C350   O396    1.279   .     A
C351   O398    1.296   .     A
C351   C353    1.464   .     S
C351   O399    1.296   .     A
C352   H378    1.083   .     S
C352   C363    1.401   .     A
C352   C970    1.402   .     S
C353   C367    1.416   .     A
C353   C366    1.400   .     A
C354   H380    1.082   .     S
C354   C355    1.391   .     A
C355   C959    1.394   .     S
C355   H985    1.082   .     S
C356   H381    1.078   .     S
C356   C950    1.417   1_554 S
C356   C958    1.394   1_554 S
C357   O400    1.221   .     D
C357   C367    1.489   .     S
C357   H369    1.082   .     S
C358   C365    1.416   .     A
C359   O388    1.221   .     D
C359   H371    1.083   .     S
C360   H374    1.074   .     S
C361   H375    1.084   .     S
C361   O392    1.221   .     D
C362   C366    1.388   .     A
C362   C950    1.421   1_554 S
C362   C966    1.416   1_554 S
C363   C364    1.390   .     A
C363   C965    1.416   .     S
C364   H377    1.084   .     S
C364   C365    1.385   .     A
C365   H383    1.080   .     S
C366   H379    1.075   .     S
C367   C955    1.402   1_554 S
H370   O387    0.987   .     S
H372   O389    0.988   .     S
H382   C958    1.082   1_554 S
N384   Zn401   2.015   .     S
N385   Zn402   2.015   .     S
O386   Zn401   1.989   .     S
O390   H239    0.992   1_655 S
O391   C226    1.222   1_655 S
O393   Zn402   1.987   .     S
O394   Zn401   1.954   .     S
O395   Zn402   1.919   .     S
O396   Zn401   1.987   .     S
O397   Zn402   1.989   .     S
O398   Zn401   1.919   .     S
O399   Zn402   1.954   .     S
C403   O460    1.279   .     A
C403   O453    1.281   .     A
C403   C411    1.409   .     S
C404   C406    1.474   .     S
C404   C425    1.424   .     A
C404   C421    1.400   .     A
C405   C411    1.408   .     A
C405   C428    1.498   .     S
C405   C5      1.387   1_565 S
C406   O462    1.287   .     A
C406   O461    1.306   .     A
C407   O454    1.385   .     S
C407   C408    1.410   .     A
C408   C409    1.409   .     A
C408   C417    1.412   .     S
C409   C426    1.497   .     S
C410   C411    1.411   .     A
C410   O456    1.387   .     S
C410   C7      1.388   1_565 S
C412   O457    1.378   .     S
C412   N452    1.370   .     A
C412   C480    1.428   .     S
C413   N451    1.365   .     A
C413   H435    1.082   .     S
C413   C546    1.428   1_455 S
C414   C425    1.408   .     A
C414   C1026   1.417   .     S
C414   C1032   1.421   .     S
C415   C427    1.479   .     S
C415   N451    1.382   .     A
C415   C550    1.418   1_455 S
C416   N452    1.357   .     A
C416   H443    1.083   .     S
C416   C482    1.418   .     S
C417   O464    1.282   .     A
C417   O463    1.279   .     A
C418   O465    1.296   .     A
C418   C420    1.464   .     S
C418   O466    1.296   .     A
C419   H445    1.083   .     S
C419   C430    1.401   .     A
C419   C1037   1.402   .     S
C420   C434    1.416   .     A
C420   C433    1.400   .     A
C421   H447    1.082   .     S
C421   C422    1.391   .     A
C422   C1026   1.394   .     S
C422   H1052   1.082   .     S
C423   H448    1.078   .     S
C423   C1017   1.417   1_554 S
C423   C1025   1.394   1_554 S
C424   O467    1.221   .     D
C424   C434    1.489   .     S
C424   H436    1.082   .     S
C425   C432    1.416   .     A
C426   O455    1.221   .     D
C426   H438    1.083   .     S
C427   H441    1.074   .     S
C427   O592    1.222   1_455 S
C428   H442    1.084   .     S
C428   O459    1.221   .     D
C429   C433    1.388   .     A
C429   C1017   1.421   1_554 S
C429   C1033   1.416   1_554 S
C430   C431    1.390   .     A
C430   C1032   1.416   .     S
C431   H444    1.084   .     S
C431   C432    1.385   .     A
C432   H450    1.080   .     S
C433   H446    1.075   .     S
C434   C1022   1.402   1_554 S
H437   O454    0.987   .     S
H439   O456    0.988   .     S
H440   O591    0.992   1_455 S
H449   C1025   1.082   1_554 S
N451   Zn468   2.015   .     S
N452   Zn469   2.015   .     S
O453   Zn468   1.989   .     S
O457   H507    0.992   .     S
O458   C494    1.222   .     S
O460   Zn469   1.987   .     S
O461   Zn468   1.954   .     S
O462   Zn469   1.919   .     S
O463   Zn468   1.987   .     S
O464   Zn469   1.989   .     S
O465   Zn468   1.919   .     S
O466   Zn469   1.954   .     S
C470   O527    1.279   .     A
C470   O520    1.281   .     A
C470   C478    1.409   .     S
C471   C473    1.474   .     S
C471   C492    1.424   .     A
C471   C488    1.400   .     A
C472   C478    1.408   .     A
C472   C495    1.498   .     S
C472   C72     1.387   1_565 S
C473   O529    1.287   .     A
C473   O528    1.306   .     A
C474   O521    1.385   .     S
C474   C475    1.410   .     A
C475   C476    1.409   .     A
C475   C484    1.412   .     S
C476   C493    1.497   .     S
C477   C478    1.411   .     A
C477   O523    1.387   .     S
C477   C74     1.388   1_565 S
C479   O524    1.378   .     S
C479   N519    1.370   .     A
C479   C547    1.428   .     S
C480   N518    1.365   .     A
C480   H502    1.082   .     S
C481   C492    1.408   .     A
C481   C1093   1.417   .     S
C481   C1099   1.421   .     S
C482   C494    1.479   .     S
C482   N518    1.382   .     A
C483   N519    1.357   .     A
C483   H510    1.083   .     S
C483   C549    1.418   .     S
C484   O531    1.282   .     A
C484   O530    1.279   .     A
C485   O532    1.296   .     A
C485   C487    1.464   .     S
C485   O533    1.296   .     A
C486   H512    1.083   .     S
C486   C497    1.401   .     A
C486   C1104   1.402   .     S
C487   C501    1.416   .     A
C487   C500    1.400   .     A
C488   H514    1.082   .     S
C488   C489    1.391   .     A
C489   C1093   1.394   .     S
C489   H1119   1.082   .     S
C490   H515    1.078   .     S
C490   C1084   1.417   1_554 S
C490   C1092   1.394   1_554 S
C491   O534    1.221   .     D
C491   C501    1.489   .     S
C491   H503    1.082   .     S
C492   C499    1.416   .     A
C493   O522    1.221   .     D
C493   H505    1.083   .     S
C494   H508    1.074   .     S
C495   H509    1.084   .     S
C495   O526    1.221   .     D
C496   C500    1.388   .     A
C496   C1084   1.421   1_554 S
C496   C1100   1.416   1_554 S
C497   C498    1.390   .     A
C497   C1099   1.416   .     S
C498   H511    1.084   .     S
C498   C499    1.385   .     A
C499   H517    1.080   .     S
C500   H513    1.075   .     S
C501   C1089   1.402   1_554 S
H504   O521    0.987   .     S
H506   O523    0.988   .     S
H516   C1092   1.082   1_554 S
N518   Zn535   2.015   .     S
N519   Zn536   2.015   .     S
O520   Zn535   1.989   .     S
O524   H574    0.992   .     S
O525   C561    1.222   .     S
O527   Zn536   1.987   .     S
O528   Zn535   1.954   .     S
O529   Zn536   1.919   .     S
O530   Zn535   1.987   .     S
O531   Zn536   1.989   .     S
O532   Zn535   1.919   .     S
O533   Zn536   1.954   .     S
C537   O594    1.279   .     A
C537   O587    1.281   .     A
C537   C545    1.409   .     S
C538   C540    1.474   .     S
C538   C559    1.424   .     A
C538   C555    1.400   .     A
C539   C545    1.408   .     A
C539   C562    1.498   .     S
C539   C139    1.387   1_565 S
C540   O596    1.287   .     A
C540   O595    1.306   .     A
C541   O588    1.385   .     S
C541   C542    1.410   .     A
C542   C543    1.409   .     A
C542   C551    1.412   .     S
C543   C560    1.497   .     S
C544   C545    1.411   .     A
C544   O590    1.387   .     S
C544   C141    1.388   1_565 S
C546   O591    1.378   .     S
C546   N586    1.370   .     A
C546   C413    1.428   1_655 S
C547   N585    1.365   .     A
C547   H569    1.082   .     S
C548   C559    1.408   .     A
C548   C1160   1.417   .     S
C548   C1166   1.421   .     S
C549   C561    1.479   .     S
C549   N585    1.382   .     A
C550   N586    1.357   .     A
C550   H577    1.083   .     S
C550   C415    1.418   1_655 S
C551   O598    1.282   .     A
C551   O597    1.279   .     A
C552   O599    1.296   .     A
C552   C554    1.464   .     S
C552   O600    1.296   .     A
C553   H579    1.083   .     S
C553   C564    1.401   .     A
C553   C1171   1.402   .     S
C554   C568    1.416   .     A
C554   C567    1.400   .     A
C555   H581    1.082   .     S
C555   C556    1.391   .     A
C556   C1160   1.394   .     S
C556   H1186   1.082   .     S
C557   H582    1.078   .     S
C557   C1151   1.417   1_554 S
C557   C1159   1.394   1_554 S
C558   O601    1.221   .     D
C558   C568    1.489   .     S
C558   H570    1.082   .     S
C559   C566    1.416   .     A
C560   O589    1.221   .     D
C560   H572    1.083   .     S
C561   H575    1.074   .     S
C562   H576    1.084   .     S
C562   O593    1.221   .     D
C563   C567    1.388   .     A
C563   C1151   1.421   1_554 S
C563   C1167   1.416   1_554 S
C564   C565    1.390   .     A
C564   C1166   1.416   .     S
C565   H578    1.084   .     S
C565   C566    1.385   .     A
C566   H584    1.080   .     S
C567   H580    1.075   .     S
C568   C1156   1.402   1_554 S
H571   O588    0.987   .     S
H573   O590    0.988   .     S
H583   C1159   1.082   1_554 S
N585   Zn602   2.015   .     S
N586   Zn603   2.015   .     S
O587   Zn602   1.989   .     S
O591   H440    0.992   1_655 S
O592   C427    1.222   1_655 S
O594   Zn603   1.987   .     S
O595   Zn602   1.954   .     S
O596   Zn603   1.919   .     S
O597   Zn602   1.987   .     S
O598   Zn603   1.989   .     S
O599   Zn602   1.919   .     S
O600   Zn603   1.954   .     S
C604   O661    1.279   .     A
C604   O654    1.281   .     A
C604   C612    1.409   .     S
C605   C607    1.474   .     S
C605   C626    1.424   .     A
C605   C622    1.400   .     A
C606   C612    1.408   .     A
C606   C629    1.498   .     S
C606   C809    1.387   .     S
C607   O663    1.287   .     A
C607   O662    1.306   .     A
C608   O655    1.385   .     S
C608   C609    1.410   .     A
C608   C1008   1.387   1_545 S
C609   C610    1.409   .     A
C609   C618    1.412   .     S
C610   C627    1.497   .     S
C610   C1013   1.388   1_545 S
C611   C612    1.411   .     A
C611   O657    1.387   .     S
C611   C811    1.388   .     S
C613   O658    1.378   .     S
C613   N653    1.370   .     A
C613   C681    1.428   .     S
C614   N652    1.365   .     A
C614   H636    1.082   .     S
C614   C747    1.428   1_455 S
C615   C626    1.408   .     A
C615   C21     1.417   1_556 S
C615   C27     1.421   1_556 S
C616   C628    1.479   .     S
C616   N652    1.382   .     A
C616   C751    1.418   1_455 S
C617   N653    1.357   .     A
C617   H644    1.083   .     S
C617   C683    1.418   .     S
C618   O665    1.282   .     A
C618   O664    1.279   .     A
C619   O666    1.296   .     A
C619   C621    1.464   .     S
C619   O667    1.296   .     A
C620   H646    1.083   .     S
C620   C631    1.401   .     A
C620   C32     1.402   1_556 S
C621   C635    1.416   .     A
C621   C634    1.400   .     A
C622   H648    1.082   .     S
C622   C623    1.391   .     A
C623   C21     1.394   1_556 S
C623   H47     1.082   1_556 S
C624   H649    1.078   .     S
C625   O668    1.221   .     D
C625   C635    1.489   .     S
C625   H637    1.082   .     S
C626   C633    1.416   .     A
C627   O656    1.221   .     D
C627   H639    1.083   .     S
C628   H642    1.074   .     S
C628   O793    1.222   1_455 S
C629   H643    1.084   .     S
C629   O660    1.221   .     D
C630   C634    1.388   .     A
C631   C632    1.390   .     A
C631   C27     1.416   1_556 S
C632   H645    1.084   .     S
C632   C633    1.385   .     A
C633   H651    1.080   .     S
C634   H647    1.075   .     S
H638   O655    0.987   .     S
H640   O657    0.988   .     S
H641   O792    0.992   1_455 S
N652   Zn669   2.015   .     S
N653   Zn670   2.015   .     S
O654   Zn669   1.989   .     S
O658   H708    0.992   .     S
O659   C695    1.222   .     S
O661   Zn670   1.987   .     S
O662   Zn669   1.954   .     S
O663   Zn670   1.919   .     S
O664   Zn669   1.987   .     S
O665   Zn670   1.989   .     S
O666   Zn669   1.919   .     S
O667   Zn670   1.954   .     S
C671   O728    1.279   .     A
C671   O721    1.281   .     A
C671   C679    1.409   .     S
C672   C674    1.474   .     S
C672   C693    1.424   .     A
C672   C689    1.400   .     A
C673   C679    1.408   .     A
C673   C696    1.498   .     S
C673   C876    1.387   .     S
C674   O730    1.287   .     A
C674   O729    1.306   .     A
C675   O722    1.385   .     S
C675   C676    1.410   .     A
C675   C1075   1.387   1_545 S
C676   C677    1.409   .     A
C676   C685    1.412   .     S
C677   C694    1.497   .     S
C677   C1080   1.388   1_545 S
C678   C679    1.411   .     A
C678   O724    1.387   .     S
C678   C878    1.388   .     S
C680   O725    1.378   .     S
C680   N720    1.370   .     A
C680   C748    1.428   .     S
C681   N719    1.365   .     A
C681   H703    1.082   .     S
C682   C693    1.408   .     A
C682   C88     1.417   1_556 S
C682   C94     1.421   1_556 S
C683   C695    1.479   .     S
C683   N719    1.382   .     A
C684   N720    1.357   .     A
C684   H711    1.083   .     S
C684   C750    1.418   .     S
C685   O732    1.282   .     A
C685   O731    1.279   .     A
C686   O733    1.296   .     A
C686   C688    1.464   .     S
C686   O734    1.296   .     A
C687   H713    1.083   .     S
C687   C698    1.401   .     A
C687   C99     1.402   1_556 S
C688   C702    1.416   .     A
C688   C701    1.400   .     A
C689   H715    1.082   .     S
C689   C690    1.391   .     A
C690   C88     1.394   1_556 S
C690   H114    1.082   1_556 S
C691   H716    1.078   .     S
C692   O735    1.221   .     D
C692   C702    1.489   .     S
C692   H704    1.082   .     S
C693   C700    1.416   .     A
C694   O723    1.221   .     D
C694   H706    1.083   .     S
C695   H709    1.074   .     S
C696   H710    1.084   .     S
C696   O727    1.221   .     D
C697   C701    1.388   .     A
C698   C699    1.390   .     A
C698   C94     1.416   1_556 S
C699   H712    1.084   .     S
C699   C700    1.385   .     A
C700   H718    1.080   .     S
C701   H714    1.075   .     S
H705   O722    0.987   .     S
H707   O724    0.988   .     S
N719   Zn736   2.015   .     S
N720   Zn737   2.015   .     S
O721   Zn736   1.989   .     S
O725   H775    0.992   .     S
O726   C762    1.222   .     S
O728   Zn737   1.987   .     S
O729   Zn736   1.954   .     S
O730   Zn737   1.919   .     S
O731   Zn736   1.987   .     S
O732   Zn737   1.989   .     S
O733   Zn736   1.919   .     S
O734   Zn737   1.954   .     S
C738   O795    1.279   .     A
C738   O788    1.281   .     A
C738   C746    1.409   .     S
C739   C741    1.474   .     S
C739   C760    1.424   .     A
C739   C756    1.400   .     A
C740   C746    1.408   .     A
C740   C763    1.498   .     S
C740   C943    1.387   .     S
C741   O797    1.287   .     A
C741   O796    1.306   .     A
C742   O789    1.385   .     S
C742   C743    1.410   .     A
C742   C1142   1.387   1_545 S
C743   C744    1.409   .     A
C743   C752    1.412   .     S
C744   C761    1.497   .     S
C744   C1147   1.388   1_545 S
C745   C746    1.411   .     A
C745   O791    1.387   .     S
C745   C945    1.388   .     S
C747   O792    1.378   .     S
C747   N787    1.370   .     A
C747   C614    1.428   1_655 S
C748   N786    1.365   .     A
C748   H770    1.082   .     S
C749   C760    1.408   .     A
C749   C155    1.417   1_556 S
C749   C161    1.421   1_556 S
C750   C762    1.479   .     S
C750   N786    1.382   .     A
C751   N787    1.357   .     A
C751   H778    1.083   .     S
C751   C616    1.418   1_655 S
C752   O799    1.282   .     A
C752   O798    1.279   .     A
C753   O800    1.296   .     A
C753   C755    1.464   .     S
C753   O801    1.296   .     A
C754   H780    1.083   .     S
C754   C765    1.401   .     A
C754   C166    1.402   1_556 S
C755   C769    1.416   .     A
C755   C768    1.400   .     A
C756   H782    1.082   .     S
C756   C757    1.391   .     A
C757   C155    1.394   1_556 S
C757   H181    1.082   1_556 S
C758   H783    1.078   .     S
C759   O802    1.221   .     D
C759   C769    1.489   .     S
C759   H771    1.082   .     S
C760   C767    1.416   .     A
C761   O790    1.221   .     D
C761   H773    1.083   .     S
C762   H776    1.074   .     S
C763   H777    1.084   .     S
C763   O794    1.221   .     D
C764   C768    1.388   .     A
C765   C766    1.390   .     A
C765   C161    1.416   1_556 S
C766   H779    1.084   .     S
C766   C767    1.385   .     A
C767   H785    1.080   .     S
C768   H781    1.075   .     S
H772   O789    0.987   .     S
H774   O791    0.988   .     S
N786   Zn803   2.015   .     S
N787   Zn804   2.015   .     S
O788   Zn803   1.989   .     S
O792   H641    0.992   1_655 S
O793   C628    1.222   1_655 S
O795   Zn804   1.987   .     S
O796   Zn803   1.954   .     S
O797   Zn804   1.919   .     S
O798   Zn803   1.987   .     S
O799   Zn804   1.989   .     S
O800   Zn803   1.919   .     S
O801   Zn804   1.954   .     S
C805   O862    1.279   .     A
C805   O855    1.281   .     A
C805   C813    1.409   .     S
C806   C808    1.474   .     S
C806   C827    1.424   .     A
C806   C823    1.400   .     A
C807   C813    1.408   .     A
C807   C830    1.498   .     S
C807   C1010   1.387   .     S
C808   O864    1.287   .     A
C808   O863    1.306   .     A
C809   O856    1.385   .     S
C809   C810    1.410   .     A
C810   C811    1.409   .     A
C810   C819    1.412   .     S
C811   C828    1.497   .     S
C812   C813    1.411   .     A
C812   O858    1.387   .     S
C812   C1012   1.388   .     S
C814   O859    1.378   .     S
C814   N854    1.370   .     A
C814   C882    1.428   .     S
C815   N853    1.365   .     A
C815   H837    1.082   .     S
C815   C948    1.428   1_455 S
C816   C827    1.408   .     A
C816   C222    1.417   1_556 S
C816   C228    1.421   1_556 S
C817   C829    1.479   .     S
C817   N853    1.382   .     A
C817   C952    1.418   1_455 S
C818   N854    1.357   .     A
C818   H845    1.083   .     S
C818   C884    1.418   .     S
C819   O866    1.282   .     A
C819   O865    1.279   .     A
C820   O867    1.296   .     A
C820   C822    1.464   .     S
C820   O868    1.296   .     A
C821   H847    1.083   .     S
C821   C832    1.401   .     A
C821   C233    1.402   1_556 S
C822   C836    1.416   .     A
C822   C835    1.400   .     A
C823   H849    1.082   .     S
C823   C824    1.391   .     A
C824   C222    1.394   1_556 S
C824   H248    1.082   1_556 S
C825   H850    1.078   .     S
C826   O869    1.221   .     D
C826   C836    1.489   .     S
C826   H838    1.082   .     S
C827   C834    1.416   .     A
C828   O857    1.221   .     D
C828   H840    1.083   .     S
C829   H843    1.074   .     S
C829   O994    1.222   1_455 S
C830   H844    1.084   .     S
C830   O861    1.221   .     D
C831   C835    1.388   .     A
C832   C833    1.390   .     A
C832   C228    1.416   1_556 S
C833   H846    1.084   .     S
C833   C834    1.385   .     A
C834   H852    1.080   .     S
C835   H848    1.075   .     S
H839   O856    0.987   .     S
H841   O858    0.988   .     S
H842   O993    0.992   1_455 S
N853   Zn870   2.015   .     S
N854   Zn871   2.015   .     S
O855   Zn870   1.989   .     S
O859   H909    0.992   .     S
O860   C896    1.222   .     S
O862   Zn871   1.987   .     S
O863   Zn870   1.954   .     S
O864   Zn871   1.919   .     S
O865   Zn870   1.987   .     S
O866   Zn871   1.989   .     S
O867   Zn870   1.919   .     S
O868   Zn871   1.954   .     S
C872   O929    1.279   .     A
C872   O922    1.281   .     A
C872   C880    1.409   .     S
C873   C875    1.474   .     S
C873   C894    1.424   .     A
C873   C890    1.400   .     A
C874   C880    1.408   .     A
C874   C897    1.498   .     S
C874   C1077   1.387   .     S
C875   O931    1.287   .     A
C875   O930    1.306   .     A
C876   O923    1.385   .     S
C876   C877    1.410   .     A
C877   C878    1.409   .     A
C877   C886    1.412   .     S
C878   C895    1.497   .     S
C879   C880    1.411   .     A
C879   O925    1.387   .     S
C879   C1079   1.388   .     S
C881   O926    1.378   .     S
C881   N921    1.370   .     A
C881   C949    1.428   .     S
C882   N920    1.365   .     A
C882   H904    1.082   .     S
C883   C894    1.408   .     A
C883   C289    1.417   1_556 S
C883   C295    1.421   1_556 S
C884   C896    1.479   .     S
C884   N920    1.382   .     A
C885   N921    1.357   .     A
C885   H912    1.083   .     S
C885   C951    1.418   .     S
C886   O933    1.282   .     A
C886   O932    1.279   .     A
C887   O934    1.296   .     A
C887   C889    1.464   .     S
C887   O935    1.296   .     A
C888   H914    1.083   .     S
C888   C899    1.401   .     A
C888   C300    1.402   1_556 S
C889   C903    1.416   .     A
C889   C902    1.400   .     A
C890   H916    1.082   .     S
C890   C891    1.391   .     A
C891   C289    1.394   1_556 S
C891   H315    1.082   1_556 S
C892   H917    1.078   .     S
C893   O936    1.221   .     D
C893   C903    1.489   .     S
C893   H905    1.082   .     S
C894   C901    1.416   .     A
C895   O924    1.221   .     D
C895   H907    1.083   .     S
C896   H910    1.074   .     S
C897   H911    1.084   .     S
C897   O928    1.221   .     D
C898   C902    1.388   .     A
C899   C900    1.390   .     A
C899   C295    1.416   1_556 S
C900   H913    1.084   .     S
C900   C901    1.385   .     A
C901   H919    1.080   .     S
C902   H915    1.075   .     S
H906   O923    0.987   .     S
H908   O925    0.988   .     S
N920   Zn937   2.015   .     S
N921   Zn938   2.015   .     S
O922   Zn937   1.989   .     S
O926   H976    0.992   .     S
O927   C963    1.222   .     S
O929   Zn938   1.987   .     S
O930   Zn937   1.954   .     S
O931   Zn938   1.919   .     S
O932   Zn937   1.987   .     S
O933   Zn938   1.989   .     S
O934   Zn937   1.919   .     S
O935   Zn938   1.954   .     S
C939   O996    1.279   .     A
C939   O989    1.281   .     A
C939   C947    1.409   .     S
C940   C942    1.474   .     S
C940   C961    1.424   .     A
C940   C957    1.400   .     A
C941   C947    1.408   .     A
C941   C964    1.498   .     S
C941   C1144   1.387   .     S
C942   O998    1.287   .     A
C942   O997    1.306   .     A
C943   O990    1.385   .     S
C943   C944    1.410   .     A
C944   C945    1.409   .     A
C944   C953    1.412   .     S
C945   C962    1.497   .     S
C946   C947    1.411   .     A
C946   O992    1.387   .     S
C946   C1146   1.388   .     S
C948   O993    1.378   .     S
C948   N988    1.370   .     A
C948   C815    1.428   1_655 S
C949   N987    1.365   .     A
C949   H971    1.082   .     S
C950   C961    1.408   .     A
C950   C356    1.417   1_556 S
C950   C362    1.421   1_556 S
C951   C963    1.479   .     S
C951   N987    1.382   .     A
C952   N988    1.357   .     A
C952   H979    1.083   .     S
C952   C817    1.418   1_655 S
C953   O1000   1.282   .     A
C953   O999    1.279   .     A
C954   O1001   1.296   .     A
C954   C956    1.464   .     S
C954   O1002   1.296   .     A
C955   H981    1.083   .     S
C955   C966    1.401   .     A
C955   C367    1.402   1_556 S
C956   C970    1.416   .     A
C956   C969    1.400   .     A
C957   H983    1.082   .     S
C957   C958    1.391   .     A
C958   C356    1.394   1_556 S
C958   H382    1.082   1_556 S
C959   H984    1.078   .     S
C960   O1003   1.221   .     D
C960   C970    1.489   .     S
C960   H972    1.082   .     S
C961   C968    1.416   .     A
C962   O991    1.221   .     D
C962   H974    1.083   .     S
C963   H977    1.074   .     S
C964   H978    1.084   .     S
C964   O995    1.221   .     D
C965   C969    1.388   .     A
C966   C967    1.390   .     A
C966   C362    1.416   1_556 S
C967   H980    1.084   .     S
C967   C968    1.385   .     A
C968   H986    1.080   .     S
C969   H982    1.075   .     S
H973   O990    0.987   .     S
H975   O992    0.988   .     S
N987   Zn1004  2.015   .     S
N988   Zn1005  2.015   .     S
O989   Zn1004  1.989   .     S
O993   H842    0.992   1_655 S
O994   C829    1.222   1_655 S
O996   Zn1005  1.987   .     S
O997   Zn1004  1.954   .     S
O998   Zn1005  1.919   .     S
O999   Zn1004  1.987   .     S
O1000  Zn1005  1.989   .     S
O1001  Zn1004  1.919   .     S
O1002  Zn1005  1.954   .     S
C1006  O1063   1.279   .     A
C1006  O1056   1.281   .     A
C1006  C1014   1.409   .     S
C1007  C1009   1.474   .     S
C1007  C1028   1.424   .     A
C1007  C1024   1.400   .     A
C1008  C1014   1.408   .     A
C1008  C1031   1.498   .     S
C1008  C608    1.387   1_565 S
C1009  O1065   1.287   .     A
C1009  O1064   1.306   .     A
C1010  O1057   1.385   .     S
C1010  C1011   1.410   .     A
C1011  C1012   1.409   .     A
C1011  C1020   1.412   .     S
C1012  C1029   1.497   .     S
C1013  C1014   1.411   .     A
C1013  O1059   1.387   .     S
C1013  C610    1.388   1_565 S
C1015  O1060   1.378   .     S
C1015  N1055   1.370   .     A
C1015  C1083   1.428   .     S
C1016  N1054   1.365   .     A
C1016  H1038   1.082   .     S
C1016  C1149   1.428   1_455 S
C1017  C1028   1.408   .     A
C1017  C423    1.417   1_556 S
C1017  C429    1.421   1_556 S
C1018  C1030   1.479   .     S
C1018  N1054   1.382   .     A
C1018  C1153   1.418   1_455 S
C1019  N1055   1.357   .     A
C1019  H1046   1.083   .     S
C1019  C1085   1.418   .     S
C1020  O1067   1.282   .     A
C1020  O1066   1.279   .     A
C1021  O1068   1.296   .     A
C1021  C1023   1.464   .     S
C1021  O1069   1.296   .     A
C1022  H1048   1.083   .     S
C1022  C1033   1.401   .     A
C1022  C434    1.402   1_556 S
C1023  C1037   1.416   .     A
C1023  C1036   1.400   .     A
C1024  H1050   1.082   .     S
C1024  C1025   1.391   .     A
C1025  C423    1.394   1_556 S
C1025  H449    1.082   1_556 S
C1026  H1051   1.078   .     S
C1027  O1070   1.221   .     D
C1027  C1037   1.489   .     S
C1027  H1039   1.082   .     S
C1028  C1035   1.416   .     A
C1029  O1058   1.221   .     D
C1029  H1041   1.083   .     S
C1030  H1044   1.074   .     S
C1030  O1195   1.222   1_455 S
C1031  H1045   1.084   .     S
C1031  O1062   1.221   .     D
C1032  C1036   1.388   .     A
C1033  C1034   1.390   .     A
C1033  C429    1.416   1_556 S
C1034  H1047   1.084   .     S
C1034  C1035   1.385   .     A
C1035  H1053   1.080   .     S
C1036  H1049   1.075   .     S
H1040  O1057   0.987   .     S
H1042  O1059   0.988   .     S
H1043  O1194   0.992   1_455 S
N1054  Zn1071  2.015   .     S
N1055  Zn1072  2.015   .     S
O1056  Zn1071  1.989   .     S
O1060  H1110   0.992   .     S
O1061  C1097   1.222   .     S
O1063  Zn1072  1.987   .     S
O1064  Zn1071  1.954   .     S
O1065  Zn1072  1.919   .     S
O1066  Zn1071  1.987   .     S
O1067  Zn1072  1.989   .     S
O1068  Zn1071  1.919   .     S
O1069  Zn1072  1.954   .     S
C1073  O1130   1.279   .     A
C1073  O1123   1.281   .     A
C1073  C1081   1.409   .     S
C1074  C1076   1.474   .     S
C1074  C1095   1.424   .     A
C1074  C1091   1.400   .     A
C1075  C1081   1.408   .     A
C1075  C1098   1.498   .     S
C1075  C675    1.387   1_565 S
C1076  O1132   1.287   .     A
C1076  O1131   1.306   .     A
C1077  O1124   1.385   .     S
C1077  C1078   1.410   .     A
C1078  C1079   1.409   .     A
C1078  C1087   1.412   .     S
C1079  C1096   1.497   .     S
C1080  C1081   1.411   .     A
C1080  O1126   1.387   .     S
C1080  C677    1.388   1_565 S
C1082  O1127   1.378   .     S
C1082  N1122   1.370   .     A
C1082  C1150   1.428   .     S
C1083  N1121   1.365   .     A
C1083  H1105   1.082   .     S
C1084  C1095   1.408   .     A
C1084  C490    1.417   1_556 S
C1084  C496    1.421   1_556 S
C1085  C1097   1.479   .     S
C1085  N1121   1.382   .     A
C1086  N1122   1.357   .     A
C1086  H1113   1.083   .     S
C1086  C1152   1.418   .     S
C1087  O1134   1.282   .     A
C1087  O1133   1.279   .     A
C1088  O1135   1.296   .     A
C1088  C1090   1.464   .     S
C1088  O1136   1.296   .     A
C1089  H1115   1.083   .     S
C1089  C1100   1.401   .     A
C1089  C501    1.402   1_556 S
C1090  C1104   1.416   .     A
C1090  C1103   1.400   .     A
C1091  H1117   1.082   .     S
C1091  C1092   1.391   .     A
C1092  C490    1.394   1_556 S
C1092  H516    1.082   1_556 S
C1093  H1118   1.078   .     S
C1094  O1137   1.221   .     D
C1094  C1104   1.489   .     S
C1094  H1106   1.082   .     S
C1095  C1102   1.416   .     A
C1096  O1125   1.221   .     D
C1096  H1108   1.083   .     S
C1097  H1111   1.074   .     S
C1098  H1112   1.084   .     S
C1098  O1129   1.221   .     D
C1099  C1103   1.388   .     A
C1100  C1101   1.390   .     A
C1100  C496    1.416   1_556 S
C1101  H1114   1.084   .     S
C1101  C1102   1.385   .     A
C1102  H1120   1.080   .     S
C1103  H1116   1.075   .     S
H1107  O1124   0.987   .     S
H1109  O1126   0.988   .     S
N1121  Zn1138  2.015   .     S
N1122  Zn1139  2.015   .     S
O1123  Zn1138  1.989   .     S
O1127  H1177   0.992   .     S
O1128  C1164   1.222   .     S
O1130  Zn1139  1.987   .     S
O1131  Zn1138  1.954   .     S
O1132  Zn1139  1.919   .     S
O1133  Zn1138  1.987   .     S
O1134  Zn1139  1.989   .     S
O1135  Zn1138  1.919   .     S
O1136  Zn1139  1.954   .     S
C1140  O1197   1.279   .     A
C1140  O1190   1.281   .     A
C1140  C1148   1.409   .     S
C1141  C1143   1.474   .     S
C1141  C1162   1.424   .     A
C1141  C1158   1.400   .     A
C1142  C1148   1.408   .     A
C1142  C1165   1.498   .     S
C1142  C742    1.387   1_565 S
C1143  O1199   1.287   .     A
C1143  O1198   1.306   .     A
C1144  O1191   1.385   .     S
C1144  C1145   1.410   .     A
C1145  C1146   1.409   .     A
C1145  C1154   1.412   .     S
C1146  C1163   1.497   .     S
C1147  C1148   1.411   .     A
C1147  O1193   1.387   .     S
C1147  C744    1.388   1_565 S
C1149  O1194   1.378   .     S
C1149  N1189   1.370   .     A
C1149  C1016   1.428   1_655 S
C1150  N1188   1.365   .     A
C1150  H1172   1.082   .     S
C1151  C1162   1.408   .     A
C1151  C557    1.417   1_556 S
C1151  C563    1.421   1_556 S
C1152  C1164   1.479   .     S
C1152  N1188   1.382   .     A
C1153  N1189   1.357   .     A
C1153  H1180   1.083   .     S
C1153  C1018   1.418   1_655 S
C1154  O1201   1.282   .     A
C1154  O1200   1.279   .     A
C1155  O1202   1.296   .     A
C1155  C1157   1.464   .     S
C1155  O1203   1.296   .     A
C1156  H1182   1.083   .     S
C1156  C1167   1.401   .     A
C1156  C568    1.402   1_556 S
C1157  C1171   1.416   .     A
C1157  C1170   1.400   .     A
C1158  H1184   1.082   .     S
C1158  C1159   1.391   .     A
C1159  C557    1.394   1_556 S
C1159  H583    1.082   1_556 S
C1160  H1185   1.078   .     S
C1161  O1204   1.221   .     D
C1161  C1171   1.489   .     S
C1161  H1173   1.082   .     S
C1162  C1169   1.416   .     A
C1163  O1192   1.221   .     D
C1163  H1175   1.083   .     S
C1164  H1178   1.074   .     S
C1165  H1179   1.084   .     S
C1165  O1196   1.221   .     D
C1166  C1170   1.388   .     A
C1167  C1168   1.390   .     A
C1167  C563    1.416   1_556 S
C1168  H1181   1.084   .     S
C1168  C1169   1.385   .     A
C1169  H1187   1.080   .     S
C1170  H1183   1.075   .     S
H1174  O1191   0.987   .     S
H1176  O1193   0.988   .     S
N1188  Zn1205  2.015   .     S
N1189  Zn1206  2.015   .     S
O1190  Zn1205  1.989   .     S
O1194  H1043   0.992   1_655 S
O1195  C1030   1.222   1_655 S
O1197  Zn1206  1.987   .     S
O1198  Zn1205  1.954   .     S
O1199  Zn1206  1.919   .     S
O1200  Zn1205  1.987   .     S
O1201  Zn1206  1.989   .     S
O1202  Zn1205  1.919   .     S
O1203  Zn1206  1.954   .     S
