data_str_m3_o2_o10_pcu_sym.148
_audit_creation_date              2020-01-03
_audit_creation_method            'Materials Studio'
_symmetry_space_group_name_H-M    'P1'
_symmetry_Int_Tables_number       1
_symmetry_cell_setting            triclinic
loop_
_symmetry_equiv_pos_as_xyz
  x,y,z
_cell_length_a                    25.9184
_cell_length_b                    30.0140
_cell_length_c                    28.2800
_cell_angle_alpha                 90.0104
_cell_angle_beta                  98.5365
_cell_angle_gamma                 89.9885
loop_
_atom_site_label
_atom_site_type_symbol
_atom_site_fract_x
_atom_site_fract_y
_atom_site_fract_z
_atom_site_U_iso_or_equiv
_atom_site_adp_type
_atom_site_occupancy
C1     C     0.16669   0.16384   0.25000   0.00000  Uiso   1.00
C2     C     0.16668   0.33611   0.25000   0.00000  Uiso   1.00
C3     C     0.18486   0.21308   0.05484   0.00000  Uiso   1.00
C4     C     0.18296   0.28771   0.44981   0.00000  Uiso   1.00
C5     C     0.18486   0.21383   0.10458   0.00000  Uiso   1.00
C6     C     0.18309   0.28683   0.40008   0.00000  Uiso   1.00
C7     C     0.14835   0.28616   0.09969   0.00000  Uiso   1.00
C8     C     0.15043   0.21319   0.39570   0.00000  Uiso   1.00
C9     C     0.14847   0.28705   0.04996   0.00000  Uiso   1.00
C10    C     0.15052   0.21243   0.44545   0.00000  Uiso   1.00
C11    C     0.16671   0.25010   0.02663   0.00000  Uiso   1.00
C12    C     0.16671   0.25010   0.47340   0.00000  Uiso   1.00
C13    C     0.06726   0.25269   0.23771   0.00000  Uiso   1.00
C14    C     0.26606   0.25271   0.26231   0.00000  Uiso   1.00
C15    C     0.01277   0.25951   0.23085   0.00000  Uiso   1.00
C16    C     0.32057   0.25929   0.26927   0.00000  Uiso   1.00
C17    C     0.18330   0.04696   0.29265   0.00000  Uiso   1.00
C18    C     0.18724   0.45280   0.21391   0.00000  Uiso   1.00
C19    C     0.18292   0.09295   0.29270   0.00000  Uiso   1.00
C20    C     0.18685   0.40681   0.21372   0.00000  Uiso   1.00
C21    C     0.16679   0.11592   0.25001   0.00000  Uiso   1.00
C22    C     0.16678   0.38392   0.25002   0.00000  Uiso   1.00
C23    C     0.15078   0.09290   0.20733   0.00000  Uiso   1.00
C24    C     0.14683   0.40688   0.28636   0.00000  Uiso   1.00
C25    C     0.15060   0.04690   0.20740   0.00000  Uiso   1.00
C26    C     0.14664   0.45287   0.28621   0.00000  Uiso   1.00
C27    C     0.16699   0.02393   0.25003   0.00000  Uiso   1.00
C28    C     0.16698   0.47583   0.25006   0.00000  Uiso   1.00
H29    H     0.19671   0.02937   0.32564   0.00000  Uiso   1.00
H30    H     0.20372   0.47037   0.18621   0.00000  Uiso   1.00
H31    H     0.19580   0.11047   0.32585   0.00000  Uiso   1.00
H32    H     0.20284   0.38919   0.18573   0.00000  Uiso   1.00
H33    H     0.13783   0.11037   0.17417   0.00000  Uiso   1.00
H34    H     0.13077   0.38932   0.31433   0.00000  Uiso   1.00
H35    H     0.13724   0.02927   0.17442   0.00000  Uiso   1.00
H36    H     0.13022   0.47050   0.31392   0.00000  Uiso   1.00
H37    H     0.19974   0.18399   0.03867   0.00000  Uiso   1.00
H38    H     0.19626   0.31737   0.46977   0.00000  Uiso   1.00
H39    H     0.19954   0.18537   0.12586   0.00000  Uiso   1.00
H40    H     0.19626   0.31580   0.38255   0.00000  Uiso   1.00
H41    H     0.13366   0.31459   0.11705   0.00000  Uiso   1.00
H42    H     0.13724   0.18419   0.37464   0.00000  Uiso   1.00
H43    H     0.13362   0.31618   0.02980   0.00000  Uiso   1.00
H44    H     0.13720   0.18280   0.46182   0.00000  Uiso   1.00
N45    N     0.16667   0.24999   0.12624   0.00000  Uiso   1.00
N46    N     0.16667   0.25001   0.37377   0.00000  Uiso   1.00
O47    O     0.16667   0.18454   0.28974   0.00000  Uiso   1.00
O48    O     0.16666   0.31547   0.21026   0.00000  Uiso   1.00
O49    O     0.16667   0.18453   0.21026   0.00000  Uiso   1.00
O50    O     0.16666   0.31547   0.28974   0.00000  Uiso   1.00
O51    O     0.09058   0.25000   0.28045   0.00000  Uiso   1.00
O52    O     0.24275   0.25000   0.21956   0.00000  Uiso   1.00
O53    O     0.09058   0.25000   0.20097   0.00000  Uiso   1.00
O54    O     0.24275   0.25001   0.29904   0.00000  Uiso   1.00
Zn55   Zn    0.16667   0.25001   0.30307   0.00000  Uiso   1.00
Zn56   Zn    0.16667   0.25000   0.19693   0.00000  Uiso   1.00
O57    O     0.32120   0.26273   0.18398   0.00000  Uiso   1.00
C58    C     0.31974   0.30809   0.17046   0.00000  Uiso   1.00
H59    H     0.02602   0.32348   0.17675   0.00000  Uiso   1.00
H60    H     0.29324   0.32709   0.19070   0.00000  Uiso   1.00
C61    C     0.29923   0.31175   0.11738   0.00000  Uiso   1.00
H62    H     0.25978   0.29678   0.10963   0.00000  Uiso   1.00
H63    H     0.29689   0.34733   0.10653   0.00000  Uiso   1.00
H64    H     0.32579   0.29401   0.09630   0.00000  Uiso   1.00
O65    O     0.01214   0.26152   0.31622   0.00000  Uiso   1.00
C66    C     0.01393   0.30659   0.33084   0.00000  Uiso   1.00
H67    H     0.30805   0.32267   0.32380   0.00000  Uiso   1.00
H68    H     0.04166   0.32560   0.31197   0.00000  Uiso   1.00
C69    C     0.03263   0.30897   0.38434   0.00000  Uiso   1.00
H70    H     0.07144   0.29296   0.39296   0.00000  Uiso   1.00
H71    H     0.03575   0.34431   0.39603   0.00000  Uiso   1.00
H72    H     0.00456   0.29153   0.40403   0.00000  Uiso   1.00
C73    C     0.50002   0.16384   0.25000   0.00000  Uiso   1.00
C74    C     0.50001   0.33611   0.25000   0.00000  Uiso   1.00
C75    C     0.51819   0.21308   0.05484   0.00000  Uiso   1.00
C76    C     0.51629   0.28771   0.44981   0.00000  Uiso   1.00
C77    C     0.51819   0.21383   0.10458   0.00000  Uiso   1.00
C78    C     0.51642   0.28683   0.40008   0.00000  Uiso   1.00
C79    C     0.48168   0.28616   0.09969   0.00000  Uiso   1.00
C80    C     0.48376   0.21319   0.39570   0.00000  Uiso   1.00
C81    C     0.48181   0.28705   0.04996   0.00000  Uiso   1.00
C82    C     0.48385   0.21243   0.44545   0.00000  Uiso   1.00
C83    C     0.50004   0.25010   0.02663   0.00000  Uiso   1.00
C84    C     0.50004   0.25010   0.47340   0.00000  Uiso   1.00
C85    C     0.40060   0.25269   0.23771   0.00000  Uiso   1.00
C86    C     0.59940   0.25271   0.26231   0.00000  Uiso   1.00
C87    C     0.34611   0.25951   0.23085   0.00000  Uiso   1.00
C88    C     0.65391   0.25929   0.26927   0.00000  Uiso   1.00
C89    C     0.51663   0.04696   0.29265   0.00000  Uiso   1.00
C90    C     0.52057   0.45280   0.21391   0.00000  Uiso   1.00
C91    C     0.51625   0.09295   0.29270   0.00000  Uiso   1.00
C92    C     0.52018   0.40681   0.21372   0.00000  Uiso   1.00
C93    C     0.50012   0.11592   0.25001   0.00000  Uiso   1.00
C94    C     0.50011   0.38392   0.25002   0.00000  Uiso   1.00
C95    C     0.48412   0.09290   0.20733   0.00000  Uiso   1.00
C96    C     0.48016   0.40688   0.28636   0.00000  Uiso   1.00
C97    C     0.48394   0.04690   0.20740   0.00000  Uiso   1.00
C98    C     0.47997   0.45287   0.28621   0.00000  Uiso   1.00
C99    C     0.50032   0.02393   0.25003   0.00000  Uiso   1.00
C100   C     0.50031   0.47583   0.25006   0.00000  Uiso   1.00
H101   H     0.53005   0.02937   0.32564   0.00000  Uiso   1.00
H102   H     0.53705   0.47037   0.18621   0.00000  Uiso   1.00
H103   H     0.52913   0.11047   0.32585   0.00000  Uiso   1.00
H104   H     0.53617   0.38919   0.18573   0.00000  Uiso   1.00
H105   H     0.47116   0.11037   0.17417   0.00000  Uiso   1.00
H106   H     0.46410   0.38932   0.31433   0.00000  Uiso   1.00
H107   H     0.47057   0.02927   0.17442   0.00000  Uiso   1.00
H108   H     0.46355   0.47050   0.31392   0.00000  Uiso   1.00
H109   H     0.53307   0.18399   0.03867   0.00000  Uiso   1.00
H110   H     0.52959   0.31737   0.46977   0.00000  Uiso   1.00
H111   H     0.53288   0.18537   0.12586   0.00000  Uiso   1.00
H112   H     0.52959   0.31580   0.38255   0.00000  Uiso   1.00
H113   H     0.46699   0.31459   0.11705   0.00000  Uiso   1.00
H114   H     0.47057   0.18419   0.37464   0.00000  Uiso   1.00
H115   H     0.46696   0.31618   0.02980   0.00000  Uiso   1.00
H116   H     0.47054   0.18280   0.46182   0.00000  Uiso   1.00
N117   N     0.50000   0.24999   0.12624   0.00000  Uiso   1.00
N118   N     0.50000   0.25001   0.37377   0.00000  Uiso   1.00
O119   O     0.50000   0.18454   0.28974   0.00000  Uiso   1.00
O120   O     0.50000   0.31547   0.21026   0.00000  Uiso   1.00
O121   O     0.50000   0.18453   0.21026   0.00000  Uiso   1.00
O122   O     0.50000   0.31547   0.28974   0.00000  Uiso   1.00
O123   O     0.42392   0.25000   0.28045   0.00000  Uiso   1.00
O124   O     0.57608   0.25000   0.21956   0.00000  Uiso   1.00
O125   O     0.42392   0.25000   0.20097   0.00000  Uiso   1.00
O126   O     0.57608   0.25001   0.29904   0.00000  Uiso   1.00
Zn127  Zn    0.50000   0.25001   0.30307   0.00000  Uiso   1.00
Zn128  Zn    0.50000   0.25000   0.19693   0.00000  Uiso   1.00
O129   O     0.65453   0.26273   0.18398   0.00000  Uiso   1.00
C130   C     0.65308   0.30809   0.17046   0.00000  Uiso   1.00
H131   H     0.35935   0.32348   0.17675   0.00000  Uiso   1.00
H132   H     0.62658   0.32709   0.19070   0.00000  Uiso   1.00
C133   C     0.63257   0.31175   0.11738   0.00000  Uiso   1.00
H134   H     0.59312   0.29678   0.10963   0.00000  Uiso   1.00
H135   H     0.63023   0.34733   0.10653   0.00000  Uiso   1.00
H136   H     0.65912   0.29401   0.09630   0.00000  Uiso   1.00
O137   O     0.34547   0.26152   0.31622   0.00000  Uiso   1.00
C138   C     0.34726   0.30659   0.33084   0.00000  Uiso   1.00
H139   H     0.64139   0.32267   0.32380   0.00000  Uiso   1.00
H140   H     0.37499   0.32560   0.31197   0.00000  Uiso   1.00
C141   C     0.36596   0.30897   0.38434   0.00000  Uiso   1.00
H142   H     0.40477   0.29296   0.39296   0.00000  Uiso   1.00
H143   H     0.36908   0.34431   0.39603   0.00000  Uiso   1.00
H144   H     0.33790   0.29153   0.40403   0.00000  Uiso   1.00
C145   C     0.83336   0.16384   0.25000   0.00000  Uiso   1.00
C146   C     0.83334   0.33611   0.25000   0.00000  Uiso   1.00
C147   C     0.85153   0.21308   0.05484   0.00000  Uiso   1.00
C148   C     0.84962   0.28771   0.44981   0.00000  Uiso   1.00
C149   C     0.85153   0.21383   0.10458   0.00000  Uiso   1.00
C150   C     0.84975   0.28683   0.40008   0.00000  Uiso   1.00
C151   C     0.81502   0.28616   0.09969   0.00000  Uiso   1.00
C152   C     0.81710   0.21319   0.39570   0.00000  Uiso   1.00
C153   C     0.81514   0.28705   0.04996   0.00000  Uiso   1.00
C154   C     0.81718   0.21243   0.44545   0.00000  Uiso   1.00
C155   C     0.83338   0.25010   0.02663   0.00000  Uiso   1.00
C156   C     0.83337   0.25010   0.47340   0.00000  Uiso   1.00
C157   C     0.73393   0.25269   0.23771   0.00000  Uiso   1.00
C158   C     0.93273   0.25271   0.26231   0.00000  Uiso   1.00
C159   C     0.67944   0.25951   0.23085   0.00000  Uiso   1.00
C160   C     0.98724   0.25929   0.26927   0.00000  Uiso   1.00
C161   C     0.84996   0.04696   0.29265   0.00000  Uiso   1.00
C162   C     0.85391   0.45280   0.21391   0.00000  Uiso   1.00
C163   C     0.84958   0.09295   0.29270   0.00000  Uiso   1.00
C164   C     0.85352   0.40681   0.21372   0.00000  Uiso   1.00
C165   C     0.83345   0.11592   0.25001   0.00000  Uiso   1.00
C166   C     0.83344   0.38392   0.25002   0.00000  Uiso   1.00
C167   C     0.81745   0.09290   0.20733   0.00000  Uiso   1.00
C168   C     0.81349   0.40688   0.28636   0.00000  Uiso   1.00
C169   C     0.81727   0.04690   0.20740   0.00000  Uiso   1.00
C170   C     0.81331   0.45287   0.28621   0.00000  Uiso   1.00
C171   C     0.83365   0.02393   0.25003   0.00000  Uiso   1.00
C172   C     0.83365   0.47583   0.25006   0.00000  Uiso   1.00
H173   H     0.86338   0.02937   0.32564   0.00000  Uiso   1.00
H174   H     0.87038   0.47037   0.18621   0.00000  Uiso   1.00
H175   H     0.86247   0.11047   0.32585   0.00000  Uiso   1.00
H176   H     0.86950   0.38919   0.18573   0.00000  Uiso   1.00
H177   H     0.80449   0.11037   0.17417   0.00000  Uiso   1.00
H178   H     0.79744   0.38932   0.31433   0.00000  Uiso   1.00
H179   H     0.80390   0.02927   0.17442   0.00000  Uiso   1.00
H180   H     0.79688   0.47050   0.31392   0.00000  Uiso   1.00
H181   H     0.86641   0.18399   0.03867   0.00000  Uiso   1.00
H182   H     0.86293   0.31737   0.46977   0.00000  Uiso   1.00
H183   H     0.86621   0.18537   0.12586   0.00000  Uiso   1.00
H184   H     0.86293   0.31580   0.38255   0.00000  Uiso   1.00
H185   H     0.80032   0.31459   0.11705   0.00000  Uiso   1.00
H186   H     0.80391   0.18419   0.37464   0.00000  Uiso   1.00
H187   H     0.80029   0.31618   0.02980   0.00000  Uiso   1.00
H188   H     0.80387   0.18280   0.46182   0.00000  Uiso   1.00
N189   N     0.83333   0.24999   0.12624   0.00000  Uiso   1.00
N190   N     0.83333   0.25001   0.37377   0.00000  Uiso   1.00
O191   O     0.83334   0.18454   0.28974   0.00000  Uiso   1.00
O192   O     0.83333   0.31547   0.21026   0.00000  Uiso   1.00
O193   O     0.83334   0.18453   0.21026   0.00000  Uiso   1.00
O194   O     0.83333   0.31547   0.28974   0.00000  Uiso   1.00
O195   O     0.75725   0.25000   0.28045   0.00000  Uiso   1.00
O196   O     0.90942   0.25000   0.21956   0.00000  Uiso   1.00
O197   O     0.75725   0.25000   0.20097   0.00000  Uiso   1.00
O198   O     0.90942   0.25001   0.29904   0.00000  Uiso   1.00
Zn199  Zn    0.83333   0.25001   0.30307   0.00000  Uiso   1.00
Zn200  Zn    0.83333   0.25000   0.19693   0.00000  Uiso   1.00
O201   O     0.98786   0.26273   0.18398   0.00000  Uiso   1.00
C202   C     0.98641   0.30809   0.17046   0.00000  Uiso   1.00
H203   H     0.69268   0.32348   0.17675   0.00000  Uiso   1.00
H204   H     0.95991   0.32709   0.19070   0.00000  Uiso   1.00
C205   C     0.96590   0.31175   0.11738   0.00000  Uiso   1.00
H206   H     0.92645   0.29678   0.10963   0.00000  Uiso   1.00
H207   H     0.96356   0.34733   0.10653   0.00000  Uiso   1.00
H208   H     0.99246   0.29401   0.09630   0.00000  Uiso   1.00
O209   O     0.67880   0.26152   0.31622   0.00000  Uiso   1.00
C210   C     0.68059   0.30659   0.33084   0.00000  Uiso   1.00
H211   H     0.97472   0.32267   0.32380   0.00000  Uiso   1.00
H212   H     0.70832   0.32560   0.31197   0.00000  Uiso   1.00
C213   C     0.69930   0.30897   0.38434   0.00000  Uiso   1.00
H214   H     0.73810   0.29296   0.39296   0.00000  Uiso   1.00
H215   H     0.70241   0.34431   0.39603   0.00000  Uiso   1.00
H216   H     0.67123   0.29153   0.40403   0.00000  Uiso   1.00
C217   C     0.16669   0.66384   0.25000   0.00000  Uiso   1.00
C218   C     0.16668   0.83611   0.25000   0.00000  Uiso   1.00
C219   C     0.18486   0.71308   0.05484   0.00000  Uiso   1.00
C220   C     0.18296   0.78771   0.44981   0.00000  Uiso   1.00
C221   C     0.18486   0.71383   0.10458   0.00000  Uiso   1.00
C222   C     0.18309   0.78683   0.40008   0.00000  Uiso   1.00
C223   C     0.14835   0.78616   0.09969   0.00000  Uiso   1.00
C224   C     0.15043   0.71319   0.39570   0.00000  Uiso   1.00
C225   C     0.14847   0.78705   0.04996   0.00000  Uiso   1.00
C226   C     0.15052   0.71243   0.44545   0.00000  Uiso   1.00
C227   C     0.16671   0.75010   0.02663   0.00000  Uiso   1.00
C228   C     0.16671   0.75010   0.47340   0.00000  Uiso   1.00
C229   C     0.06726   0.75269   0.23771   0.00000  Uiso   1.00
C230   C     0.26606   0.75271   0.26231   0.00000  Uiso   1.00
C231   C     0.01277   0.75951   0.23085   0.00000  Uiso   1.00
C232   C     0.32057   0.75929   0.26927   0.00000  Uiso   1.00
C233   C     0.18330   0.54696   0.29265   0.00000  Uiso   1.00
C234   C     0.18724   0.95280   0.21391   0.00000  Uiso   1.00
C235   C     0.18292   0.59295   0.29270   0.00000  Uiso   1.00
C236   C     0.18685   0.90681   0.21372   0.00000  Uiso   1.00
C237   C     0.16679   0.61592   0.25001   0.00000  Uiso   1.00
C238   C     0.16678   0.88392   0.25002   0.00000  Uiso   1.00
C239   C     0.15078   0.59290   0.20733   0.00000  Uiso   1.00
C240   C     0.14683   0.90688   0.28636   0.00000  Uiso   1.00
C241   C     0.15060   0.54690   0.20740   0.00000  Uiso   1.00
C242   C     0.14664   0.95287   0.28621   0.00000  Uiso   1.00
C243   C     0.16699   0.52393   0.25003   0.00000  Uiso   1.00
C244   C     0.16698   0.97583   0.25006   0.00000  Uiso   1.00
H245   H     0.19671   0.52937   0.32564   0.00000  Uiso   1.00
H246   H     0.20372   0.97037   0.18621   0.00000  Uiso   1.00
H247   H     0.19580   0.61047   0.32585   0.00000  Uiso   1.00
H248   H     0.20284   0.88919   0.18573   0.00000  Uiso   1.00
H249   H     0.13783   0.61037   0.17417   0.00000  Uiso   1.00
H250   H     0.13077   0.88932   0.31433   0.00000  Uiso   1.00
H251   H     0.13724   0.52927   0.17442   0.00000  Uiso   1.00
H252   H     0.13022   0.97050   0.31392   0.00000  Uiso   1.00
H253   H     0.19974   0.68399   0.03867   0.00000  Uiso   1.00
H254   H     0.19626   0.81737   0.46977   0.00000  Uiso   1.00
H255   H     0.19954   0.68537   0.12586   0.00000  Uiso   1.00
H256   H     0.19626   0.81580   0.38255   0.00000  Uiso   1.00
H257   H     0.13366   0.81459   0.11705   0.00000  Uiso   1.00
H258   H     0.13724   0.68419   0.37464   0.00000  Uiso   1.00
H259   H     0.13362   0.81618   0.02980   0.00000  Uiso   1.00
H260   H     0.13720   0.68280   0.46182   0.00000  Uiso   1.00
N261   N     0.16667   0.74999   0.12624   0.00000  Uiso   1.00
N262   N     0.16667   0.75001   0.37377   0.00000  Uiso   1.00
O263   O     0.16667   0.68454   0.28974   0.00000  Uiso   1.00
O264   O     0.16666   0.81547   0.21026   0.00000  Uiso   1.00
O265   O     0.16667   0.68453   0.21026   0.00000  Uiso   1.00
O266   O     0.16666   0.81547   0.28974   0.00000  Uiso   1.00
O267   O     0.09058   0.75000   0.28045   0.00000  Uiso   1.00
O268   O     0.24275   0.75000   0.21956   0.00000  Uiso   1.00
O269   O     0.09058   0.75000   0.20097   0.00000  Uiso   1.00
O270   O     0.24275   0.75001   0.29904   0.00000  Uiso   1.00
Zn271  Zn    0.16667   0.75001   0.30307   0.00000  Uiso   1.00
Zn272  Zn    0.16667   0.75000   0.19693   0.00000  Uiso   1.00
O273   O     0.32120   0.76273   0.18398   0.00000  Uiso   1.00
C274   C     0.31974   0.80809   0.17046   0.00000  Uiso   1.00
H275   H     0.02602   0.82348   0.17675   0.00000  Uiso   1.00
H276   H     0.29324   0.82709   0.19070   0.00000  Uiso   1.00
C277   C     0.29923   0.81175   0.11738   0.00000  Uiso   1.00
H278   H     0.25978   0.79678   0.10963   0.00000  Uiso   1.00
H279   H     0.29689   0.84733   0.10653   0.00000  Uiso   1.00
H280   H     0.32579   0.79401   0.09630   0.00000  Uiso   1.00
O281   O     0.01214   0.76152   0.31622   0.00000  Uiso   1.00
C282   C     0.01393   0.80659   0.33084   0.00000  Uiso   1.00
H283   H     0.30805   0.82267   0.32380   0.00000  Uiso   1.00
H284   H     0.04166   0.82560   0.31197   0.00000  Uiso   1.00
C285   C     0.03263   0.80897   0.38434   0.00000  Uiso   1.00
H286   H     0.07144   0.79296   0.39296   0.00000  Uiso   1.00
H287   H     0.03575   0.84431   0.39603   0.00000  Uiso   1.00
H288   H     0.00456   0.79153   0.40403   0.00000  Uiso   1.00
C289   C     0.50002   0.66384   0.25000   0.00000  Uiso   1.00
C290   C     0.50001   0.83611   0.25000   0.00000  Uiso   1.00
C291   C     0.51819   0.71308   0.05484   0.00000  Uiso   1.00
C292   C     0.51629   0.78771   0.44981   0.00000  Uiso   1.00
C293   C     0.51819   0.71383   0.10458   0.00000  Uiso   1.00
C294   C     0.51642   0.78683   0.40008   0.00000  Uiso   1.00
C295   C     0.48168   0.78616   0.09969   0.00000  Uiso   1.00
C296   C     0.48376   0.71319   0.39570   0.00000  Uiso   1.00
C297   C     0.48181   0.78705   0.04996   0.00000  Uiso   1.00
C298   C     0.48385   0.71243   0.44545   0.00000  Uiso   1.00
C299   C     0.50004   0.75010   0.02663   0.00000  Uiso   1.00
C300   C     0.50004   0.75010   0.47340   0.00000  Uiso   1.00
C301   C     0.40060   0.75269   0.23771   0.00000  Uiso   1.00
C302   C     0.59940   0.75271   0.26231   0.00000  Uiso   1.00
C303   C     0.34611   0.75951   0.23085   0.00000  Uiso   1.00
C304   C     0.65391   0.75929   0.26927   0.00000  Uiso   1.00
C305   C     0.51663   0.54696   0.29265   0.00000  Uiso   1.00
C306   C     0.52057   0.95280   0.21391   0.00000  Uiso   1.00
C307   C     0.51625   0.59295   0.29270   0.00000  Uiso   1.00
C308   C     0.52018   0.90681   0.21372   0.00000  Uiso   1.00
C309   C     0.50012   0.61592   0.25001   0.00000  Uiso   1.00
C310   C     0.50011   0.88392   0.25002   0.00000  Uiso   1.00
C311   C     0.48412   0.59290   0.20733   0.00000  Uiso   1.00
C312   C     0.48016   0.90688   0.28636   0.00000  Uiso   1.00
C313   C     0.48394   0.54690   0.20740   0.00000  Uiso   1.00
C314   C     0.47997   0.95287   0.28621   0.00000  Uiso   1.00
C315   C     0.50032   0.52393   0.25003   0.00000  Uiso   1.00
C316   C     0.50031   0.97583   0.25006   0.00000  Uiso   1.00
H317   H     0.53005   0.52937   0.32564   0.00000  Uiso   1.00
H318   H     0.53705   0.97037   0.18621   0.00000  Uiso   1.00
H319   H     0.52913   0.61047   0.32585   0.00000  Uiso   1.00
H320   H     0.53617   0.88919   0.18573   0.00000  Uiso   1.00
H321   H     0.47116   0.61037   0.17417   0.00000  Uiso   1.00
H322   H     0.46410   0.88932   0.31433   0.00000  Uiso   1.00
H323   H     0.47057   0.52927   0.17442   0.00000  Uiso   1.00
H324   H     0.46355   0.97050   0.31392   0.00000  Uiso   1.00
H325   H     0.53307   0.68399   0.03867   0.00000  Uiso   1.00
H326   H     0.52959   0.81737   0.46977   0.00000  Uiso   1.00
H327   H     0.53288   0.68537   0.12586   0.00000  Uiso   1.00
H328   H     0.52959   0.81580   0.38255   0.00000  Uiso   1.00
H329   H     0.46699   0.81459   0.11705   0.00000  Uiso   1.00
H330   H     0.47057   0.68419   0.37464   0.00000  Uiso   1.00
H331   H     0.46696   0.81618   0.02980   0.00000  Uiso   1.00
H332   H     0.47054   0.68280   0.46182   0.00000  Uiso   1.00
N333   N     0.50000   0.74999   0.12624   0.00000  Uiso   1.00
N334   N     0.50000   0.75001   0.37377   0.00000  Uiso   1.00
O335   O     0.50000   0.68454   0.28974   0.00000  Uiso   1.00
O336   O     0.50000   0.81547   0.21026   0.00000  Uiso   1.00
O337   O     0.50000   0.68453   0.21026   0.00000  Uiso   1.00
O338   O     0.50000   0.81547   0.28974   0.00000  Uiso   1.00
O339   O     0.42392   0.75000   0.28045   0.00000  Uiso   1.00
O340   O     0.57608   0.75000   0.21956   0.00000  Uiso   1.00
O341   O     0.42392   0.75000   0.20097   0.00000  Uiso   1.00
O342   O     0.57608   0.75001   0.29904   0.00000  Uiso   1.00
Zn343  Zn    0.50000   0.75001   0.30307   0.00000  Uiso   1.00
Zn344  Zn    0.50000   0.75000   0.19693   0.00000  Uiso   1.00
O345   O     0.65453   0.76273   0.18398   0.00000  Uiso   1.00
C346   C     0.65308   0.80809   0.17046   0.00000  Uiso   1.00
H347   H     0.35935   0.82348   0.17675   0.00000  Uiso   1.00
H348   H     0.62658   0.82709   0.19070   0.00000  Uiso   1.00
C349   C     0.63257   0.81175   0.11738   0.00000  Uiso   1.00
H350   H     0.59312   0.79678   0.10963   0.00000  Uiso   1.00
H351   H     0.63023   0.84733   0.10653   0.00000  Uiso   1.00
H352   H     0.65912   0.79401   0.09630   0.00000  Uiso   1.00
O353   O     0.34547   0.76152   0.31622   0.00000  Uiso   1.00
C354   C     0.34726   0.80659   0.33084   0.00000  Uiso   1.00
H355   H     0.64139   0.82267   0.32380   0.00000  Uiso   1.00
H356   H     0.37499   0.82560   0.31197   0.00000  Uiso   1.00
C357   C     0.36596   0.80897   0.38434   0.00000  Uiso   1.00
H358   H     0.40477   0.79296   0.39296   0.00000  Uiso   1.00
H359   H     0.36908   0.84431   0.39603   0.00000  Uiso   1.00
H360   H     0.33790   0.79153   0.40403   0.00000  Uiso   1.00
C361   C     0.83336   0.66384   0.25000   0.00000  Uiso   1.00
C362   C     0.83334   0.83611   0.25000   0.00000  Uiso   1.00
C363   C     0.85153   0.71308   0.05484   0.00000  Uiso   1.00
C364   C     0.84962   0.78771   0.44981   0.00000  Uiso   1.00
C365   C     0.85153   0.71383   0.10458   0.00000  Uiso   1.00
C366   C     0.84975   0.78683   0.40008   0.00000  Uiso   1.00
C367   C     0.81502   0.78616   0.09969   0.00000  Uiso   1.00
C368   C     0.81710   0.71319   0.39570   0.00000  Uiso   1.00
C369   C     0.81514   0.78705   0.04996   0.00000  Uiso   1.00
C370   C     0.81718   0.71243   0.44545   0.00000  Uiso   1.00
C371   C     0.83338   0.75010   0.02663   0.00000  Uiso   1.00
C372   C     0.83337   0.75010   0.47340   0.00000  Uiso   1.00
C373   C     0.73393   0.75269   0.23771   0.00000  Uiso   1.00
C374   C     0.93273   0.75271   0.26231   0.00000  Uiso   1.00
C375   C     0.67944   0.75951   0.23085   0.00000  Uiso   1.00
C376   C     0.98724   0.75929   0.26927   0.00000  Uiso   1.00
C377   C     0.84996   0.54696   0.29265   0.00000  Uiso   1.00
C378   C     0.85391   0.95280   0.21391   0.00000  Uiso   1.00
C379   C     0.84958   0.59295   0.29270   0.00000  Uiso   1.00
C380   C     0.85352   0.90681   0.21372   0.00000  Uiso   1.00
C381   C     0.83345   0.61592   0.25001   0.00000  Uiso   1.00
C382   C     0.83344   0.88392   0.25002   0.00000  Uiso   1.00
C383   C     0.81745   0.59290   0.20733   0.00000  Uiso   1.00
C384   C     0.81349   0.90688   0.28636   0.00000  Uiso   1.00
C385   C     0.81727   0.54690   0.20740   0.00000  Uiso   1.00
C386   C     0.81331   0.95287   0.28621   0.00000  Uiso   1.00
C387   C     0.83365   0.52393   0.25003   0.00000  Uiso   1.00
C388   C     0.83365   0.97583   0.25006   0.00000  Uiso   1.00
H389   H     0.86338   0.52937   0.32564   0.00000  Uiso   1.00
H390   H     0.87038   0.97037   0.18621   0.00000  Uiso   1.00
H391   H     0.86247   0.61047   0.32585   0.00000  Uiso   1.00
H392   H     0.86950   0.88919   0.18573   0.00000  Uiso   1.00
H393   H     0.80449   0.61037   0.17417   0.00000  Uiso   1.00
H394   H     0.79744   0.88932   0.31433   0.00000  Uiso   1.00
H395   H     0.80390   0.52927   0.17442   0.00000  Uiso   1.00
H396   H     0.79688   0.97050   0.31392   0.00000  Uiso   1.00
H397   H     0.86641   0.68399   0.03867   0.00000  Uiso   1.00
H398   H     0.86293   0.81737   0.46977   0.00000  Uiso   1.00
H399   H     0.86621   0.68537   0.12586   0.00000  Uiso   1.00
H400   H     0.86293   0.81580   0.38255   0.00000  Uiso   1.00
H401   H     0.80032   0.81459   0.11705   0.00000  Uiso   1.00
H402   H     0.80391   0.68419   0.37464   0.00000  Uiso   1.00
H403   H     0.80029   0.81618   0.02980   0.00000  Uiso   1.00
H404   H     0.80387   0.68280   0.46182   0.00000  Uiso   1.00
N405   N     0.83333   0.74999   0.12624   0.00000  Uiso   1.00
N406   N     0.83333   0.75001   0.37377   0.00000  Uiso   1.00
O407   O     0.83334   0.68454   0.28974   0.00000  Uiso   1.00
O408   O     0.83333   0.81547   0.21026   0.00000  Uiso   1.00
O409   O     0.83334   0.68453   0.21026   0.00000  Uiso   1.00
O410   O     0.83333   0.81547   0.28974   0.00000  Uiso   1.00
O411   O     0.75725   0.75000   0.28045   0.00000  Uiso   1.00
O412   O     0.90942   0.75000   0.21956   0.00000  Uiso   1.00
O413   O     0.75725   0.75000   0.20097   0.00000  Uiso   1.00
O414   O     0.90942   0.75001   0.29904   0.00000  Uiso   1.00
Zn415  Zn    0.83333   0.75001   0.30307   0.00000  Uiso   1.00
Zn416  Zn    0.83333   0.75000   0.19693   0.00000  Uiso   1.00
O417   O     0.98786   0.76273   0.18398   0.00000  Uiso   1.00
C418   C     0.98641   0.80809   0.17046   0.00000  Uiso   1.00
H419   H     0.69268   0.82348   0.17675   0.00000  Uiso   1.00
H420   H     0.95991   0.82709   0.19070   0.00000  Uiso   1.00
C421   C     0.96590   0.81175   0.11738   0.00000  Uiso   1.00
H422   H     0.92645   0.79678   0.10963   0.00000  Uiso   1.00
H423   H     0.96356   0.84733   0.10653   0.00000  Uiso   1.00
H424   H     0.99246   0.79401   0.09630   0.00000  Uiso   1.00
O425   O     0.67880   0.76152   0.31622   0.00000  Uiso   1.00
C426   C     0.68059   0.80659   0.33084   0.00000  Uiso   1.00
H427   H     0.97472   0.82267   0.32380   0.00000  Uiso   1.00
H428   H     0.70832   0.82560   0.31197   0.00000  Uiso   1.00
C429   C     0.69930   0.80897   0.38434   0.00000  Uiso   1.00
H430   H     0.73810   0.79296   0.39296   0.00000  Uiso   1.00
H431   H     0.70241   0.84431   0.39603   0.00000  Uiso   1.00
H432   H     0.67123   0.79153   0.40403   0.00000  Uiso   1.00
C433   C     0.16669   0.16384   0.75000   0.00000  Uiso   1.00
C434   C     0.16668   0.33611   0.75000   0.00000  Uiso   1.00
C435   C     0.18486   0.21308   0.55484   0.00000  Uiso   1.00
C436   C     0.18296   0.28771   0.94981   0.00000  Uiso   1.00
C437   C     0.18486   0.21383   0.60458   0.00000  Uiso   1.00
C438   C     0.18309   0.28683   0.90008   0.00000  Uiso   1.00
C439   C     0.14835   0.28616   0.59969   0.00000  Uiso   1.00
C440   C     0.15043   0.21319   0.89570   0.00000  Uiso   1.00
C441   C     0.14847   0.28705   0.54996   0.00000  Uiso   1.00
C442   C     0.15052   0.21243   0.94545   0.00000  Uiso   1.00
C443   C     0.16671   0.25010   0.52663   0.00000  Uiso   1.00
C444   C     0.16671   0.25010   0.97340   0.00000  Uiso   1.00
C445   C     0.06726   0.25269   0.73771   0.00000  Uiso   1.00
C446   C     0.26606   0.25271   0.76231   0.00000  Uiso   1.00
C447   C     0.01277   0.25951   0.73085   0.00000  Uiso   1.00
C448   C     0.32057   0.25929   0.76927   0.00000  Uiso   1.00
C449   C     0.18330   0.04696   0.79265   0.00000  Uiso   1.00
C450   C     0.18724   0.45280   0.71391   0.00000  Uiso   1.00
C451   C     0.18292   0.09295   0.79270   0.00000  Uiso   1.00
C452   C     0.18685   0.40681   0.71372   0.00000  Uiso   1.00
C453   C     0.16679   0.11592   0.75001   0.00000  Uiso   1.00
C454   C     0.16678   0.38392   0.75002   0.00000  Uiso   1.00
C455   C     0.15078   0.09290   0.70733   0.00000  Uiso   1.00
C456   C     0.14683   0.40688   0.78636   0.00000  Uiso   1.00
C457   C     0.15060   0.04690   0.70740   0.00000  Uiso   1.00
C458   C     0.14664   0.45287   0.78621   0.00000  Uiso   1.00
C459   C     0.16699   0.02393   0.75003   0.00000  Uiso   1.00
C460   C     0.16698   0.47583   0.75006   0.00000  Uiso   1.00
H461   H     0.19671   0.02937   0.82564   0.00000  Uiso   1.00
H462   H     0.20372   0.47037   0.68621   0.00000  Uiso   1.00
H463   H     0.19580   0.11047   0.82585   0.00000  Uiso   1.00
H464   H     0.20284   0.38919   0.68573   0.00000  Uiso   1.00
H465   H     0.13783   0.11037   0.67417   0.00000  Uiso   1.00
H466   H     0.13077   0.38932   0.81433   0.00000  Uiso   1.00
H467   H     0.13724   0.02927   0.67442   0.00000  Uiso   1.00
H468   H     0.13022   0.47050   0.81392   0.00000  Uiso   1.00
H469   H     0.19974   0.18399   0.53867   0.00000  Uiso   1.00
H470   H     0.19626   0.31737   0.96977   0.00000  Uiso   1.00
H471   H     0.19954   0.18537   0.62586   0.00000  Uiso   1.00
H472   H     0.19626   0.31580   0.88255   0.00000  Uiso   1.00
H473   H     0.13366   0.31459   0.61705   0.00000  Uiso   1.00
H474   H     0.13724   0.18419   0.87464   0.00000  Uiso   1.00
H475   H     0.13362   0.31618   0.52980   0.00000  Uiso   1.00
H476   H     0.13720   0.18280   0.96182   0.00000  Uiso   1.00
N477   N     0.16667   0.24999   0.62624   0.00000  Uiso   1.00
N478   N     0.16667   0.25001   0.87377   0.00000  Uiso   1.00
O479   O     0.16667   0.18454   0.78974   0.00000  Uiso   1.00
O480   O     0.16666   0.31547   0.71026   0.00000  Uiso   1.00
O481   O     0.16667   0.18453   0.71026   0.00000  Uiso   1.00
O482   O     0.16666   0.31547   0.78974   0.00000  Uiso   1.00
O483   O     0.09058   0.25000   0.78045   0.00000  Uiso   1.00
O484   O     0.24275   0.25000   0.71956   0.00000  Uiso   1.00
O485   O     0.09058   0.25000   0.70097   0.00000  Uiso   1.00
O486   O     0.24275   0.25001   0.79904   0.00000  Uiso   1.00
Zn487  Zn    0.16667   0.25001   0.80307   0.00000  Uiso   1.00
Zn488  Zn    0.16667   0.25000   0.69693   0.00000  Uiso   1.00
O489   O     0.32120   0.26273   0.68398   0.00000  Uiso   1.00
C490   C     0.31974   0.30809   0.67046   0.00000  Uiso   1.00
H491   H     0.02602   0.32348   0.67675   0.00000  Uiso   1.00
H492   H     0.29324   0.32709   0.69070   0.00000  Uiso   1.00
C493   C     0.29923   0.31175   0.61738   0.00000  Uiso   1.00
H494   H     0.25978   0.29678   0.60963   0.00000  Uiso   1.00
H495   H     0.29689   0.34733   0.60653   0.00000  Uiso   1.00
H496   H     0.32579   0.29401   0.59630   0.00000  Uiso   1.00
O497   O     0.01214   0.26152   0.81622   0.00000  Uiso   1.00
C498   C     0.01393   0.30659   0.83084   0.00000  Uiso   1.00
H499   H     0.30805   0.32267   0.82380   0.00000  Uiso   1.00
H500   H     0.04166   0.32560   0.81197   0.00000  Uiso   1.00
C501   C     0.03263   0.30897   0.88434   0.00000  Uiso   1.00
H502   H     0.07144   0.29296   0.89296   0.00000  Uiso   1.00
H503   H     0.03575   0.34431   0.89603   0.00000  Uiso   1.00
H504   H     0.00456   0.29153   0.90403   0.00000  Uiso   1.00
C505   C     0.50002   0.16384   0.75000   0.00000  Uiso   1.00
C506   C     0.50001   0.33611   0.75000   0.00000  Uiso   1.00
C507   C     0.51819   0.21308   0.55484   0.00000  Uiso   1.00
C508   C     0.51629   0.28771   0.94981   0.00000  Uiso   1.00
C509   C     0.51819   0.21383   0.60458   0.00000  Uiso   1.00
C510   C     0.51642   0.28683   0.90008   0.00000  Uiso   1.00
C511   C     0.48168   0.28616   0.59969   0.00000  Uiso   1.00
C512   C     0.48376   0.21319   0.89570   0.00000  Uiso   1.00
C513   C     0.48181   0.28705   0.54996   0.00000  Uiso   1.00
C514   C     0.48385   0.21243   0.94545   0.00000  Uiso   1.00
C515   C     0.50004   0.25010   0.52663   0.00000  Uiso   1.00
C516   C     0.50004   0.25010   0.97340   0.00000  Uiso   1.00
C517   C     0.40060   0.25269   0.73771   0.00000  Uiso   1.00
C518   C     0.59940   0.25271   0.76231   0.00000  Uiso   1.00
C519   C     0.34611   0.25951   0.73085   0.00000  Uiso   1.00
C520   C     0.65391   0.25929   0.76927   0.00000  Uiso   1.00
C521   C     0.51663   0.04696   0.79265   0.00000  Uiso   1.00
C522   C     0.52057   0.45280   0.71391   0.00000  Uiso   1.00
C523   C     0.51625   0.09295   0.79270   0.00000  Uiso   1.00
C524   C     0.52018   0.40681   0.71372   0.00000  Uiso   1.00
C525   C     0.50012   0.11592   0.75001   0.00000  Uiso   1.00
C526   C     0.50011   0.38392   0.75002   0.00000  Uiso   1.00
C527   C     0.48412   0.09290   0.70733   0.00000  Uiso   1.00
C528   C     0.48016   0.40688   0.78636   0.00000  Uiso   1.00
C529   C     0.48394   0.04690   0.70740   0.00000  Uiso   1.00
C530   C     0.47997   0.45287   0.78621   0.00000  Uiso   1.00
C531   C     0.50032   0.02393   0.75003   0.00000  Uiso   1.00
C532   C     0.50031   0.47583   0.75006   0.00000  Uiso   1.00
H533   H     0.53005   0.02937   0.82564   0.00000  Uiso   1.00
H534   H     0.53705   0.47037   0.68621   0.00000  Uiso   1.00
H535   H     0.52913   0.11047   0.82585   0.00000  Uiso   1.00
H536   H     0.53617   0.38919   0.68573   0.00000  Uiso   1.00
H537   H     0.47116   0.11037   0.67417   0.00000  Uiso   1.00
H538   H     0.46410   0.38932   0.81433   0.00000  Uiso   1.00
H539   H     0.47057   0.02927   0.67442   0.00000  Uiso   1.00
H540   H     0.46355   0.47050   0.81392   0.00000  Uiso   1.00
H541   H     0.53307   0.18399   0.53867   0.00000  Uiso   1.00
H542   H     0.52959   0.31737   0.96977   0.00000  Uiso   1.00
H543   H     0.53288   0.18537   0.62586   0.00000  Uiso   1.00
H544   H     0.52959   0.31580   0.88255   0.00000  Uiso   1.00
H545   H     0.46699   0.31459   0.61705   0.00000  Uiso   1.00
H546   H     0.47057   0.18419   0.87464   0.00000  Uiso   1.00
H547   H     0.46696   0.31618   0.52980   0.00000  Uiso   1.00
H548   H     0.47054   0.18280   0.96182   0.00000  Uiso   1.00
N549   N     0.50000   0.24999   0.62624   0.00000  Uiso   1.00
N550   N     0.50000   0.25001   0.87377   0.00000  Uiso   1.00
O551   O     0.50000   0.18454   0.78974   0.00000  Uiso   1.00
O552   O     0.50000   0.31547   0.71026   0.00000  Uiso   1.00
O553   O     0.50000   0.18453   0.71026   0.00000  Uiso   1.00
O554   O     0.50000   0.31547   0.78974   0.00000  Uiso   1.00
O555   O     0.42392   0.25000   0.78045   0.00000  Uiso   1.00
O556   O     0.57608   0.25000   0.71956   0.00000  Uiso   1.00
O557   O     0.42392   0.25000   0.70097   0.00000  Uiso   1.00
O558   O     0.57608   0.25001   0.79904   0.00000  Uiso   1.00
Zn559  Zn    0.50000   0.25001   0.80307   0.00000  Uiso   1.00
Zn560  Zn    0.50000   0.25000   0.69693   0.00000  Uiso   1.00
O561   O     0.65453   0.26273   0.68398   0.00000  Uiso   1.00
C562   C     0.65308   0.30809   0.67046   0.00000  Uiso   1.00
H563   H     0.35935   0.32348   0.67675   0.00000  Uiso   1.00
H564   H     0.62658   0.32709   0.69070   0.00000  Uiso   1.00
C565   C     0.63257   0.31175   0.61738   0.00000  Uiso   1.00
H566   H     0.59312   0.29678   0.60963   0.00000  Uiso   1.00
H567   H     0.63023   0.34733   0.60653   0.00000  Uiso   1.00
H568   H     0.65912   0.29401   0.59630   0.00000  Uiso   1.00
O569   O     0.34547   0.26152   0.81622   0.00000  Uiso   1.00
C570   C     0.34726   0.30659   0.83084   0.00000  Uiso   1.00
H571   H     0.64139   0.32267   0.82380   0.00000  Uiso   1.00
H572   H     0.37499   0.32560   0.81197   0.00000  Uiso   1.00
C573   C     0.36596   0.30897   0.88434   0.00000  Uiso   1.00
H574   H     0.40477   0.29296   0.89296   0.00000  Uiso   1.00
H575   H     0.36908   0.34431   0.89603   0.00000  Uiso   1.00
H576   H     0.33790   0.29153   0.90403   0.00000  Uiso   1.00
C577   C     0.83336   0.16384   0.75000   0.00000  Uiso   1.00
C578   C     0.83334   0.33611   0.75000   0.00000  Uiso   1.00
C579   C     0.85153   0.21308   0.55484   0.00000  Uiso   1.00
C580   C     0.84962   0.28771   0.94981   0.00000  Uiso   1.00
C581   C     0.85153   0.21383   0.60458   0.00000  Uiso   1.00
C582   C     0.84975   0.28683   0.90008   0.00000  Uiso   1.00
C583   C     0.81502   0.28616   0.59969   0.00000  Uiso   1.00
C584   C     0.81710   0.21319   0.89570   0.00000  Uiso   1.00
C585   C     0.81514   0.28705   0.54996   0.00000  Uiso   1.00
C586   C     0.81718   0.21243   0.94545   0.00000  Uiso   1.00
C587   C     0.83338   0.25010   0.52663   0.00000  Uiso   1.00
C588   C     0.83337   0.25010   0.97340   0.00000  Uiso   1.00
C589   C     0.73393   0.25269   0.73771   0.00000  Uiso   1.00
C590   C     0.93273   0.25271   0.76231   0.00000  Uiso   1.00
C591   C     0.67944   0.25951   0.73085   0.00000  Uiso   1.00
C592   C     0.98724   0.25929   0.76927   0.00000  Uiso   1.00
C593   C     0.84996   0.04696   0.79265   0.00000  Uiso   1.00
C594   C     0.85391   0.45280   0.71391   0.00000  Uiso   1.00
C595   C     0.84958   0.09295   0.79270   0.00000  Uiso   1.00
C596   C     0.85352   0.40681   0.71372   0.00000  Uiso   1.00
C597   C     0.83345   0.11592   0.75001   0.00000  Uiso   1.00
C598   C     0.83344   0.38392   0.75002   0.00000  Uiso   1.00
C599   C     0.81745   0.09290   0.70733   0.00000  Uiso   1.00
C600   C     0.81349   0.40688   0.78636   0.00000  Uiso   1.00
C601   C     0.81727   0.04690   0.70740   0.00000  Uiso   1.00
C602   C     0.81331   0.45287   0.78621   0.00000  Uiso   1.00
C603   C     0.83365   0.02393   0.75003   0.00000  Uiso   1.00
C604   C     0.83365   0.47583   0.75006   0.00000  Uiso   1.00
H605   H     0.86338   0.02937   0.82564   0.00000  Uiso   1.00
H606   H     0.87038   0.47037   0.68621   0.00000  Uiso   1.00
H607   H     0.86247   0.11047   0.82585   0.00000  Uiso   1.00
H608   H     0.86950   0.38919   0.68573   0.00000  Uiso   1.00
H609   H     0.80449   0.11037   0.67417   0.00000  Uiso   1.00
H610   H     0.79744   0.38932   0.81433   0.00000  Uiso   1.00
H611   H     0.80390   0.02927   0.67442   0.00000  Uiso   1.00
H612   H     0.79688   0.47050   0.81392   0.00000  Uiso   1.00
H613   H     0.86641   0.18399   0.53867   0.00000  Uiso   1.00
H614   H     0.86293   0.31737   0.96977   0.00000  Uiso   1.00
H615   H     0.86621   0.18537   0.62586   0.00000  Uiso   1.00
H616   H     0.86293   0.31580   0.88255   0.00000  Uiso   1.00
H617   H     0.80032   0.31459   0.61705   0.00000  Uiso   1.00
H618   H     0.80391   0.18419   0.87464   0.00000  Uiso   1.00
H619   H     0.80029   0.31618   0.52980   0.00000  Uiso   1.00
H620   H     0.80387   0.18280   0.96182   0.00000  Uiso   1.00
N621   N     0.83333   0.24999   0.62624   0.00000  Uiso   1.00
N622   N     0.83333   0.25001   0.87377   0.00000  Uiso   1.00
O623   O     0.83334   0.18454   0.78974   0.00000  Uiso   1.00
O624   O     0.83333   0.31547   0.71026   0.00000  Uiso   1.00
O625   O     0.83334   0.18453   0.71026   0.00000  Uiso   1.00
O626   O     0.83333   0.31547   0.78974   0.00000  Uiso   1.00
O627   O     0.75725   0.25000   0.78045   0.00000  Uiso   1.00
O628   O     0.90942   0.25000   0.71956   0.00000  Uiso   1.00
O629   O     0.75725   0.25000   0.70097   0.00000  Uiso   1.00
O630   O     0.90942   0.25001   0.79904   0.00000  Uiso   1.00
Zn631  Zn    0.83333   0.25001   0.80307   0.00000  Uiso   1.00
Zn632  Zn    0.83333   0.25000   0.69693   0.00000  Uiso   1.00
O633   O     0.98786   0.26273   0.68398   0.00000  Uiso   1.00
C634   C     0.98641   0.30809   0.67046   0.00000  Uiso   1.00
H635   H     0.69268   0.32348   0.67675   0.00000  Uiso   1.00
H636   H     0.95991   0.32709   0.69070   0.00000  Uiso   1.00
C637   C     0.96590   0.31175   0.61738   0.00000  Uiso   1.00
H638   H     0.92645   0.29678   0.60963   0.00000  Uiso   1.00
H639   H     0.96356   0.34733   0.60653   0.00000  Uiso   1.00
H640   H     0.99246   0.29401   0.59630   0.00000  Uiso   1.00
O641   O     0.67880   0.26152   0.81622   0.00000  Uiso   1.00
C642   C     0.68059   0.30659   0.83084   0.00000  Uiso   1.00
H643   H     0.97472   0.32267   0.82380   0.00000  Uiso   1.00
H644   H     0.70832   0.32560   0.81197   0.00000  Uiso   1.00
C645   C     0.69930   0.30897   0.88434   0.00000  Uiso   1.00
H646   H     0.73810   0.29296   0.89296   0.00000  Uiso   1.00
H647   H     0.70241   0.34431   0.89603   0.00000  Uiso   1.00
H648   H     0.67123   0.29153   0.90403   0.00000  Uiso   1.00
C649   C     0.16669   0.66384   0.75000   0.00000  Uiso   1.00
C650   C     0.16668   0.83611   0.75000   0.00000  Uiso   1.00
C651   C     0.18486   0.71308   0.55484   0.00000  Uiso   1.00
C652   C     0.18296   0.78771   0.94981   0.00000  Uiso   1.00
C653   C     0.18486   0.71383   0.60458   0.00000  Uiso   1.00
C654   C     0.18309   0.78683   0.90008   0.00000  Uiso   1.00
C655   C     0.14835   0.78616   0.59969   0.00000  Uiso   1.00
C656   C     0.15043   0.71319   0.89570   0.00000  Uiso   1.00
C657   C     0.14847   0.78705   0.54996   0.00000  Uiso   1.00
C658   C     0.15052   0.71243   0.94545   0.00000  Uiso   1.00
C659   C     0.16671   0.75010   0.52663   0.00000  Uiso   1.00
C660   C     0.16671   0.75010   0.97340   0.00000  Uiso   1.00
C661   C     0.06726   0.75269   0.73771   0.00000  Uiso   1.00
C662   C     0.26606   0.75271   0.76231   0.00000  Uiso   1.00
C663   C     0.01277   0.75951   0.73085   0.00000  Uiso   1.00
C664   C     0.32057   0.75929   0.76927   0.00000  Uiso   1.00
C665   C     0.18330   0.54696   0.79265   0.00000  Uiso   1.00
C666   C     0.18724   0.95280   0.71391   0.00000  Uiso   1.00
C667   C     0.18292   0.59295   0.79270   0.00000  Uiso   1.00
C668   C     0.18685   0.90681   0.71372   0.00000  Uiso   1.00
C669   C     0.16679   0.61592   0.75001   0.00000  Uiso   1.00
C670   C     0.16678   0.88392   0.75002   0.00000  Uiso   1.00
C671   C     0.15078   0.59290   0.70733   0.00000  Uiso   1.00
C672   C     0.14683   0.90688   0.78636   0.00000  Uiso   1.00
C673   C     0.15060   0.54690   0.70740   0.00000  Uiso   1.00
C674   C     0.14664   0.95287   0.78621   0.00000  Uiso   1.00
C675   C     0.16699   0.52393   0.75003   0.00000  Uiso   1.00
C676   C     0.16698   0.97583   0.75006   0.00000  Uiso   1.00
H677   H     0.19671   0.52937   0.82564   0.00000  Uiso   1.00
H678   H     0.20372   0.97037   0.68621   0.00000  Uiso   1.00
H679   H     0.19580   0.61047   0.82585   0.00000  Uiso   1.00
H680   H     0.20284   0.88919   0.68573   0.00000  Uiso   1.00
H681   H     0.13783   0.61037   0.67417   0.00000  Uiso   1.00
H682   H     0.13077   0.88932   0.81433   0.00000  Uiso   1.00
H683   H     0.13724   0.52927   0.67442   0.00000  Uiso   1.00
H684   H     0.13022   0.97050   0.81392   0.00000  Uiso   1.00
H685   H     0.19974   0.68399   0.53867   0.00000  Uiso   1.00
H686   H     0.19626   0.81737   0.96977   0.00000  Uiso   1.00
H687   H     0.19954   0.68537   0.62586   0.00000  Uiso   1.00
H688   H     0.19626   0.81580   0.88255   0.00000  Uiso   1.00
H689   H     0.13366   0.81459   0.61705   0.00000  Uiso   1.00
H690   H     0.13724   0.68419   0.87464   0.00000  Uiso   1.00
H691   H     0.13362   0.81618   0.52980   0.00000  Uiso   1.00
H692   H     0.13720   0.68280   0.96182   0.00000  Uiso   1.00
N693   N     0.16667   0.74999   0.62624   0.00000  Uiso   1.00
N694   N     0.16667   0.75001   0.87377   0.00000  Uiso   1.00
O695   O     0.16667   0.68454   0.78974   0.00000  Uiso   1.00
O696   O     0.16666   0.81547   0.71026   0.00000  Uiso   1.00
O697   O     0.16667   0.68453   0.71026   0.00000  Uiso   1.00
O698   O     0.16666   0.81547   0.78974   0.00000  Uiso   1.00
O699   O     0.09058   0.75000   0.78045   0.00000  Uiso   1.00
O700   O     0.24275   0.75000   0.71956   0.00000  Uiso   1.00
O701   O     0.09058   0.75000   0.70097   0.00000  Uiso   1.00
O702   O     0.24275   0.75001   0.79904   0.00000  Uiso   1.00
Zn703  Zn    0.16667   0.75001   0.80307   0.00000  Uiso   1.00
Zn704  Zn    0.16667   0.75000   0.69693   0.00000  Uiso   1.00
O705   O     0.32120   0.76273   0.68398   0.00000  Uiso   1.00
C706   C     0.31974   0.80809   0.67046   0.00000  Uiso   1.00
H707   H     0.02602   0.82348   0.67675   0.00000  Uiso   1.00
H708   H     0.29324   0.82709   0.69070   0.00000  Uiso   1.00
C709   C     0.29923   0.81175   0.61738   0.00000  Uiso   1.00
H710   H     0.25978   0.79678   0.60963   0.00000  Uiso   1.00
H711   H     0.29689   0.84733   0.60653   0.00000  Uiso   1.00
H712   H     0.32579   0.79401   0.59630   0.00000  Uiso   1.00
O713   O     0.01214   0.76152   0.81622   0.00000  Uiso   1.00
C714   C     0.01393   0.80659   0.83084   0.00000  Uiso   1.00
H715   H     0.30805   0.82267   0.82380   0.00000  Uiso   1.00
H716   H     0.04166   0.82560   0.81197   0.00000  Uiso   1.00
C717   C     0.03263   0.80897   0.88434   0.00000  Uiso   1.00
H718   H     0.07144   0.79296   0.89296   0.00000  Uiso   1.00
H719   H     0.03575   0.84431   0.89603   0.00000  Uiso   1.00
H720   H     0.00456   0.79153   0.90403   0.00000  Uiso   1.00
C721   C     0.50002   0.66384   0.75000   0.00000  Uiso   1.00
C722   C     0.50001   0.83611   0.75000   0.00000  Uiso   1.00
C723   C     0.51819   0.71308   0.55484   0.00000  Uiso   1.00
C724   C     0.51629   0.78771   0.94981   0.00000  Uiso   1.00
C725   C     0.51819   0.71383   0.60458   0.00000  Uiso   1.00
C726   C     0.51642   0.78683   0.90008   0.00000  Uiso   1.00
C727   C     0.48168   0.78616   0.59969   0.00000  Uiso   1.00
C728   C     0.48376   0.71319   0.89570   0.00000  Uiso   1.00
C729   C     0.48181   0.78705   0.54996   0.00000  Uiso   1.00
C730   C     0.48385   0.71243   0.94545   0.00000  Uiso   1.00
C731   C     0.50004   0.75010   0.52663   0.00000  Uiso   1.00
C732   C     0.50004   0.75010   0.97340   0.00000  Uiso   1.00
C733   C     0.40060   0.75269   0.73771   0.00000  Uiso   1.00
C734   C     0.59940   0.75271   0.76231   0.00000  Uiso   1.00
C735   C     0.34611   0.75951   0.73085   0.00000  Uiso   1.00
C736   C     0.65391   0.75929   0.76927   0.00000  Uiso   1.00
C737   C     0.51663   0.54696   0.79265   0.00000  Uiso   1.00
C738   C     0.52057   0.95280   0.71391   0.00000  Uiso   1.00
C739   C     0.51625   0.59295   0.79270   0.00000  Uiso   1.00
C740   C     0.52018   0.90681   0.71372   0.00000  Uiso   1.00
C741   C     0.50012   0.61592   0.75001   0.00000  Uiso   1.00
C742   C     0.50011   0.88392   0.75002   0.00000  Uiso   1.00
C743   C     0.48412   0.59290   0.70733   0.00000  Uiso   1.00
C744   C     0.48016   0.90688   0.78636   0.00000  Uiso   1.00
C745   C     0.48394   0.54690   0.70740   0.00000  Uiso   1.00
C746   C     0.47997   0.95287   0.78621   0.00000  Uiso   1.00
C747   C     0.50032   0.52393   0.75003   0.00000  Uiso   1.00
C748   C     0.50031   0.97583   0.75006   0.00000  Uiso   1.00
H749   H     0.53005   0.52937   0.82564   0.00000  Uiso   1.00
H750   H     0.53705   0.97037   0.68621   0.00000  Uiso   1.00
H751   H     0.52913   0.61047   0.82585   0.00000  Uiso   1.00
H752   H     0.53617   0.88919   0.68573   0.00000  Uiso   1.00
H753   H     0.47116   0.61037   0.67417   0.00000  Uiso   1.00
H754   H     0.46410   0.88932   0.81433   0.00000  Uiso   1.00
H755   H     0.47057   0.52927   0.67442   0.00000  Uiso   1.00
H756   H     0.46355   0.97050   0.81392   0.00000  Uiso   1.00
H757   H     0.53307   0.68399   0.53867   0.00000  Uiso   1.00
H758   H     0.52959   0.81737   0.96977   0.00000  Uiso   1.00
H759   H     0.53288   0.68537   0.62586   0.00000  Uiso   1.00
H760   H     0.52959   0.81580   0.88255   0.00000  Uiso   1.00
H761   H     0.46699   0.81459   0.61705   0.00000  Uiso   1.00
H762   H     0.47057   0.68419   0.87464   0.00000  Uiso   1.00
H763   H     0.46696   0.81618   0.52980   0.00000  Uiso   1.00
H764   H     0.47054   0.68280   0.96182   0.00000  Uiso   1.00
N765   N     0.50000   0.74999   0.62624   0.00000  Uiso   1.00
N766   N     0.50000   0.75001   0.87377   0.00000  Uiso   1.00
O767   O     0.50000   0.68454   0.78974   0.00000  Uiso   1.00
O768   O     0.50000   0.81547   0.71026   0.00000  Uiso   1.00
O769   O     0.50000   0.68453   0.71026   0.00000  Uiso   1.00
O770   O     0.50000   0.81547   0.78974   0.00000  Uiso   1.00
O771   O     0.42392   0.75000   0.78045   0.00000  Uiso   1.00
O772   O     0.57608   0.75000   0.71956   0.00000  Uiso   1.00
O773   O     0.42392   0.75000   0.70097   0.00000  Uiso   1.00
O774   O     0.57608   0.75001   0.79904   0.00000  Uiso   1.00
Zn775  Zn    0.50000   0.75001   0.80307   0.00000  Uiso   1.00
Zn776  Zn    0.50000   0.75000   0.69693   0.00000  Uiso   1.00
O777   O     0.65453   0.76273   0.68398   0.00000  Uiso   1.00
C778   C     0.65308   0.80809   0.67046   0.00000  Uiso   1.00
H779   H     0.35935   0.82348   0.67675   0.00000  Uiso   1.00
H780   H     0.62658   0.82709   0.69070   0.00000  Uiso   1.00
C781   C     0.63257   0.81175   0.61738   0.00000  Uiso   1.00
H782   H     0.59312   0.79678   0.60963   0.00000  Uiso   1.00
H783   H     0.63023   0.84733   0.60653   0.00000  Uiso   1.00
H784   H     0.65912   0.79401   0.59630   0.00000  Uiso   1.00
O785   O     0.34547   0.76152   0.81622   0.00000  Uiso   1.00
C786   C     0.34726   0.80659   0.83084   0.00000  Uiso   1.00
H787   H     0.64139   0.82267   0.82380   0.00000  Uiso   1.00
H788   H     0.37499   0.82560   0.81197   0.00000  Uiso   1.00
C789   C     0.36596   0.80897   0.88434   0.00000  Uiso   1.00
H790   H     0.40477   0.79296   0.89296   0.00000  Uiso   1.00
H791   H     0.36908   0.84431   0.89603   0.00000  Uiso   1.00
H792   H     0.33790   0.79153   0.90403   0.00000  Uiso   1.00
C793   C     0.83336   0.66384   0.75000   0.00000  Uiso   1.00
C794   C     0.83334   0.83611   0.75000   0.00000  Uiso   1.00
C795   C     0.85153   0.71308   0.55484   0.00000  Uiso   1.00
C796   C     0.84962   0.78771   0.94981   0.00000  Uiso   1.00
C797   C     0.85153   0.71383   0.60458   0.00000  Uiso   1.00
C798   C     0.84975   0.78683   0.90008   0.00000  Uiso   1.00
C799   C     0.81502   0.78616   0.59969   0.00000  Uiso   1.00
C800   C     0.81710   0.71319   0.89570   0.00000  Uiso   1.00
C801   C     0.81514   0.78705   0.54996   0.00000  Uiso   1.00
C802   C     0.81718   0.71243   0.94545   0.00000  Uiso   1.00
C803   C     0.83338   0.75010   0.52663   0.00000  Uiso   1.00
C804   C     0.83337   0.75010   0.97340   0.00000  Uiso   1.00
C805   C     0.73393   0.75269   0.73771   0.00000  Uiso   1.00
C806   C     0.93273   0.75271   0.76231   0.00000  Uiso   1.00
C807   C     0.67944   0.75951   0.73085   0.00000  Uiso   1.00
C808   C     0.98724   0.75929   0.76927   0.00000  Uiso   1.00
C809   C     0.84996   0.54696   0.79265   0.00000  Uiso   1.00
C810   C     0.85391   0.95280   0.71391   0.00000  Uiso   1.00
C811   C     0.84958   0.59295   0.79270   0.00000  Uiso   1.00
C812   C     0.85352   0.90681   0.71372   0.00000  Uiso   1.00
C813   C     0.83345   0.61592   0.75001   0.00000  Uiso   1.00
C814   C     0.83344   0.88392   0.75002   0.00000  Uiso   1.00
C815   C     0.81745   0.59290   0.70733   0.00000  Uiso   1.00
C816   C     0.81349   0.90688   0.78636   0.00000  Uiso   1.00
C817   C     0.81727   0.54690   0.70740   0.00000  Uiso   1.00
C818   C     0.81331   0.95287   0.78621   0.00000  Uiso   1.00
C819   C     0.83365   0.52393   0.75003   0.00000  Uiso   1.00
C820   C     0.83365   0.97583   0.75006   0.00000  Uiso   1.00
H821   H     0.86338   0.52937   0.82564   0.00000  Uiso   1.00
H822   H     0.87038   0.97037   0.68621   0.00000  Uiso   1.00
H823   H     0.86247   0.61047   0.82585   0.00000  Uiso   1.00
H824   H     0.86950   0.88919   0.68573   0.00000  Uiso   1.00
H825   H     0.80449   0.61037   0.67417   0.00000  Uiso   1.00
H826   H     0.79744   0.88932   0.81433   0.00000  Uiso   1.00
H827   H     0.80390   0.52927   0.67442   0.00000  Uiso   1.00
H828   H     0.79688   0.97050   0.81392   0.00000  Uiso   1.00
H829   H     0.86641   0.68399   0.53867   0.00000  Uiso   1.00
H830   H     0.86293   0.81737   0.96977   0.00000  Uiso   1.00
H831   H     0.86621   0.68537   0.62586   0.00000  Uiso   1.00
H832   H     0.86293   0.81580   0.88255   0.00000  Uiso   1.00
H833   H     0.80032   0.81459   0.61705   0.00000  Uiso   1.00
H834   H     0.80391   0.68419   0.87464   0.00000  Uiso   1.00
H835   H     0.80029   0.81618   0.52980   0.00000  Uiso   1.00
H836   H     0.80387   0.68280   0.96182   0.00000  Uiso   1.00
N837   N     0.83333   0.74999   0.62624   0.00000  Uiso   1.00
N838   N     0.83333   0.75001   0.87377   0.00000  Uiso   1.00
O839   O     0.83334   0.68454   0.78974   0.00000  Uiso   1.00
O840   O     0.83333   0.81547   0.71026   0.00000  Uiso   1.00
O841   O     0.83334   0.68453   0.71026   0.00000  Uiso   1.00
O842   O     0.83333   0.81547   0.78974   0.00000  Uiso   1.00
O843   O     0.75725   0.75000   0.78045   0.00000  Uiso   1.00
O844   O     0.90942   0.75000   0.71956   0.00000  Uiso   1.00
O845   O     0.75725   0.75000   0.70097   0.00000  Uiso   1.00
O846   O     0.90942   0.75001   0.79904   0.00000  Uiso   1.00
Zn847  Zn    0.83333   0.75001   0.80307   0.00000  Uiso   1.00
Zn848  Zn    0.83333   0.75000   0.69693   0.00000  Uiso   1.00
O849   O     0.98786   0.76273   0.68398   0.00000  Uiso   1.00
C850   C     0.98641   0.80809   0.67046   0.00000  Uiso   1.00
H851   H     0.69268   0.82348   0.67675   0.00000  Uiso   1.00
H852   H     0.95991   0.82709   0.69070   0.00000  Uiso   1.00
C853   C     0.96590   0.81175   0.61738   0.00000  Uiso   1.00
H854   H     0.92645   0.79678   0.60963   0.00000  Uiso   1.00
H855   H     0.96356   0.84733   0.60653   0.00000  Uiso   1.00
H856   H     0.99246   0.79401   0.59630   0.00000  Uiso   1.00
O857   O     0.67880   0.76152   0.81622   0.00000  Uiso   1.00
C858   C     0.68059   0.80659   0.83084   0.00000  Uiso   1.00
H859   H     0.97472   0.82267   0.82380   0.00000  Uiso   1.00
H860   H     0.70832   0.82560   0.81197   0.00000  Uiso   1.00
C861   C     0.69930   0.80897   0.88434   0.00000  Uiso   1.00
H862   H     0.73810   0.79296   0.89296   0.00000  Uiso   1.00
H863   H     0.70241   0.84431   0.89603   0.00000  Uiso   1.00
H864   H     0.67123   0.79153   0.90403   0.00000  Uiso   1.00
loop_
_geom_bond_atom_site_label_1
_geom_bond_atom_site_label_2
_geom_bond_distance
_geom_bond_site_symmetry_2
_ccdc_geom_bond_type
C1     C21     1.438   .     S
C1     O47     1.284   .     A
C1     O49     1.284   .     A
C2     C22     1.435   .     S
C2     O48     1.283   .     A
C2     O50     1.283   .     A
C3     C5      1.407   .     A
C3     C11     1.407   .     A
C3     H37     1.083   .     S
C4     C12     1.407   .     A
C4     C6      1.407   .     A
C4     H38     1.083   .     S
C5     H39     1.081   .     S
C5     N45     1.364   .     A
C6     H40     1.081   .     S
C6     N46     1.365   .     A
C7     N45     1.364   .     A
C7     C9      1.407   .     A
C7     H41     1.081   .     S
C8     H42     1.081   .     S
C8     C10     1.407   .     A
C8     N46     1.364   .     A
C9     C11     1.407   .     A
C9     H43     1.083   .     S
C10    C12     1.407   .     A
C10    H44     1.083   .     S
C11    C444    1.505   1_554 S
C12    C443    1.505   .     S
C13    C15     1.412   .     S
C13    O53     1.280   .     A
C13    O51     1.271   .     A
C14    O52     1.271   .     A
C14    O54     1.279   .     A
C14    C16     1.411   .     S
C15    C160    1.353   1_455 S
C15    O201    1.389   1_455 S
C16    C87     1.353   .     S
C16    O137    1.389   .     S
C17    H29     1.083   .     S
C17    C27     1.399   .     A
C17    C19     1.380   .     A
C18    H30     1.083   .     S
C18    C28     1.399   .     A
C18    C20     1.380   .     A
C19    H31     1.084   .     S
C19    C21     1.399   .     A
C20    H32     1.084   .     S
C20    C22     1.398   .     A
C21    C23     1.399   .     A
C22    C24     1.398   .     A
C23    C25     1.380   .     A
C23    H33     1.084   .     S
C24    C26     1.380   .     A
C24    H34     1.084   .     S
C25    H35     1.083   .     S
C25    C27     1.399   .     A
C26    C28     1.399   .     A
C26    H36     1.083   .     S
C27    C244    1.444   1_545 S
C28    C243    1.444   .     S
N45    Zn56    1.999   .     S
N46    Zn55    1.999   .     S
O47    Zn55    2.001   .     S
O48    Zn56    2.001   .     S
O49    Zn56    2.001   .     S
O50    Zn55    2.001   .     S
O51    Zn55    1.981   .     S
O52    Zn56    1.981   .     S
O53    Zn56    1.992   .     S
O54    Zn55    1.992   .     S
O57    C58     1.413   .     S
O57    C87     1.389   .     S
C58    C61     1.520   .     S
C58    H60     1.114   .     S
C58    H131    1.116   .     S
H59    C202    1.116   1_455 S
C61    H64     1.111   .     S
C61    H62     1.109   .     S
C61    H63     1.110   .     S
O65    C66     1.413   .     S
O65    C160    1.389   1_455 S
C66    H68     1.114   .     S
C66    C69     1.520   .     S
C66    H211    1.116   1_455 S
H67    C138    1.116   .     S
C69    H70     1.109   .     S
C69    H72     1.111   .     S
C69    H71     1.110   .     S
C73    C93     1.438   .     S
C73    O119    1.284   .     A
C73    O121    1.284   .     A
C74    C94     1.435   .     S
C74    O120    1.283   .     A
C74    O122    1.283   .     A
C75    C77     1.407   .     A
C75    C83     1.407   .     A
C75    H109    1.083   .     S
C76    C84     1.407   .     A
C76    C78     1.407   .     A
C76    H110    1.083   .     S
C77    H111    1.081   .     S
C77    N117    1.364   .     A
C78    H112    1.081   .     S
C78    N118    1.365   .     A
C79    N117    1.364   .     A
C79    C81     1.407   .     A
C79    H113    1.081   .     S
C80    H114    1.081   .     S
C80    C82     1.407   .     A
C80    N118    1.364   .     A
C81    C83     1.407   .     A
C81    H115    1.083   .     S
C82    C84     1.407   .     A
C82    H116    1.083   .     S
C83    C516    1.505   1_554 S
C84    C515    1.505   .     S
C85    C87     1.412   .     S
C85    O125    1.280   .     A
C85    O123    1.271   .     A
C86    O124    1.271   .     A
C86    O126    1.279   .     A
C86    C88     1.411   .     S
C88    C159    1.353   .     S
C88    O209    1.389   .     S
C89    H101    1.083   .     S
C89    C99     1.399   .     A
C89    C91     1.380   .     A
C90    H102    1.083   .     S
C90    C100    1.399   .     A
C90    C92     1.380   .     A
C91    H103    1.084   .     S
C91    C93     1.399   .     A
C92    H104    1.084   .     S
C92    C94     1.398   .     A
C93    C95     1.399   .     A
C94    C96     1.398   .     A
C95    C97     1.380   .     A
C95    H105    1.084   .     S
C96    C98     1.380   .     A
C96    H106    1.084   .     S
C97    H107    1.083   .     S
C97    C99     1.399   .     A
C98    C100    1.399   .     A
C98    H108    1.083   .     S
C99    C316    1.444   1_545 S
C100   C315    1.444   .     S
N117   Zn128   1.999   .     S
N118   Zn127   1.999   .     S
O119   Zn127   2.001   .     S
O120   Zn128   2.001   .     S
O121   Zn128   2.001   .     S
O122   Zn127   2.001   .     S
O123   Zn127   1.981   .     S
O124   Zn128   1.981   .     S
O125   Zn128   1.992   .     S
O126   Zn127   1.992   .     S
O129   C130    1.413   .     S
O129   C159    1.389   .     S
C130   C133    1.520   .     S
C130   H132    1.114   .     S
C130   H203    1.116   .     S
C133   H136    1.111   .     S
C133   H134    1.109   .     S
C133   H135    1.110   .     S
O137   C138    1.413   .     S
C138   H140    1.114   .     S
C138   C141    1.520   .     S
H139   C210    1.116   .     S
C141   H142    1.109   .     S
C141   H144    1.111   .     S
C141   H143    1.110   .     S
C145   C165    1.438   .     S
C145   O191    1.284   .     A
C145   O193    1.284   .     A
C146   C166    1.435   .     S
C146   O192    1.283   .     A
C146   O194    1.283   .     A
C147   C149    1.407   .     A
C147   C155    1.407   .     A
C147   H181    1.083   .     S
C148   C156    1.407   .     A
C148   C150    1.407   .     A
C148   H182    1.083   .     S
C149   H183    1.081   .     S
C149   N189    1.364   .     A
C150   H184    1.081   .     S
C150   N190    1.365   .     A
C151   N189    1.364   .     A
C151   C153    1.407   .     A
C151   H185    1.081   .     S
C152   H186    1.081   .     S
C152   C154    1.407   .     A
C152   N190    1.364   .     A
C153   C155    1.407   .     A
C153   H187    1.083   .     S
C154   C156    1.407   .     A
C154   H188    1.083   .     S
C155   C588    1.505   1_554 S
C156   C587    1.505   .     S
C157   C159    1.412   .     S
C157   O197    1.280   .     A
C157   O195    1.271   .     A
C158   O196    1.271   .     A
C158   O198    1.279   .     A
C158   C160    1.411   .     S
C160   C15     1.353   1_655 S
C160   O65     1.389   1_655 S
C161   H173    1.083   .     S
C161   C171    1.399   .     A
C161   C163    1.380   .     A
C162   H174    1.083   .     S
C162   C172    1.399   .     A
C162   C164    1.380   .     A
C163   H175    1.084   .     S
C163   C165    1.399   .     A
C164   H176    1.084   .     S
C164   C166    1.398   .     A
C165   C167    1.399   .     A
C166   C168    1.398   .     A
C167   C169    1.380   .     A
C167   H177    1.084   .     S
C168   C170    1.380   .     A
C168   H178    1.084   .     S
C169   H179    1.083   .     S
C169   C171    1.399   .     A
C170   C172    1.399   .     A
C170   H180    1.083   .     S
C171   C388    1.444   1_545 S
C172   C387    1.444   .     S
N189   Zn200   1.999   .     S
N190   Zn199   1.999   .     S
O191   Zn199   2.001   .     S
O192   Zn200   2.001   .     S
O193   Zn200   2.001   .     S
O194   Zn199   2.001   .     S
O195   Zn199   1.981   .     S
O196   Zn200   1.981   .     S
O197   Zn200   1.992   .     S
O198   Zn199   1.992   .     S
O201   C202    1.413   .     S
O201   C15     1.389   1_655 S
C202   C205    1.520   .     S
C202   H204    1.114   .     S
C202   H59     1.116   1_655 S
C205   H208    1.111   .     S
C205   H206    1.109   .     S
C205   H207    1.110   .     S
O209   C210    1.413   .     S
C210   H212    1.114   .     S
C210   C213    1.520   .     S
H211   C66     1.116   1_655 S
C213   H214    1.109   .     S
C213   H216    1.111   .     S
C213   H215    1.110   .     S
C217   C237    1.438   .     S
C217   O263    1.284   .     A
C217   O265    1.284   .     A
C218   C238    1.435   .     S
C218   O264    1.283   .     A
C218   O266    1.283   .     A
C219   C221    1.407   .     A
C219   C227    1.407   .     A
C219   H253    1.083   .     S
C220   C228    1.407   .     A
C220   C222    1.407   .     A
C220   H254    1.083   .     S
C221   H255    1.081   .     S
C221   N261    1.364   .     A
C222   H256    1.081   .     S
C222   N262    1.365   .     A
C223   N261    1.364   .     A
C223   C225    1.407   .     A
C223   H257    1.081   .     S
C224   H258    1.081   .     S
C224   C226    1.407   .     A
C224   N262    1.364   .     A
C225   C227    1.407   .     A
C225   H259    1.083   .     S
C226   C228    1.407   .     A
C226   H260    1.083   .     S
C227   C660    1.505   1_554 S
C228   C659    1.505   .     S
C229   C231    1.412   .     S
C229   O269    1.280   .     A
C229   O267    1.271   .     A
C230   O268    1.271   .     A
C230   O270    1.279   .     A
C230   C232    1.411   .     S
C231   C376    1.353   1_455 S
C231   O417    1.389   1_455 S
C232   C303    1.353   .     S
C232   O353    1.389   .     S
C233   H245    1.083   .     S
C233   C243    1.399   .     A
C233   C235    1.380   .     A
C234   H246    1.083   .     S
C234   C244    1.399   .     A
C234   C236    1.380   .     A
C235   H247    1.084   .     S
C235   C237    1.399   .     A
C236   H248    1.084   .     S
C236   C238    1.398   .     A
C237   C239    1.399   .     A
C238   C240    1.398   .     A
C239   C241    1.380   .     A
C239   H249    1.084   .     S
C240   C242    1.380   .     A
C240   H250    1.084   .     S
C241   H251    1.083   .     S
C241   C243    1.399   .     A
C242   C244    1.399   .     A
C242   H252    1.083   .     S
C244   C27     1.444   1_565 S
N261   Zn272   1.999   .     S
N262   Zn271   1.999   .     S
O263   Zn271   2.001   .     S
O264   Zn272   2.001   .     S
O265   Zn272   2.001   .     S
O266   Zn271   2.001   .     S
O267   Zn271   1.981   .     S
O268   Zn272   1.981   .     S
O269   Zn272   1.992   .     S
O270   Zn271   1.992   .     S
O273   C274    1.413   .     S
O273   C303    1.389   .     S
C274   C277    1.520   .     S
C274   H276    1.114   .     S
C274   H347    1.116   .     S
H275   C418    1.116   1_455 S
C277   H280    1.111   .     S
C277   H278    1.109   .     S
C277   H279    1.110   .     S
O281   C282    1.413   .     S
O281   C376    1.389   1_455 S
C282   H284    1.114   .     S
C282   C285    1.520   .     S
C282   H427    1.116   1_455 S
H283   C354    1.116   .     S
C285   H286    1.109   .     S
C285   H288    1.111   .     S
C285   H287    1.110   .     S
C289   C309    1.438   .     S
C289   O335    1.284   .     A
C289   O337    1.284   .     A
C290   C310    1.435   .     S
C290   O336    1.283   .     A
C290   O338    1.283   .     A
C291   C293    1.407   .     A
C291   C299    1.407   .     A
C291   H325    1.083   .     S
C292   C300    1.407   .     A
C292   C294    1.407   .     A
C292   H326    1.083   .     S
C293   H327    1.081   .     S
C293   N333    1.364   .     A
C294   H328    1.081   .     S
C294   N334    1.365   .     A
C295   N333    1.364   .     A
C295   C297    1.407   .     A
C295   H329    1.081   .     S
C296   H330    1.081   .     S
C296   C298    1.407   .     A
C296   N334    1.364   .     A
C297   C299    1.407   .     A
C297   H331    1.083   .     S
C298   C300    1.407   .     A
C298   H332    1.083   .     S
C299   C732    1.505   1_554 S
C300   C731    1.505   .     S
C301   C303    1.412   .     S
C301   O341    1.280   .     A
C301   O339    1.271   .     A
C302   O340    1.271   .     A
C302   O342    1.279   .     A
C302   C304    1.411   .     S
C304   C375    1.353   .     S
C304   O425    1.389   .     S
C305   H317    1.083   .     S
C305   C315    1.399   .     A
C305   C307    1.380   .     A
C306   H318    1.083   .     S
C306   C316    1.399   .     A
C306   C308    1.380   .     A
C307   H319    1.084   .     S
C307   C309    1.399   .     A
C308   H320    1.084   .     S
C308   C310    1.398   .     A
C309   C311    1.399   .     A
C310   C312    1.398   .     A
C311   C313    1.380   .     A
C311   H321    1.084   .     S
C312   C314    1.380   .     A
C312   H322    1.084   .     S
C313   H323    1.083   .     S
C313   C315    1.399   .     A
C314   C316    1.399   .     A
C314   H324    1.083   .     S
C316   C99     1.444   1_565 S
N333   Zn344   1.999   .     S
N334   Zn343   1.999   .     S
O335   Zn343   2.001   .     S
O336   Zn344   2.001   .     S
O337   Zn344   2.001   .     S
O338   Zn343   2.001   .     S
O339   Zn343   1.981   .     S
O340   Zn344   1.981   .     S
O341   Zn344   1.992   .     S
O342   Zn343   1.992   .     S
O345   C346    1.413   .     S
O345   C375    1.389   .     S
C346   C349    1.520   .     S
C346   H348    1.114   .     S
C346   H419    1.116   .     S
C349   H352    1.111   .     S
C349   H350    1.109   .     S
C349   H351    1.110   .     S
O353   C354    1.413   .     S
C354   H356    1.114   .     S
C354   C357    1.520   .     S
H355   C426    1.116   .     S
C357   H358    1.109   .     S
C357   H360    1.111   .     S
C357   H359    1.110   .     S
C361   C381    1.438   .     S
C361   O407    1.284   .     A
C361   O409    1.284   .     A
C362   C382    1.435   .     S
C362   O408    1.283   .     A
C362   O410    1.283   .     A
C363   C365    1.407   .     A
C363   C371    1.407   .     A
C363   H397    1.083   .     S
C364   C372    1.407   .     A
C364   C366    1.407   .     A
C364   H398    1.083   .     S
C365   H399    1.081   .     S
C365   N405    1.364   .     A
C366   H400    1.081   .     S
C366   N406    1.365   .     A
C367   N405    1.364   .     A
C367   C369    1.407   .     A
C367   H401    1.081   .     S
C368   H402    1.081   .     S
C368   C370    1.407   .     A
C368   N406    1.364   .     A
C369   C371    1.407   .     A
C369   H403    1.083   .     S
C370   C372    1.407   .     A
C370   H404    1.083   .     S
C371   C804    1.505   1_554 S
C372   C803    1.505   .     S
C373   C375    1.412   .     S
C373   O413    1.280   .     A
C373   O411    1.271   .     A
C374   O412    1.271   .     A
C374   O414    1.279   .     A
C374   C376    1.411   .     S
C376   C231    1.353   1_655 S
C376   O281    1.389   1_655 S
C377   H389    1.083   .     S
C377   C387    1.399   .     A
C377   C379    1.380   .     A
C378   H390    1.083   .     S
C378   C388    1.399   .     A
C378   C380    1.380   .     A
C379   H391    1.084   .     S
C379   C381    1.399   .     A
C380   H392    1.084   .     S
C380   C382    1.398   .     A
C381   C383    1.399   .     A
C382   C384    1.398   .     A
C383   C385    1.380   .     A
C383   H393    1.084   .     S
C384   C386    1.380   .     A
C384   H394    1.084   .     S
C385   H395    1.083   .     S
C385   C387    1.399   .     A
C386   C388    1.399   .     A
C386   H396    1.083   .     S
C388   C171    1.444   1_565 S
N405   Zn416   1.999   .     S
N406   Zn415   1.999   .     S
O407   Zn415   2.001   .     S
O408   Zn416   2.001   .     S
O409   Zn416   2.001   .     S
O410   Zn415   2.001   .     S
O411   Zn415   1.981   .     S
O412   Zn416   1.981   .     S
O413   Zn416   1.992   .     S
O414   Zn415   1.992   .     S
O417   C418    1.413   .     S
O417   C231    1.389   1_655 S
C418   C421    1.520   .     S
C418   H420    1.114   .     S
C418   H275    1.116   1_655 S
C421   H424    1.111   .     S
C421   H422    1.109   .     S
C421   H423    1.110   .     S
O425   C426    1.413   .     S
C426   H428    1.114   .     S
C426   C429    1.520   .     S
H427   C282    1.116   1_655 S
C429   H430    1.109   .     S
C429   H432    1.111   .     S
C429   H431    1.110   .     S
C433   C453    1.438   .     S
C433   O479    1.284   .     A
C433   O481    1.284   .     A
C434   C454    1.435   .     S
C434   O480    1.283   .     A
C434   O482    1.283   .     A
C435   C437    1.407   .     A
C435   C443    1.407   .     A
C435   H469    1.083   .     S
C436   C444    1.407   .     A
C436   C438    1.407   .     A
C436   H470    1.083   .     S
C437   H471    1.081   .     S
C437   N477    1.364   .     A
C438   H472    1.081   .     S
C438   N478    1.365   .     A
C439   N477    1.364   .     A
C439   C441    1.407   .     A
C439   H473    1.081   .     S
C440   H474    1.081   .     S
C440   C442    1.407   .     A
C440   N478    1.364   .     A
C441   C443    1.407   .     A
C441   H475    1.083   .     S
C442   C444    1.407   .     A
C442   H476    1.083   .     S
C444   C11     1.505   1_556 S
C445   C447    1.412   .     S
C445   O485    1.280   .     A
C445   O483    1.271   .     A
C446   O484    1.271   .     A
C446   O486    1.279   .     A
C446   C448    1.411   .     S
C447   C592    1.353   1_455 S
C447   O633    1.389   1_455 S
C448   C519    1.353   .     S
C448   O569    1.389   .     S
C449   H461    1.083   .     S
C449   C459    1.399   .     A
C449   C451    1.380   .     A
C450   H462    1.083   .     S
C450   C460    1.399   .     A
C450   C452    1.380   .     A
C451   H463    1.084   .     S
C451   C453    1.399   .     A
C452   H464    1.084   .     S
C452   C454    1.398   .     A
C453   C455    1.399   .     A
C454   C456    1.398   .     A
C455   C457    1.380   .     A
C455   H465    1.084   .     S
C456   C458    1.380   .     A
C456   H466    1.084   .     S
C457   H467    1.083   .     S
C457   C459    1.399   .     A
C458   C460    1.399   .     A
C458   H468    1.083   .     S
C459   C676    1.444   1_545 S
C460   C675    1.444   .     S
N477   Zn488   1.999   .     S
N478   Zn487   1.999   .     S
O479   Zn487   2.001   .     S
O480   Zn488   2.001   .     S
O481   Zn488   2.001   .     S
O482   Zn487   2.001   .     S
O483   Zn487   1.981   .     S
O484   Zn488   1.981   .     S
O485   Zn488   1.992   .     S
O486   Zn487   1.992   .     S
O489   C490    1.413   .     S
O489   C519    1.389   .     S
C490   C493    1.520   .     S
C490   H492    1.114   .     S
C490   H563    1.116   .     S
H491   C634    1.116   1_455 S
C493   H496    1.111   .     S
C493   H494    1.109   .     S
C493   H495    1.110   .     S
O497   C498    1.413   .     S
O497   C592    1.389   1_455 S
C498   H500    1.114   .     S
C498   C501    1.520   .     S
C498   H643    1.116   1_455 S
H499   C570    1.116   .     S
C501   H502    1.109   .     S
C501   H504    1.111   .     S
C501   H503    1.110   .     S
C505   C525    1.438   .     S
C505   O551    1.284   .     A
C505   O553    1.284   .     A
C506   C526    1.435   .     S
C506   O552    1.283   .     A
C506   O554    1.283   .     A
C507   C509    1.407   .     A
C507   C515    1.407   .     A
C507   H541    1.083   .     S
C508   C516    1.407   .     A
C508   C510    1.407   .     A
C508   H542    1.083   .     S
C509   H543    1.081   .     S
C509   N549    1.364   .     A
C510   H544    1.081   .     S
C510   N550    1.365   .     A
C511   N549    1.364   .     A
C511   C513    1.407   .     A
C511   H545    1.081   .     S
C512   H546    1.081   .     S
C512   C514    1.407   .     A
C512   N550    1.364   .     A
C513   C515    1.407   .     A
C513   H547    1.083   .     S
C514   C516    1.407   .     A
C514   H548    1.083   .     S
C516   C83     1.505   1_556 S
C517   C519    1.412   .     S
C517   O557    1.280   .     A
C517   O555    1.271   .     A
C518   O556    1.271   .     A
C518   O558    1.279   .     A
C518   C520    1.411   .     S
C520   C591    1.353   .     S
C520   O641    1.389   .     S
C521   H533    1.083   .     S
C521   C531    1.399   .     A
C521   C523    1.380   .     A
C522   H534    1.083   .     S
C522   C532    1.399   .     A
C522   C524    1.380   .     A
C523   H535    1.084   .     S
C523   C525    1.399   .     A
C524   H536    1.084   .     S
C524   C526    1.398   .     A
C525   C527    1.399   .     A
C526   C528    1.398   .     A
C527   C529    1.380   .     A
C527   H537    1.084   .     S
C528   C530    1.380   .     A
C528   H538    1.084   .     S
C529   H539    1.083   .     S
C529   C531    1.399   .     A
C530   C532    1.399   .     A
C530   H540    1.083   .     S
C531   C748    1.444   1_545 S
C532   C747    1.444   .     S
N549   Zn560   1.999   .     S
N550   Zn559   1.999   .     S
O551   Zn559   2.001   .     S
O552   Zn560   2.001   .     S
O553   Zn560   2.001   .     S
O554   Zn559   2.001   .     S
O555   Zn559   1.981   .     S
O556   Zn560   1.981   .     S
O557   Zn560   1.992   .     S
O558   Zn559   1.992   .     S
O561   C562    1.413   .     S
O561   C591    1.389   .     S
C562   C565    1.520   .     S
C562   H564    1.114   .     S
C562   H635    1.116   .     S
C565   H568    1.111   .     S
C565   H566    1.109   .     S
C565   H567    1.110   .     S
O569   C570    1.413   .     S
C570   H572    1.114   .     S
C570   C573    1.520   .     S
H571   C642    1.116   .     S
C573   H574    1.109   .     S
C573   H576    1.111   .     S
C573   H575    1.110   .     S
C577   C597    1.438   .     S
C577   O623    1.284   .     A
C577   O625    1.284   .     A
C578   C598    1.435   .     S
C578   O624    1.283   .     A
C578   O626    1.283   .     A
C579   C581    1.407   .     A
C579   C587    1.407   .     A
C579   H613    1.083   .     S
C580   C588    1.407   .     A
C580   C582    1.407   .     A
C580   H614    1.083   .     S
C581   H615    1.081   .     S
C581   N621    1.364   .     A
C582   H616    1.081   .     S
C582   N622    1.365   .     A
C583   N621    1.364   .     A
C583   C585    1.407   .     A
C583   H617    1.081   .     S
C584   H618    1.081   .     S
C584   C586    1.407   .     A
C584   N622    1.364   .     A
C585   C587    1.407   .     A
C585   H619    1.083   .     S
C586   C588    1.407   .     A
C586   H620    1.083   .     S
C588   C155    1.505   1_556 S
C589   C591    1.412   .     S
C589   O629    1.280   .     A
C589   O627    1.271   .     A
C590   O628    1.271   .     A
C590   O630    1.279   .     A
C590   C592    1.411   .     S
C592   C447    1.353   1_655 S
C592   O497    1.389   1_655 S
C593   H605    1.083   .     S
C593   C603    1.399   .     A
C593   C595    1.380   .     A
C594   H606    1.083   .     S
C594   C604    1.399   .     A
C594   C596    1.380   .     A
C595   H607    1.084   .     S
C595   C597    1.399   .     A
C596   H608    1.084   .     S
C596   C598    1.398   .     A
C597   C599    1.399   .     A
C598   C600    1.398   .     A
C599   C601    1.380   .     A
C599   H609    1.084   .     S
C600   C602    1.380   .     A
C600   H610    1.084   .     S
C601   H611    1.083   .     S
C601   C603    1.399   .     A
C602   C604    1.399   .     A
C602   H612    1.083   .     S
C603   C820    1.444   1_545 S
C604   C819    1.444   .     S
N621   Zn632   1.999   .     S
N622   Zn631   1.999   .     S
O623   Zn631   2.001   .     S
O624   Zn632   2.001   .     S
O625   Zn632   2.001   .     S
O626   Zn631   2.001   .     S
O627   Zn631   1.981   .     S
O628   Zn632   1.981   .     S
O629   Zn632   1.992   .     S
O630   Zn631   1.992   .     S
O633   C634    1.413   .     S
O633   C447    1.389   1_655 S
C634   C637    1.520   .     S
C634   H636    1.114   .     S
C634   H491    1.116   1_655 S
C637   H640    1.111   .     S
C637   H638    1.109   .     S
C637   H639    1.110   .     S
O641   C642    1.413   .     S
C642   H644    1.114   .     S
C642   C645    1.520   .     S
H643   C498    1.116   1_655 S
C645   H646    1.109   .     S
C645   H648    1.111   .     S
C645   H647    1.110   .     S
C649   C669    1.438   .     S
C649   O695    1.284   .     A
C649   O697    1.284   .     A
C650   C670    1.435   .     S
C650   O696    1.283   .     A
C650   O698    1.283   .     A
C651   C653    1.407   .     A
C651   C659    1.407   .     A
C651   H685    1.083   .     S
C652   C660    1.407   .     A
C652   C654    1.407   .     A
C652   H686    1.083   .     S
C653   H687    1.081   .     S
C653   N693    1.364   .     A
C654   H688    1.081   .     S
C654   N694    1.365   .     A
C655   N693    1.364   .     A
C655   C657    1.407   .     A
C655   H689    1.081   .     S
C656   H690    1.081   .     S
C656   C658    1.407   .     A
C656   N694    1.364   .     A
C657   C659    1.407   .     A
C657   H691    1.083   .     S
C658   C660    1.407   .     A
C658   H692    1.083   .     S
C660   C227    1.505   1_556 S
C661   C663    1.412   .     S
C661   O701    1.280   .     A
C661   O699    1.271   .     A
C662   O700    1.271   .     A
C662   O702    1.279   .     A
C662   C664    1.411   .     S
C663   C808    1.353   1_455 S
C663   O849    1.389   1_455 S
C664   C735    1.353   .     S
C664   O785    1.389   .     S
C665   H677    1.083   .     S
C665   C675    1.399   .     A
C665   C667    1.380   .     A
C666   H678    1.083   .     S
C666   C676    1.399   .     A
C666   C668    1.380   .     A
C667   H679    1.084   .     S
C667   C669    1.399   .     A
C668   H680    1.084   .     S
C668   C670    1.398   .     A
C669   C671    1.399   .     A
C670   C672    1.398   .     A
C671   C673    1.380   .     A
C671   H681    1.084   .     S
C672   C674    1.380   .     A
C672   H682    1.084   .     S
C673   H683    1.083   .     S
C673   C675    1.399   .     A
C674   C676    1.399   .     A
C674   H684    1.083   .     S
C676   C459    1.444   1_565 S
N693   Zn704   1.999   .     S
N694   Zn703   1.999   .     S
O695   Zn703   2.001   .     S
O696   Zn704   2.001   .     S
O697   Zn704   2.001   .     S
O698   Zn703   2.001   .     S
O699   Zn703   1.981   .     S
O700   Zn704   1.981   .     S
O701   Zn704   1.992   .     S
O702   Zn703   1.992   .     S
O705   C706    1.413   .     S
O705   C735    1.389   .     S
C706   C709    1.520   .     S
C706   H708    1.114   .     S
C706   H779    1.116   .     S
H707   C850    1.116   1_455 S
C709   H712    1.111   .     S
C709   H710    1.109   .     S
C709   H711    1.110   .     S
O713   C714    1.413   .     S
O713   C808    1.389   1_455 S
C714   H716    1.114   .     S
C714   C717    1.520   .     S
C714   H859    1.116   1_455 S
H715   C786    1.116   .     S
C717   H718    1.109   .     S
C717   H720    1.111   .     S
C717   H719    1.110   .     S
C721   C741    1.438   .     S
C721   O767    1.284   .     A
C721   O769    1.284   .     A
C722   C742    1.435   .     S
C722   O768    1.283   .     A
C722   O770    1.283   .     A
C723   C725    1.407   .     A
C723   C731    1.407   .     A
C723   H757    1.083   .     S
C724   C732    1.407   .     A
C724   C726    1.407   .     A
C724   H758    1.083   .     S
C725   H759    1.081   .     S
C725   N765    1.364   .     A
C726   H760    1.081   .     S
C726   N766    1.365   .     A
C727   N765    1.364   .     A
C727   C729    1.407   .     A
C727   H761    1.081   .     S
C728   H762    1.081   .     S
C728   C730    1.407   .     A
C728   N766    1.364   .     A
C729   C731    1.407   .     A
C729   H763    1.083   .     S
C730   C732    1.407   .     A
C730   H764    1.083   .     S
C732   C299    1.505   1_556 S
C733   C735    1.412   .     S
C733   O773    1.280   .     A
C733   O771    1.271   .     A
C734   O772    1.271   .     A
C734   O774    1.279   .     A
C734   C736    1.411   .     S
C736   C807    1.353   .     S
C736   O857    1.389   .     S
C737   H749    1.083   .     S
C737   C747    1.399   .     A
C737   C739    1.380   .     A
C738   H750    1.083   .     S
C738   C748    1.399   .     A
C738   C740    1.380   .     A
C739   H751    1.084   .     S
C739   C741    1.399   .     A
C740   H752    1.084   .     S
C740   C742    1.398   .     A
C741   C743    1.399   .     A
C742   C744    1.398   .     A
C743   C745    1.380   .     A
C743   H753    1.084   .     S
C744   C746    1.380   .     A
C744   H754    1.084   .     S
C745   H755    1.083   .     S
C745   C747    1.399   .     A
C746   C748    1.399   .     A
C746   H756    1.083   .     S
C748   C531    1.444   1_565 S
N765   Zn776   1.999   .     S
N766   Zn775   1.999   .     S
O767   Zn775   2.001   .     S
O768   Zn776   2.001   .     S
O769   Zn776   2.001   .     S
O770   Zn775   2.001   .     S
O771   Zn775   1.981   .     S
O772   Zn776   1.981   .     S
O773   Zn776   1.992   .     S
O774   Zn775   1.992   .     S
O777   C778    1.413   .     S
O777   C807    1.389   .     S
C778   C781    1.520   .     S
C778   H780    1.114   .     S
C778   H851    1.116   .     S
C781   H784    1.111   .     S
C781   H782    1.109   .     S
C781   H783    1.110   .     S
O785   C786    1.413   .     S
C786   H788    1.114   .     S
C786   C789    1.520   .     S
H787   C858    1.116   .     S
C789   H790    1.109   .     S
C789   H792    1.111   .     S
C789   H791    1.110   .     S
C793   C813    1.438   .     S
C793   O839    1.284   .     A
C793   O841    1.284   .     A
C794   C814    1.435   .     S
C794   O840    1.283   .     A
C794   O842    1.283   .     A
C795   C797    1.407   .     A
C795   C803    1.407   .     A
C795   H829    1.083   .     S
C796   C804    1.407   .     A
C796   C798    1.407   .     A
C796   H830    1.083   .     S
C797   H831    1.081   .     S
C797   N837    1.364   .     A
C798   H832    1.081   .     S
C798   N838    1.365   .     A
C799   N837    1.364   .     A
C799   C801    1.407   .     A
C799   H833    1.081   .     S
C800   H834    1.081   .     S
C800   C802    1.407   .     A
C800   N838    1.364   .     A
C801   C803    1.407   .     A
C801   H835    1.083   .     S
C802   C804    1.407   .     A
C802   H836    1.083   .     S
C804   C371    1.505   1_556 S
C805   C807    1.412   .     S
C805   O845    1.280   .     A
C805   O843    1.271   .     A
C806   O844    1.271   .     A
C806   O846    1.279   .     A
C806   C808    1.411   .     S
C808   C663    1.353   1_655 S
C808   O713    1.389   1_655 S
C809   H821    1.083   .     S
C809   C819    1.399   .     A
C809   C811    1.380   .     A
C810   H822    1.083   .     S
C810   C820    1.399   .     A
C810   C812    1.380   .     A
C811   H823    1.084   .     S
C811   C813    1.399   .     A
C812   H824    1.084   .     S
C812   C814    1.398   .     A
C813   C815    1.399   .     A
C814   C816    1.398   .     A
C815   C817    1.380   .     A
C815   H825    1.084   .     S
C816   C818    1.380   .     A
C816   H826    1.084   .     S
C817   H827    1.083   .     S
C817   C819    1.399   .     A
C818   C820    1.399   .     A
C818   H828    1.083   .     S
C820   C603    1.444   1_565 S
N837   Zn848   1.999   .     S
N838   Zn847   1.999   .     S
O839   Zn847   2.001   .     S
O840   Zn848   2.001   .     S
O841   Zn848   2.001   .     S
O842   Zn847   2.001   .     S
O843   Zn847   1.981   .     S
O844   Zn848   1.981   .     S
O845   Zn848   1.992   .     S
O846   Zn847   1.992   .     S
O849   C850    1.413   .     S
O849   C663    1.389   1_655 S
C850   C853    1.520   .     S
C850   H852    1.114   .     S
C850   H707    1.116   1_655 S
C853   H856    1.111   .     S
C853   H854    1.109   .     S
C853   H855    1.110   .     S
O857   C858    1.413   .     S
C858   H860    1.114   .     S
C858   C861    1.520   .     S
H859   C714    1.116   1_655 S
C861   H862    1.109   .     S
C861   H864    1.111   .     S
C861   H863    1.110   .     S
