data_str_m3_o1_o2_pcu_sym.67
_audit_creation_date              2020-01-03
_audit_creation_method            'Materials Studio'
_symmetry_space_group_name_H-M    'P1'
_symmetry_Int_Tables_number       1
_symmetry_cell_setting            triclinic
loop_
_symmetry_equiv_pos_as_xyz
  x,y,z
_cell_length_a                    32.1532
_cell_length_b                    29.5078
_cell_length_c                    29.9640
_cell_angle_alpha                 90.0072
_cell_angle_beta                  90.1192
_cell_angle_gamma                 90.0110
loop_
_atom_site_label
_atom_site_type_symbol
_atom_site_fract_x
_atom_site_fract_y
_atom_site_fract_z
_atom_site_U_iso_or_equiv
_atom_site_adp_type
_atom_site_occupancy
C1     C     0.08662   0.16666   0.24997   0.00000  Uiso   1.00
C2     C     0.31202   0.20708   0.24143   0.00000  Uiso   1.00
C3     C     0.31204   0.12626   0.25862   0.00000  Uiso   1.00
C4     C     0.02129   0.20707   0.24138   0.00000  Uiso   1.00
C5     C     0.18795   0.20121   0.04690   0.00000  Uiso   1.00
C6     C     0.18796   0.13201   0.45317   0.00000  Uiso   1.00
C7     C     0.14567   0.20123   0.45316   0.00000  Uiso   1.00
C8     C     0.14566   0.13197   0.04677   0.00000  Uiso   1.00
C9     C     0.18729   0.20125   0.09332   0.00000  Uiso   1.00
C10    C     0.18734   0.13203   0.40675   0.00000  Uiso   1.00
C11    C     0.14623   0.20127   0.40674   0.00000  Uiso   1.00
C12    C     0.24671   0.16667   0.25003   0.00000  Uiso   1.00
C13    C     0.14617   0.13200   0.09320   0.00000  Uiso   1.00
C14    C     0.16669   0.16665   0.11607   0.00000  Uiso   1.00
C15    C     0.16676   0.16666   0.38393   0.00000  Uiso   1.00
C16    C     0.16683   0.16658   0.02409   0.00000  Uiso   1.00
C17    C     0.16683   0.16661   0.47591   0.00000  Uiso   1.00
C18    C     0.29086   0.16667   0.25004   0.00000  Uiso   1.00
C19    C     0.04247   0.16666   0.24996   0.00000  Uiso   1.00
C20    C     0.16665   0.16666   0.16393   0.00000  Uiso   1.00
C21    C     0.16670   0.16667   0.33607   0.00000  Uiso   1.00
C22    C     0.19309   0.02400   0.27716   0.00000  Uiso   1.00
C23    C     0.14024   0.30934   0.22285   0.00000  Uiso   1.00
C24    C     0.14025   0.02398   0.22284   0.00000  Uiso   1.00
C25    C     0.19309   0.30935   0.27715   0.00000  Uiso   1.00
C26    C     0.02131   0.12625   0.25857   0.00000  Uiso   1.00
H27    H     0.03755   0.09485   0.26552   0.00000  Uiso   1.00
H28    H     0.22207   0.07753   0.45588   0.00000  Uiso   1.00
H29    H     0.11156   0.25570   0.45583   0.00000  Uiso   1.00
H30    H     0.11155   0.07748   0.04398   0.00000  Uiso   1.00
H31    H     0.20340   0.22763   0.11167   0.00000  Uiso   1.00
H32    H     0.20346   0.10567   0.38845   0.00000  Uiso   1.00
H33    H     0.13008   0.22764   0.38843   0.00000  Uiso   1.00
H34    H     0.13001   0.10563   0.11145   0.00000  Uiso   1.00
H35    H     0.29579   0.23849   0.23447   0.00000  Uiso   1.00
H36    H     0.29582   0.09487   0.26562   0.00000  Uiso   1.00
H37    H     0.03751   0.23847   0.23439   0.00000  Uiso   1.00
H38    H     0.21420   0.04221   0.29886   0.00000  Uiso   1.00
H39    H     0.11912   0.29113   0.20115   0.00000  Uiso   1.00
H40    H     0.11914   0.04217   0.20113   0.00000  Uiso   1.00
H41    H     0.21421   0.29117   0.29885   0.00000  Uiso   1.00
H42    H     0.22206   0.25569   0.04431   0.00000  Uiso   1.00
N43    N     0.16667   0.28573   0.25000   0.00000  Uiso   1.00
N44    N     0.16667   0.04760   0.25000   0.00000  Uiso   1.00
O45    O     0.10559   0.20487   0.25000   0.00000  Uiso   1.00
O46    O     0.20907   0.09913   0.47703   0.00000  Uiso   1.00
O47    O     0.12458   0.23408   0.47699   0.00000  Uiso   1.00
O48    O     0.12458   0.09909   0.02286   0.00000  Uiso   1.00
O49    O     0.22774   0.12846   0.25000   0.00000  Uiso   1.00
O50    O     0.22774   0.20487   0.25001   0.00000  Uiso   1.00
O51    O     0.10559   0.12846   0.25000   0.00000  Uiso   1.00
O52    O     0.16666   0.20489   0.18453   0.00000  Uiso   1.00
O53    O     0.16667   0.12845   0.31547   0.00000  Uiso   1.00
O54    O     0.16667   0.20489   0.31547   0.00000  Uiso   1.00
O55    O     0.16666   0.12845   0.18453   0.00000  Uiso   1.00
O56    O     0.20909   0.23406   0.02312   0.00000  Uiso   1.00
Zn57   Zn    0.16667   0.21771   0.25000   0.00000  Uiso   1.00
Zn58   Zn    0.16667   0.11563   0.25000   0.00000  Uiso   1.00
C59    C     0.41995   0.16666   0.24997   0.00000  Uiso   1.00
C60    C     0.64535   0.20708   0.24143   0.00000  Uiso   1.00
C61    C     0.64537   0.12626   0.25862   0.00000  Uiso   1.00
C62    C     0.35463   0.20707   0.24138   0.00000  Uiso   1.00
C63    C     0.52128   0.20121   0.04690   0.00000  Uiso   1.00
C64    C     0.52129   0.13201   0.45317   0.00000  Uiso   1.00
C65    C     0.47900   0.20123   0.45316   0.00000  Uiso   1.00
C66    C     0.47899   0.13197   0.04677   0.00000  Uiso   1.00
C67    C     0.52062   0.20125   0.09332   0.00000  Uiso   1.00
C68    C     0.52068   0.13203   0.40675   0.00000  Uiso   1.00
C69    C     0.47956   0.20127   0.40674   0.00000  Uiso   1.00
C70    C     0.58005   0.16667   0.25003   0.00000  Uiso   1.00
C71    C     0.47950   0.13200   0.09320   0.00000  Uiso   1.00
C72    C     0.50002   0.16665   0.11607   0.00000  Uiso   1.00
C73    C     0.50010   0.16666   0.38393   0.00000  Uiso   1.00
C74    C     0.50016   0.16658   0.02409   0.00000  Uiso   1.00
C75    C     0.50016   0.16661   0.47591   0.00000  Uiso   1.00
C76    C     0.62419   0.16667   0.25004   0.00000  Uiso   1.00
C77    C     0.37581   0.16666   0.24996   0.00000  Uiso   1.00
C78    C     0.49998   0.16666   0.16393   0.00000  Uiso   1.00
C79    C     0.50004   0.16667   0.33607   0.00000  Uiso   1.00
C80    C     0.52642   0.02400   0.27716   0.00000  Uiso   1.00
C81    C     0.47357   0.30934   0.22285   0.00000  Uiso   1.00
C82    C     0.47358   0.02398   0.22284   0.00000  Uiso   1.00
C83    C     0.52643   0.30935   0.27715   0.00000  Uiso   1.00
C84    C     0.35465   0.12625   0.25857   0.00000  Uiso   1.00
H85    H     0.37088   0.09485   0.26552   0.00000  Uiso   1.00
H86    H     0.55540   0.07753   0.45588   0.00000  Uiso   1.00
H87    H     0.44489   0.25570   0.45583   0.00000  Uiso   1.00
H88    H     0.44488   0.07748   0.04398   0.00000  Uiso   1.00
H89    H     0.53673   0.22763   0.11167   0.00000  Uiso   1.00
H90    H     0.53680   0.10567   0.38845   0.00000  Uiso   1.00
H91    H     0.46341   0.22764   0.38843   0.00000  Uiso   1.00
H92    H     0.46335   0.10563   0.11145   0.00000  Uiso   1.00
H93    H     0.62912   0.23849   0.23447   0.00000  Uiso   1.00
H94    H     0.62916   0.09487   0.26562   0.00000  Uiso   1.00
H95    H     0.37084   0.23847   0.23439   0.00000  Uiso   1.00
H96    H     0.54754   0.04221   0.29886   0.00000  Uiso   1.00
H97    H     0.45245   0.29113   0.20115   0.00000  Uiso   1.00
H98    H     0.45247   0.04217   0.20113   0.00000  Uiso   1.00
H99    H     0.54754   0.29117   0.29885   0.00000  Uiso   1.00
H100   H     0.55540   0.25569   0.04431   0.00000  Uiso   1.00
N101   N     0.50000   0.28573   0.25000   0.00000  Uiso   1.00
N102   N     0.50000   0.04760   0.25000   0.00000  Uiso   1.00
O103   O     0.43892   0.20487   0.25000   0.00000  Uiso   1.00
O104   O     0.54241   0.09913   0.47703   0.00000  Uiso   1.00
O105   O     0.45791   0.23408   0.47699   0.00000  Uiso   1.00
O106   O     0.45792   0.09909   0.02286   0.00000  Uiso   1.00
O107   O     0.56108   0.12846   0.25000   0.00000  Uiso   1.00
O108   O     0.56108   0.20487   0.25001   0.00000  Uiso   1.00
O109   O     0.43892   0.12846   0.25000   0.00000  Uiso   1.00
O110   O     0.50000   0.20489   0.18453   0.00000  Uiso   1.00
O111   O     0.50000   0.12845   0.31547   0.00000  Uiso   1.00
O112   O     0.50000   0.20489   0.31547   0.00000  Uiso   1.00
O113   O     0.50000   0.12845   0.18453   0.00000  Uiso   1.00
O114   O     0.54242   0.23406   0.02312   0.00000  Uiso   1.00
Zn115  Zn    0.50000   0.21771   0.25000   0.00000  Uiso   1.00
Zn116  Zn    0.50000   0.11563   0.25000   0.00000  Uiso   1.00
C117   C     0.75329   0.16666   0.24997   0.00000  Uiso   1.00
C118   C     0.97869   0.20708   0.24143   0.00000  Uiso   1.00
C119   C     0.97871   0.12626   0.25862   0.00000  Uiso   1.00
C120   C     0.68796   0.20707   0.24138   0.00000  Uiso   1.00
C121   C     0.85462   0.20121   0.04690   0.00000  Uiso   1.00
C122   C     0.85463   0.13201   0.45317   0.00000  Uiso   1.00
C123   C     0.81234   0.20123   0.45316   0.00000  Uiso   1.00
C124   C     0.81232   0.13197   0.04677   0.00000  Uiso   1.00
C125   C     0.85396   0.20125   0.09332   0.00000  Uiso   1.00
C126   C     0.85401   0.13203   0.40675   0.00000  Uiso   1.00
C127   C     0.81290   0.20127   0.40674   0.00000  Uiso   1.00
C128   C     0.91338   0.16667   0.25003   0.00000  Uiso   1.00
C129   C     0.81284   0.13200   0.09320   0.00000  Uiso   1.00
C130   C     0.83336   0.16665   0.11607   0.00000  Uiso   1.00
C131   C     0.83343   0.16666   0.38393   0.00000  Uiso   1.00
C132   C     0.83350   0.16658   0.02409   0.00000  Uiso   1.00
C133   C     0.83349   0.16661   0.47591   0.00000  Uiso   1.00
C134   C     0.95753   0.16667   0.25004   0.00000  Uiso   1.00
C135   C     0.70914   0.16666   0.24996   0.00000  Uiso   1.00
C136   C     0.83332   0.16666   0.16393   0.00000  Uiso   1.00
C137   C     0.83337   0.16667   0.33607   0.00000  Uiso   1.00
C138   C     0.85976   0.02400   0.27716   0.00000  Uiso   1.00
C139   C     0.80691   0.30934   0.22285   0.00000  Uiso   1.00
C140   C     0.80691   0.02398   0.22284   0.00000  Uiso   1.00
C141   C     0.85976   0.30935   0.27715   0.00000  Uiso   1.00
C142   C     0.68798   0.12625   0.25857   0.00000  Uiso   1.00
H143   H     0.70421   0.09485   0.26552   0.00000  Uiso   1.00
H144   H     0.88874   0.07753   0.45588   0.00000  Uiso   1.00
H145   H     0.77823   0.25570   0.45583   0.00000  Uiso   1.00
H146   H     0.77822   0.07748   0.04398   0.00000  Uiso   1.00
H147   H     0.87007   0.22763   0.11167   0.00000  Uiso   1.00
H148   H     0.87013   0.10567   0.38845   0.00000  Uiso   1.00
H149   H     0.79675   0.22764   0.38843   0.00000  Uiso   1.00
H150   H     0.79668   0.10563   0.11145   0.00000  Uiso   1.00
H151   H     0.96245   0.23849   0.23447   0.00000  Uiso   1.00
H152   H     0.96249   0.09487   0.26562   0.00000  Uiso   1.00
H153   H     0.70418   0.23847   0.23439   0.00000  Uiso   1.00
H154   H     0.88087   0.04221   0.29886   0.00000  Uiso   1.00
H155   H     0.78578   0.29113   0.20115   0.00000  Uiso   1.00
H156   H     0.78580   0.04217   0.20113   0.00000  Uiso   1.00
H157   H     0.88088   0.29117   0.29885   0.00000  Uiso   1.00
H158   H     0.88873   0.25569   0.04431   0.00000  Uiso   1.00
N159   N     0.83333   0.28573   0.25000   0.00000  Uiso   1.00
N160   N     0.83333   0.04760   0.25000   0.00000  Uiso   1.00
O161   O     0.77226   0.20487   0.25000   0.00000  Uiso   1.00
O162   O     0.87574   0.09913   0.47703   0.00000  Uiso   1.00
O163   O     0.79124   0.23408   0.47699   0.00000  Uiso   1.00
O164   O     0.79125   0.09909   0.02286   0.00000  Uiso   1.00
O165   O     0.89441   0.12846   0.25000   0.00000  Uiso   1.00
O166   O     0.89441   0.20487   0.25001   0.00000  Uiso   1.00
O167   O     0.77226   0.12846   0.25000   0.00000  Uiso   1.00
O168   O     0.83333   0.20489   0.18453   0.00000  Uiso   1.00
O169   O     0.83334   0.12845   0.31547   0.00000  Uiso   1.00
O170   O     0.83334   0.20489   0.31547   0.00000  Uiso   1.00
O171   O     0.83333   0.12845   0.18453   0.00000  Uiso   1.00
O172   O     0.87575   0.23406   0.02312   0.00000  Uiso   1.00
Zn173  Zn    0.83333   0.21771   0.25000   0.00000  Uiso   1.00
Zn174  Zn    0.83333   0.11563   0.25000   0.00000  Uiso   1.00
C175   C     0.08662   0.50000   0.24997   0.00000  Uiso   1.00
C176   C     0.31202   0.54042   0.24143   0.00000  Uiso   1.00
C177   C     0.31204   0.45959   0.25862   0.00000  Uiso   1.00
C178   C     0.02129   0.54041   0.24138   0.00000  Uiso   1.00
C179   C     0.18795   0.53454   0.04690   0.00000  Uiso   1.00
C180   C     0.18796   0.46534   0.45317   0.00000  Uiso   1.00
C181   C     0.14567   0.53457   0.45316   0.00000  Uiso   1.00
C182   C     0.14566   0.46530   0.04677   0.00000  Uiso   1.00
C183   C     0.18729   0.53458   0.09332   0.00000  Uiso   1.00
C184   C     0.18734   0.46537   0.40675   0.00000  Uiso   1.00
C185   C     0.14623   0.53460   0.40674   0.00000  Uiso   1.00
C186   C     0.24671   0.50000   0.25003   0.00000  Uiso   1.00
C187   C     0.14617   0.46533   0.09320   0.00000  Uiso   1.00
C188   C     0.16669   0.49998   0.11607   0.00000  Uiso   1.00
C189   C     0.16676   0.49999   0.38393   0.00000  Uiso   1.00
C190   C     0.16683   0.49991   0.02409   0.00000  Uiso   1.00
C191   C     0.16683   0.49994   0.47591   0.00000  Uiso   1.00
C192   C     0.29086   0.50001   0.25004   0.00000  Uiso   1.00
C193   C     0.04247   0.49999   0.24996   0.00000  Uiso   1.00
C194   C     0.16665   0.50000   0.16393   0.00000  Uiso   1.00
C195   C     0.16670   0.50000   0.33607   0.00000  Uiso   1.00
C196   C     0.19309   0.35733   0.27716   0.00000  Uiso   1.00
C197   C     0.14024   0.64267   0.22285   0.00000  Uiso   1.00
C198   C     0.14025   0.35731   0.22284   0.00000  Uiso   1.00
C199   C     0.19309   0.64269   0.27715   0.00000  Uiso   1.00
C200   C     0.02131   0.45958   0.25857   0.00000  Uiso   1.00
H201   H     0.03755   0.42818   0.26552   0.00000  Uiso   1.00
H202   H     0.22207   0.41087   0.45588   0.00000  Uiso   1.00
H203   H     0.11156   0.58904   0.45583   0.00000  Uiso   1.00
H204   H     0.11155   0.41081   0.04398   0.00000  Uiso   1.00
H205   H     0.20340   0.56096   0.11167   0.00000  Uiso   1.00
H206   H     0.20346   0.43901   0.38845   0.00000  Uiso   1.00
H207   H     0.13008   0.56098   0.38843   0.00000  Uiso   1.00
H208   H     0.13001   0.43897   0.11145   0.00000  Uiso   1.00
H209   H     0.29579   0.57182   0.23447   0.00000  Uiso   1.00
H210   H     0.29582   0.42820   0.26562   0.00000  Uiso   1.00
H211   H     0.03751   0.57180   0.23439   0.00000  Uiso   1.00
H212   H     0.21420   0.37554   0.29886   0.00000  Uiso   1.00
H213   H     0.11912   0.62447   0.20115   0.00000  Uiso   1.00
H214   H     0.11914   0.37550   0.20113   0.00000  Uiso   1.00
H215   H     0.21421   0.62450   0.29885   0.00000  Uiso   1.00
H216   H     0.22206   0.58903   0.04431   0.00000  Uiso   1.00
N217   N     0.16667   0.61907   0.25000   0.00000  Uiso   1.00
N218   N     0.16667   0.38093   0.25000   0.00000  Uiso   1.00
O219   O     0.10559   0.53821   0.25000   0.00000  Uiso   1.00
O220   O     0.20907   0.43247   0.47703   0.00000  Uiso   1.00
O221   O     0.12458   0.56741   0.47699   0.00000  Uiso   1.00
O222   O     0.12458   0.43242   0.02286   0.00000  Uiso   1.00
O223   O     0.22774   0.46179   0.25000   0.00000  Uiso   1.00
O224   O     0.22774   0.53821   0.25001   0.00000  Uiso   1.00
O225   O     0.10559   0.46179   0.25000   0.00000  Uiso   1.00
O226   O     0.16666   0.53822   0.18453   0.00000  Uiso   1.00
O227   O     0.16667   0.46178   0.31547   0.00000  Uiso   1.00
O228   O     0.16667   0.53822   0.31547   0.00000  Uiso   1.00
O229   O     0.16666   0.46178   0.18453   0.00000  Uiso   1.00
O230   O     0.20909   0.56739   0.02312   0.00000  Uiso   1.00
Zn231  Zn    0.16667   0.55104   0.25000   0.00000  Uiso   1.00
Zn232  Zn    0.16667   0.44896   0.25000   0.00000  Uiso   1.00
C233   C     0.41995   0.50000   0.24997   0.00000  Uiso   1.00
C234   C     0.64535   0.54042   0.24143   0.00000  Uiso   1.00
C235   C     0.64537   0.45959   0.25862   0.00000  Uiso   1.00
C236   C     0.35463   0.54041   0.24138   0.00000  Uiso   1.00
C237   C     0.52128   0.53454   0.04690   0.00000  Uiso   1.00
C238   C     0.52129   0.46534   0.45317   0.00000  Uiso   1.00
C239   C     0.47900   0.53457   0.45316   0.00000  Uiso   1.00
C240   C     0.47899   0.46530   0.04677   0.00000  Uiso   1.00
C241   C     0.52062   0.53458   0.09332   0.00000  Uiso   1.00
C242   C     0.52068   0.46537   0.40675   0.00000  Uiso   1.00
C243   C     0.47956   0.53460   0.40674   0.00000  Uiso   1.00
C244   C     0.58005   0.50000   0.25003   0.00000  Uiso   1.00
C245   C     0.47950   0.46533   0.09320   0.00000  Uiso   1.00
C246   C     0.50002   0.49998   0.11607   0.00000  Uiso   1.00
C247   C     0.50010   0.49999   0.38393   0.00000  Uiso   1.00
C248   C     0.50016   0.49991   0.02409   0.00000  Uiso   1.00
C249   C     0.50016   0.49994   0.47591   0.00000  Uiso   1.00
C250   C     0.62419   0.50001   0.25004   0.00000  Uiso   1.00
C251   C     0.37581   0.49999   0.24996   0.00000  Uiso   1.00
C252   C     0.49998   0.50000   0.16393   0.00000  Uiso   1.00
C253   C     0.50004   0.50000   0.33607   0.00000  Uiso   1.00
C254   C     0.52642   0.35733   0.27716   0.00000  Uiso   1.00
C255   C     0.47357   0.64267   0.22285   0.00000  Uiso   1.00
C256   C     0.47358   0.35731   0.22284   0.00000  Uiso   1.00
C257   C     0.52643   0.64269   0.27715   0.00000  Uiso   1.00
C258   C     0.35465   0.45958   0.25857   0.00000  Uiso   1.00
H259   H     0.37088   0.42818   0.26552   0.00000  Uiso   1.00
H260   H     0.55540   0.41087   0.45588   0.00000  Uiso   1.00
H261   H     0.44489   0.58904   0.45583   0.00000  Uiso   1.00
H262   H     0.44488   0.41081   0.04398   0.00000  Uiso   1.00
H263   H     0.53673   0.56096   0.11167   0.00000  Uiso   1.00
H264   H     0.53680   0.43901   0.38845   0.00000  Uiso   1.00
H265   H     0.46341   0.56098   0.38843   0.00000  Uiso   1.00
H266   H     0.46335   0.43897   0.11145   0.00000  Uiso   1.00
H267   H     0.62912   0.57182   0.23447   0.00000  Uiso   1.00
H268   H     0.62916   0.42820   0.26562   0.00000  Uiso   1.00
H269   H     0.37084   0.57180   0.23439   0.00000  Uiso   1.00
H270   H     0.54754   0.37554   0.29886   0.00000  Uiso   1.00
H271   H     0.45245   0.62447   0.20115   0.00000  Uiso   1.00
H272   H     0.45247   0.37550   0.20113   0.00000  Uiso   1.00
H273   H     0.54754   0.62450   0.29885   0.00000  Uiso   1.00
H274   H     0.55540   0.58903   0.04431   0.00000  Uiso   1.00
N275   N     0.50000   0.61907   0.25000   0.00000  Uiso   1.00
N276   N     0.50000   0.38093   0.25000   0.00000  Uiso   1.00
O277   O     0.43892   0.53821   0.25000   0.00000  Uiso   1.00
O278   O     0.54241   0.43247   0.47703   0.00000  Uiso   1.00
O279   O     0.45791   0.56741   0.47699   0.00000  Uiso   1.00
O280   O     0.45792   0.43242   0.02286   0.00000  Uiso   1.00
O281   O     0.56108   0.46179   0.25000   0.00000  Uiso   1.00
O282   O     0.56108   0.53821   0.25001   0.00000  Uiso   1.00
O283   O     0.43892   0.46179   0.25000   0.00000  Uiso   1.00
O284   O     0.50000   0.53822   0.18453   0.00000  Uiso   1.00
O285   O     0.50000   0.46178   0.31547   0.00000  Uiso   1.00
O286   O     0.50000   0.53822   0.31547   0.00000  Uiso   1.00
O287   O     0.50000   0.46178   0.18453   0.00000  Uiso   1.00
O288   O     0.54242   0.56739   0.02312   0.00000  Uiso   1.00
Zn289  Zn    0.50000   0.55104   0.25000   0.00000  Uiso   1.00
Zn290  Zn    0.50000   0.44896   0.25000   0.00000  Uiso   1.00
C291   C     0.75329   0.50000   0.24997   0.00000  Uiso   1.00
C292   C     0.97869   0.54042   0.24143   0.00000  Uiso   1.00
C293   C     0.97871   0.45959   0.25862   0.00000  Uiso   1.00
C294   C     0.68796   0.54041   0.24138   0.00000  Uiso   1.00
C295   C     0.85462   0.53454   0.04690   0.00000  Uiso   1.00
C296   C     0.85463   0.46534   0.45317   0.00000  Uiso   1.00
C297   C     0.81234   0.53457   0.45316   0.00000  Uiso   1.00
C298   C     0.81232   0.46530   0.04677   0.00000  Uiso   1.00
C299   C     0.85396   0.53458   0.09332   0.00000  Uiso   1.00
C300   C     0.85401   0.46537   0.40675   0.00000  Uiso   1.00
C301   C     0.81290   0.53460   0.40674   0.00000  Uiso   1.00
C302   C     0.91338   0.50000   0.25003   0.00000  Uiso   1.00
C303   C     0.81284   0.46533   0.09320   0.00000  Uiso   1.00
C304   C     0.83336   0.49998   0.11607   0.00000  Uiso   1.00
C305   C     0.83343   0.49999   0.38393   0.00000  Uiso   1.00
C306   C     0.83350   0.49991   0.02409   0.00000  Uiso   1.00
C307   C     0.83349   0.49994   0.47591   0.00000  Uiso   1.00
C308   C     0.95753   0.50001   0.25004   0.00000  Uiso   1.00
C309   C     0.70914   0.49999   0.24996   0.00000  Uiso   1.00
C310   C     0.83332   0.50000   0.16393   0.00000  Uiso   1.00
C311   C     0.83337   0.50000   0.33607   0.00000  Uiso   1.00
C312   C     0.85976   0.35733   0.27716   0.00000  Uiso   1.00
C313   C     0.80691   0.64267   0.22285   0.00000  Uiso   1.00
C314   C     0.80691   0.35731   0.22284   0.00000  Uiso   1.00
C315   C     0.85976   0.64269   0.27715   0.00000  Uiso   1.00
C316   C     0.68798   0.45958   0.25857   0.00000  Uiso   1.00
H317   H     0.70421   0.42818   0.26552   0.00000  Uiso   1.00
H318   H     0.88874   0.41087   0.45588   0.00000  Uiso   1.00
H319   H     0.77823   0.58904   0.45583   0.00000  Uiso   1.00
H320   H     0.77822   0.41081   0.04398   0.00000  Uiso   1.00
H321   H     0.87007   0.56096   0.11167   0.00000  Uiso   1.00
H322   H     0.87013   0.43901   0.38845   0.00000  Uiso   1.00
H323   H     0.79675   0.56098   0.38843   0.00000  Uiso   1.00
H324   H     0.79668   0.43897   0.11145   0.00000  Uiso   1.00
H325   H     0.96245   0.57182   0.23447   0.00000  Uiso   1.00
H326   H     0.96249   0.42820   0.26562   0.00000  Uiso   1.00
H327   H     0.70418   0.57180   0.23439   0.00000  Uiso   1.00
H328   H     0.88087   0.37554   0.29886   0.00000  Uiso   1.00
H329   H     0.78578   0.62447   0.20115   0.00000  Uiso   1.00
H330   H     0.78580   0.37550   0.20113   0.00000  Uiso   1.00
H331   H     0.88088   0.62450   0.29885   0.00000  Uiso   1.00
H332   H     0.88873   0.58903   0.04431   0.00000  Uiso   1.00
N333   N     0.83333   0.61907   0.25000   0.00000  Uiso   1.00
N334   N     0.83333   0.38093   0.25000   0.00000  Uiso   1.00
O335   O     0.77226   0.53821   0.25000   0.00000  Uiso   1.00
O336   O     0.87574   0.43247   0.47703   0.00000  Uiso   1.00
O337   O     0.79124   0.56741   0.47699   0.00000  Uiso   1.00
O338   O     0.79125   0.43242   0.02286   0.00000  Uiso   1.00
O339   O     0.89441   0.46179   0.25000   0.00000  Uiso   1.00
O340   O     0.89441   0.53821   0.25001   0.00000  Uiso   1.00
O341   O     0.77226   0.46179   0.25000   0.00000  Uiso   1.00
O342   O     0.83333   0.53822   0.18453   0.00000  Uiso   1.00
O343   O     0.83334   0.46178   0.31547   0.00000  Uiso   1.00
O344   O     0.83334   0.53822   0.31547   0.00000  Uiso   1.00
O345   O     0.83333   0.46178   0.18453   0.00000  Uiso   1.00
O346   O     0.87575   0.56739   0.02312   0.00000  Uiso   1.00
Zn347  Zn    0.83333   0.55104   0.25000   0.00000  Uiso   1.00
Zn348  Zn    0.83333   0.44896   0.25000   0.00000  Uiso   1.00
C349   C     0.08662   0.83333   0.24997   0.00000  Uiso   1.00
C350   C     0.31202   0.87375   0.24143   0.00000  Uiso   1.00
C351   C     0.31204   0.79293   0.25862   0.00000  Uiso   1.00
C352   C     0.02129   0.87374   0.24138   0.00000  Uiso   1.00
C353   C     0.18795   0.86787   0.04690   0.00000  Uiso   1.00
C354   C     0.18796   0.79868   0.45317   0.00000  Uiso   1.00
C355   C     0.14567   0.86790   0.45316   0.00000  Uiso   1.00
C356   C     0.14566   0.79863   0.04677   0.00000  Uiso   1.00
C357   C     0.18729   0.86791   0.09332   0.00000  Uiso   1.00
C358   C     0.18734   0.79870   0.40675   0.00000  Uiso   1.00
C359   C     0.14623   0.86793   0.40674   0.00000  Uiso   1.00
C360   C     0.24671   0.83334   0.25003   0.00000  Uiso   1.00
C361   C     0.14617   0.79867   0.09320   0.00000  Uiso   1.00
C362   C     0.16669   0.83331   0.11607   0.00000  Uiso   1.00
C363   C     0.16676   0.83333   0.38393   0.00000  Uiso   1.00
C364   C     0.16683   0.83324   0.02409   0.00000  Uiso   1.00
C365   C     0.16683   0.83327   0.47591   0.00000  Uiso   1.00
C366   C     0.29086   0.83334   0.25004   0.00000  Uiso   1.00
C367   C     0.04247   0.83332   0.24996   0.00000  Uiso   1.00
C368   C     0.16665   0.83333   0.16393   0.00000  Uiso   1.00
C369   C     0.16670   0.83333   0.33607   0.00000  Uiso   1.00
C370   C     0.19309   0.69067   0.27716   0.00000  Uiso   1.00
C371   C     0.14024   0.97600   0.22285   0.00000  Uiso   1.00
C372   C     0.14025   0.69065   0.22284   0.00000  Uiso   1.00
C373   C     0.19309   0.97602   0.27715   0.00000  Uiso   1.00
C374   C     0.02131   0.79292   0.25857   0.00000  Uiso   1.00
H375   H     0.03755   0.76151   0.26552   0.00000  Uiso   1.00
H376   H     0.22207   0.74420   0.45588   0.00000  Uiso   1.00
H377   H     0.11156   0.92237   0.45583   0.00000  Uiso   1.00
H378   H     0.11155   0.74415   0.04398   0.00000  Uiso   1.00
H379   H     0.20340   0.89430   0.11167   0.00000  Uiso   1.00
H380   H     0.20346   0.77234   0.38845   0.00000  Uiso   1.00
H381   H     0.13008   0.89431   0.38843   0.00000  Uiso   1.00
H382   H     0.13001   0.77230   0.11145   0.00000  Uiso   1.00
H383   H     0.29579   0.90515   0.23447   0.00000  Uiso   1.00
H384   H     0.29582   0.76153   0.26562   0.00000  Uiso   1.00
H385   H     0.03751   0.90514   0.23439   0.00000  Uiso   1.00
H386   H     0.21420   0.70887   0.29886   0.00000  Uiso   1.00
H387   H     0.11912   0.95780   0.20115   0.00000  Uiso   1.00
H388   H     0.11914   0.70884   0.20113   0.00000  Uiso   1.00
H389   H     0.21421   0.95783   0.29885   0.00000  Uiso   1.00
H390   H     0.22206   0.92236   0.04431   0.00000  Uiso   1.00
N391   N     0.16667   0.95240   0.25000   0.00000  Uiso   1.00
N392   N     0.16667   0.71427   0.25000   0.00000  Uiso   1.00
O393   O     0.10559   0.87154   0.25000   0.00000  Uiso   1.00
O394   O     0.20907   0.76580   0.47703   0.00000  Uiso   1.00
O395   O     0.12458   0.90074   0.47699   0.00000  Uiso   1.00
O396   O     0.12458   0.76575   0.02286   0.00000  Uiso   1.00
O397   O     0.22774   0.79513   0.25000   0.00000  Uiso   1.00
O398   O     0.22774   0.87154   0.25001   0.00000  Uiso   1.00
O399   O     0.10559   0.79513   0.25000   0.00000  Uiso   1.00
O400   O     0.16666   0.87155   0.18453   0.00000  Uiso   1.00
O401   O     0.16667   0.79511   0.31547   0.00000  Uiso   1.00
O402   O     0.16667   0.87155   0.31547   0.00000  Uiso   1.00
O403   O     0.16666   0.79511   0.18453   0.00000  Uiso   1.00
O404   O     0.20909   0.90073   0.02312   0.00000  Uiso   1.00
Zn405  Zn    0.16667   0.88437   0.25000   0.00000  Uiso   1.00
Zn406  Zn    0.16667   0.78229   0.25000   0.00000  Uiso   1.00
C407   C     0.41995   0.83333   0.24997   0.00000  Uiso   1.00
C408   C     0.64535   0.87375   0.24143   0.00000  Uiso   1.00
C409   C     0.64537   0.79293   0.25862   0.00000  Uiso   1.00
C410   C     0.35463   0.87374   0.24138   0.00000  Uiso   1.00
C411   C     0.52128   0.86787   0.04690   0.00000  Uiso   1.00
C412   C     0.52129   0.79868   0.45317   0.00000  Uiso   1.00
C413   C     0.47900   0.86790   0.45316   0.00000  Uiso   1.00
C414   C     0.47899   0.79863   0.04677   0.00000  Uiso   1.00
C415   C     0.52062   0.86791   0.09332   0.00000  Uiso   1.00
C416   C     0.52068   0.79870   0.40675   0.00000  Uiso   1.00
C417   C     0.47956   0.86793   0.40674   0.00000  Uiso   1.00
C418   C     0.58005   0.83334   0.25003   0.00000  Uiso   1.00
C419   C     0.47950   0.79867   0.09320   0.00000  Uiso   1.00
C420   C     0.50002   0.83331   0.11607   0.00000  Uiso   1.00
C421   C     0.50010   0.83333   0.38393   0.00000  Uiso   1.00
C422   C     0.50016   0.83324   0.02409   0.00000  Uiso   1.00
C423   C     0.50016   0.83327   0.47591   0.00000  Uiso   1.00
C424   C     0.62419   0.83334   0.25004   0.00000  Uiso   1.00
C425   C     0.37581   0.83332   0.24996   0.00000  Uiso   1.00
C426   C     0.49998   0.83333   0.16393   0.00000  Uiso   1.00
C427   C     0.50004   0.83333   0.33607   0.00000  Uiso   1.00
C428   C     0.52642   0.69067   0.27716   0.00000  Uiso   1.00
C429   C     0.47357   0.97600   0.22285   0.00000  Uiso   1.00
C430   C     0.47358   0.69065   0.22284   0.00000  Uiso   1.00
C431   C     0.52643   0.97602   0.27715   0.00000  Uiso   1.00
C432   C     0.35465   0.79292   0.25857   0.00000  Uiso   1.00
H433   H     0.37088   0.76151   0.26552   0.00000  Uiso   1.00
H434   H     0.55540   0.74420   0.45588   0.00000  Uiso   1.00
H435   H     0.44489   0.92237   0.45583   0.00000  Uiso   1.00
H436   H     0.44488   0.74415   0.04398   0.00000  Uiso   1.00
H437   H     0.53673   0.89430   0.11167   0.00000  Uiso   1.00
H438   H     0.53680   0.77234   0.38845   0.00000  Uiso   1.00
H439   H     0.46341   0.89431   0.38843   0.00000  Uiso   1.00
H440   H     0.46335   0.77230   0.11145   0.00000  Uiso   1.00
H441   H     0.62912   0.90515   0.23447   0.00000  Uiso   1.00
H442   H     0.62916   0.76153   0.26562   0.00000  Uiso   1.00
H443   H     0.37084   0.90514   0.23439   0.00000  Uiso   1.00
H444   H     0.54754   0.70887   0.29886   0.00000  Uiso   1.00
H445   H     0.45245   0.95780   0.20115   0.00000  Uiso   1.00
H446   H     0.45247   0.70884   0.20113   0.00000  Uiso   1.00
H447   H     0.54754   0.95783   0.29885   0.00000  Uiso   1.00
H448   H     0.55540   0.92236   0.04431   0.00000  Uiso   1.00
N449   N     0.50000   0.95240   0.25000   0.00000  Uiso   1.00
N450   N     0.50000   0.71427   0.25000   0.00000  Uiso   1.00
O451   O     0.43892   0.87154   0.25000   0.00000  Uiso   1.00
O452   O     0.54241   0.76580   0.47703   0.00000  Uiso   1.00
O453   O     0.45791   0.90074   0.47699   0.00000  Uiso   1.00
O454   O     0.45792   0.76575   0.02286   0.00000  Uiso   1.00
O455   O     0.56108   0.79513   0.25000   0.00000  Uiso   1.00
O456   O     0.56108   0.87154   0.25001   0.00000  Uiso   1.00
O457   O     0.43892   0.79513   0.25000   0.00000  Uiso   1.00
O458   O     0.50000   0.87155   0.18453   0.00000  Uiso   1.00
O459   O     0.50000   0.79511   0.31547   0.00000  Uiso   1.00
O460   O     0.50000   0.87155   0.31547   0.00000  Uiso   1.00
O461   O     0.50000   0.79511   0.18453   0.00000  Uiso   1.00
O462   O     0.54242   0.90073   0.02312   0.00000  Uiso   1.00
Zn463  Zn    0.50000   0.88437   0.25000   0.00000  Uiso   1.00
Zn464  Zn    0.50000   0.78229   0.25000   0.00000  Uiso   1.00
C465   C     0.75329   0.83333   0.24997   0.00000  Uiso   1.00
C466   C     0.97869   0.87375   0.24143   0.00000  Uiso   1.00
C467   C     0.97871   0.79293   0.25862   0.00000  Uiso   1.00
C468   C     0.68796   0.87374   0.24138   0.00000  Uiso   1.00
C469   C     0.85462   0.86787   0.04690   0.00000  Uiso   1.00
C470   C     0.85463   0.79868   0.45317   0.00000  Uiso   1.00
C471   C     0.81234   0.86790   0.45316   0.00000  Uiso   1.00
C472   C     0.81232   0.79863   0.04677   0.00000  Uiso   1.00
C473   C     0.85396   0.86791   0.09332   0.00000  Uiso   1.00
C474   C     0.85401   0.79870   0.40675   0.00000  Uiso   1.00
C475   C     0.81290   0.86793   0.40674   0.00000  Uiso   1.00
C476   C     0.91338   0.83334   0.25003   0.00000  Uiso   1.00
C477   C     0.81284   0.79867   0.09320   0.00000  Uiso   1.00
C478   C     0.83336   0.83331   0.11607   0.00000  Uiso   1.00
C479   C     0.83343   0.83333   0.38393   0.00000  Uiso   1.00
C480   C     0.83350   0.83324   0.02409   0.00000  Uiso   1.00
C481   C     0.83349   0.83327   0.47591   0.00000  Uiso   1.00
C482   C     0.95753   0.83334   0.25004   0.00000  Uiso   1.00
C483   C     0.70914   0.83332   0.24996   0.00000  Uiso   1.00
C484   C     0.83332   0.83333   0.16393   0.00000  Uiso   1.00
C485   C     0.83337   0.83333   0.33607   0.00000  Uiso   1.00
C486   C     0.85976   0.69067   0.27716   0.00000  Uiso   1.00
C487   C     0.80691   0.97600   0.22285   0.00000  Uiso   1.00
C488   C     0.80691   0.69065   0.22284   0.00000  Uiso   1.00
C489   C     0.85976   0.97602   0.27715   0.00000  Uiso   1.00
C490   C     0.68798   0.79292   0.25857   0.00000  Uiso   1.00
H491   H     0.70421   0.76151   0.26552   0.00000  Uiso   1.00
H492   H     0.88874   0.74420   0.45588   0.00000  Uiso   1.00
H493   H     0.77823   0.92237   0.45583   0.00000  Uiso   1.00
H494   H     0.77822   0.74415   0.04398   0.00000  Uiso   1.00
H495   H     0.87007   0.89430   0.11167   0.00000  Uiso   1.00
H496   H     0.87013   0.77234   0.38845   0.00000  Uiso   1.00
H497   H     0.79675   0.89431   0.38843   0.00000  Uiso   1.00
H498   H     0.79668   0.77230   0.11145   0.00000  Uiso   1.00
H499   H     0.96245   0.90515   0.23447   0.00000  Uiso   1.00
H500   H     0.96249   0.76153   0.26562   0.00000  Uiso   1.00
H501   H     0.70418   0.90514   0.23439   0.00000  Uiso   1.00
H502   H     0.88087   0.70887   0.29886   0.00000  Uiso   1.00
H503   H     0.78578   0.95780   0.20115   0.00000  Uiso   1.00
H504   H     0.78580   0.70884   0.20113   0.00000  Uiso   1.00
H505   H     0.88088   0.95783   0.29885   0.00000  Uiso   1.00
H506   H     0.88873   0.92236   0.04431   0.00000  Uiso   1.00
N507   N     0.83333   0.95240   0.25000   0.00000  Uiso   1.00
N508   N     0.83333   0.71427   0.25000   0.00000  Uiso   1.00
O509   O     0.77226   0.87154   0.25000   0.00000  Uiso   1.00
O510   O     0.87574   0.76580   0.47703   0.00000  Uiso   1.00
O511   O     0.79124   0.90074   0.47699   0.00000  Uiso   1.00
O512   O     0.79125   0.76575   0.02286   0.00000  Uiso   1.00
O513   O     0.89441   0.79513   0.25000   0.00000  Uiso   1.00
O514   O     0.89441   0.87154   0.25001   0.00000  Uiso   1.00
O515   O     0.77226   0.79513   0.25000   0.00000  Uiso   1.00
O516   O     0.83333   0.87155   0.18453   0.00000  Uiso   1.00
O517   O     0.83334   0.79511   0.31547   0.00000  Uiso   1.00
O518   O     0.83334   0.87155   0.31547   0.00000  Uiso   1.00
O519   O     0.83333   0.79511   0.18453   0.00000  Uiso   1.00
O520   O     0.87575   0.90073   0.02312   0.00000  Uiso   1.00
Zn521  Zn    0.83333   0.88437   0.25000   0.00000  Uiso   1.00
Zn522  Zn    0.83333   0.78229   0.25000   0.00000  Uiso   1.00
C523   C     0.08662   0.16666   0.74997   0.00000  Uiso   1.00
C524   C     0.31202   0.20708   0.74143   0.00000  Uiso   1.00
C525   C     0.31204   0.12626   0.75862   0.00000  Uiso   1.00
C526   C     0.02129   0.20707   0.74138   0.00000  Uiso   1.00
C527   C     0.18795   0.20121   0.54690   0.00000  Uiso   1.00
C528   C     0.18796   0.13201   0.95317   0.00000  Uiso   1.00
C529   C     0.14567   0.20123   0.95316   0.00000  Uiso   1.00
C530   C     0.14566   0.13197   0.54677   0.00000  Uiso   1.00
C531   C     0.18729   0.20125   0.59332   0.00000  Uiso   1.00
C532   C     0.18734   0.13203   0.90675   0.00000  Uiso   1.00
C533   C     0.14623   0.20127   0.90674   0.00000  Uiso   1.00
C534   C     0.24671   0.16667   0.75003   0.00000  Uiso   1.00
C535   C     0.14617   0.13200   0.59320   0.00000  Uiso   1.00
C536   C     0.16669   0.16665   0.61607   0.00000  Uiso   1.00
C537   C     0.16676   0.16666   0.88393   0.00000  Uiso   1.00
C538   C     0.16683   0.16658   0.52409   0.00000  Uiso   1.00
C539   C     0.16683   0.16661   0.97591   0.00000  Uiso   1.00
C540   C     0.29086   0.16667   0.75004   0.00000  Uiso   1.00
C541   C     0.04247   0.16666   0.74996   0.00000  Uiso   1.00
C542   C     0.16665   0.16666   0.66393   0.00000  Uiso   1.00
C543   C     0.16670   0.16667   0.83607   0.00000  Uiso   1.00
C544   C     0.19309   0.02400   0.77716   0.00000  Uiso   1.00
C545   C     0.14024   0.30934   0.72285   0.00000  Uiso   1.00
C546   C     0.14025   0.02398   0.72284   0.00000  Uiso   1.00
C547   C     0.19309   0.30935   0.77715   0.00000  Uiso   1.00
C548   C     0.02131   0.12625   0.75857   0.00000  Uiso   1.00
H549   H     0.03755   0.09485   0.76552   0.00000  Uiso   1.00
H550   H     0.22207   0.07753   0.95588   0.00000  Uiso   1.00
H551   H     0.11156   0.25570   0.95583   0.00000  Uiso   1.00
H552   H     0.11155   0.07748   0.54398   0.00000  Uiso   1.00
H553   H     0.20340   0.22763   0.61167   0.00000  Uiso   1.00
H554   H     0.20346   0.10567   0.88845   0.00000  Uiso   1.00
H555   H     0.13008   0.22764   0.88843   0.00000  Uiso   1.00
H556   H     0.13001   0.10563   0.61145   0.00000  Uiso   1.00
H557   H     0.29579   0.23849   0.73447   0.00000  Uiso   1.00
H558   H     0.29582   0.09487   0.76562   0.00000  Uiso   1.00
H559   H     0.03751   0.23847   0.73439   0.00000  Uiso   1.00
H560   H     0.21420   0.04221   0.79886   0.00000  Uiso   1.00
H561   H     0.11912   0.29113   0.70115   0.00000  Uiso   1.00
H562   H     0.11914   0.04217   0.70113   0.00000  Uiso   1.00
H563   H     0.21421   0.29117   0.79885   0.00000  Uiso   1.00
H564   H     0.22206   0.25569   0.54431   0.00000  Uiso   1.00
N565   N     0.16667   0.28573   0.75000   0.00000  Uiso   1.00
N566   N     0.16667   0.04760   0.75000   0.00000  Uiso   1.00
O567   O     0.10559   0.20487   0.75000   0.00000  Uiso   1.00
O568   O     0.20907   0.09913   0.97703   0.00000  Uiso   1.00
O569   O     0.12458   0.23408   0.97699   0.00000  Uiso   1.00
O570   O     0.12458   0.09909   0.52286   0.00000  Uiso   1.00
O571   O     0.22774   0.12846   0.75000   0.00000  Uiso   1.00
O572   O     0.22774   0.20487   0.75001   0.00000  Uiso   1.00
O573   O     0.10559   0.12846   0.75000   0.00000  Uiso   1.00
O574   O     0.16666   0.20489   0.68453   0.00000  Uiso   1.00
O575   O     0.16667   0.12845   0.81547   0.00000  Uiso   1.00
O576   O     0.16667   0.20489   0.81547   0.00000  Uiso   1.00
O577   O     0.16666   0.12845   0.68453   0.00000  Uiso   1.00
O578   O     0.20909   0.23406   0.52312   0.00000  Uiso   1.00
Zn579  Zn    0.16667   0.21771   0.75000   0.00000  Uiso   1.00
Zn580  Zn    0.16667   0.11563   0.75000   0.00000  Uiso   1.00
C581   C     0.41995   0.16666   0.74997   0.00000  Uiso   1.00
C582   C     0.64535   0.20708   0.74143   0.00000  Uiso   1.00
C583   C     0.64537   0.12626   0.75862   0.00000  Uiso   1.00
C584   C     0.35463   0.20707   0.74138   0.00000  Uiso   1.00
C585   C     0.52128   0.20121   0.54690   0.00000  Uiso   1.00
C586   C     0.52129   0.13201   0.95317   0.00000  Uiso   1.00
C587   C     0.47900   0.20123   0.95316   0.00000  Uiso   1.00
C588   C     0.47899   0.13197   0.54677   0.00000  Uiso   1.00
C589   C     0.52062   0.20125   0.59332   0.00000  Uiso   1.00
C590   C     0.52068   0.13203   0.90675   0.00000  Uiso   1.00
C591   C     0.47956   0.20127   0.90674   0.00000  Uiso   1.00
C592   C     0.58005   0.16667   0.75003   0.00000  Uiso   1.00
C593   C     0.47950   0.13200   0.59320   0.00000  Uiso   1.00
C594   C     0.50002   0.16665   0.61607   0.00000  Uiso   1.00
C595   C     0.50010   0.16666   0.88393   0.00000  Uiso   1.00
C596   C     0.50016   0.16658   0.52409   0.00000  Uiso   1.00
C597   C     0.50016   0.16661   0.97591   0.00000  Uiso   1.00
C598   C     0.62419   0.16667   0.75004   0.00000  Uiso   1.00
C599   C     0.37581   0.16666   0.74996   0.00000  Uiso   1.00
C600   C     0.49998   0.16666   0.66393   0.00000  Uiso   1.00
C601   C     0.50004   0.16667   0.83607   0.00000  Uiso   1.00
C602   C     0.52642   0.02400   0.77716   0.00000  Uiso   1.00
C603   C     0.47357   0.30934   0.72285   0.00000  Uiso   1.00
C604   C     0.47358   0.02398   0.72284   0.00000  Uiso   1.00
C605   C     0.52643   0.30935   0.77715   0.00000  Uiso   1.00
C606   C     0.35465   0.12625   0.75857   0.00000  Uiso   1.00
H607   H     0.37088   0.09485   0.76552   0.00000  Uiso   1.00
H608   H     0.55540   0.07753   0.95588   0.00000  Uiso   1.00
H609   H     0.44489   0.25570   0.95583   0.00000  Uiso   1.00
H610   H     0.44488   0.07748   0.54398   0.00000  Uiso   1.00
H611   H     0.53673   0.22763   0.61167   0.00000  Uiso   1.00
H612   H     0.53680   0.10567   0.88845   0.00000  Uiso   1.00
H613   H     0.46341   0.22764   0.88843   0.00000  Uiso   1.00
H614   H     0.46335   0.10563   0.61145   0.00000  Uiso   1.00
H615   H     0.62912   0.23849   0.73447   0.00000  Uiso   1.00
H616   H     0.62916   0.09487   0.76562   0.00000  Uiso   1.00
H617   H     0.37084   0.23847   0.73439   0.00000  Uiso   1.00
H618   H     0.54754   0.04221   0.79886   0.00000  Uiso   1.00
H619   H     0.45245   0.29113   0.70115   0.00000  Uiso   1.00
H620   H     0.45247   0.04217   0.70113   0.00000  Uiso   1.00
H621   H     0.54754   0.29117   0.79885   0.00000  Uiso   1.00
H622   H     0.55540   0.25569   0.54431   0.00000  Uiso   1.00
N623   N     0.50000   0.28573   0.75000   0.00000  Uiso   1.00
N624   N     0.50000   0.04760   0.75000   0.00000  Uiso   1.00
O625   O     0.43892   0.20487   0.75000   0.00000  Uiso   1.00
O626   O     0.54241   0.09913   0.97703   0.00000  Uiso   1.00
O627   O     0.45791   0.23408   0.97699   0.00000  Uiso   1.00
O628   O     0.45792   0.09909   0.52286   0.00000  Uiso   1.00
O629   O     0.56108   0.12846   0.75000   0.00000  Uiso   1.00
O630   O     0.56108   0.20487   0.75001   0.00000  Uiso   1.00
O631   O     0.43892   0.12846   0.75000   0.00000  Uiso   1.00
O632   O     0.50000   0.20489   0.68453   0.00000  Uiso   1.00
O633   O     0.50000   0.12845   0.81547   0.00000  Uiso   1.00
O634   O     0.50000   0.20489   0.81547   0.00000  Uiso   1.00
O635   O     0.50000   0.12845   0.68453   0.00000  Uiso   1.00
O636   O     0.54242   0.23406   0.52312   0.00000  Uiso   1.00
Zn637  Zn    0.50000   0.21771   0.75000   0.00000  Uiso   1.00
Zn638  Zn    0.50000   0.11563   0.75000   0.00000  Uiso   1.00
C639   C     0.75329   0.16666   0.74997   0.00000  Uiso   1.00
C640   C     0.97869   0.20708   0.74143   0.00000  Uiso   1.00
C641   C     0.97871   0.12626   0.75862   0.00000  Uiso   1.00
C642   C     0.68796   0.20707   0.74138   0.00000  Uiso   1.00
C643   C     0.85462   0.20121   0.54690   0.00000  Uiso   1.00
C644   C     0.85463   0.13201   0.95317   0.00000  Uiso   1.00
C645   C     0.81234   0.20123   0.95316   0.00000  Uiso   1.00
C646   C     0.81232   0.13197   0.54677   0.00000  Uiso   1.00
C647   C     0.85396   0.20125   0.59332   0.00000  Uiso   1.00
C648   C     0.85401   0.13203   0.90675   0.00000  Uiso   1.00
C649   C     0.81290   0.20127   0.90674   0.00000  Uiso   1.00
C650   C     0.91338   0.16667   0.75003   0.00000  Uiso   1.00
C651   C     0.81284   0.13200   0.59320   0.00000  Uiso   1.00
C652   C     0.83336   0.16665   0.61607   0.00000  Uiso   1.00
C653   C     0.83343   0.16666   0.88393   0.00000  Uiso   1.00
C654   C     0.83350   0.16658   0.52409   0.00000  Uiso   1.00
C655   C     0.83349   0.16661   0.97591   0.00000  Uiso   1.00
C656   C     0.95753   0.16667   0.75004   0.00000  Uiso   1.00
C657   C     0.70914   0.16666   0.74996   0.00000  Uiso   1.00
C658   C     0.83332   0.16666   0.66393   0.00000  Uiso   1.00
C659   C     0.83337   0.16667   0.83607   0.00000  Uiso   1.00
C660   C     0.85976   0.02400   0.77716   0.00000  Uiso   1.00
C661   C     0.80691   0.30934   0.72285   0.00000  Uiso   1.00
C662   C     0.80691   0.02398   0.72284   0.00000  Uiso   1.00
C663   C     0.85976   0.30935   0.77715   0.00000  Uiso   1.00
C664   C     0.68798   0.12625   0.75857   0.00000  Uiso   1.00
H665   H     0.70421   0.09485   0.76552   0.00000  Uiso   1.00
H666   H     0.88874   0.07753   0.95588   0.00000  Uiso   1.00
H667   H     0.77823   0.25570   0.95583   0.00000  Uiso   1.00
H668   H     0.77822   0.07748   0.54398   0.00000  Uiso   1.00
H669   H     0.87007   0.22763   0.61167   0.00000  Uiso   1.00
H670   H     0.87013   0.10567   0.88845   0.00000  Uiso   1.00
H671   H     0.79675   0.22764   0.88843   0.00000  Uiso   1.00
H672   H     0.79668   0.10563   0.61145   0.00000  Uiso   1.00
H673   H     0.96245   0.23849   0.73447   0.00000  Uiso   1.00
H674   H     0.96249   0.09487   0.76562   0.00000  Uiso   1.00
H675   H     0.70418   0.23847   0.73439   0.00000  Uiso   1.00
H676   H     0.88087   0.04221   0.79886   0.00000  Uiso   1.00
H677   H     0.78578   0.29113   0.70115   0.00000  Uiso   1.00
H678   H     0.78580   0.04217   0.70113   0.00000  Uiso   1.00
H679   H     0.88088   0.29117   0.79885   0.00000  Uiso   1.00
H680   H     0.88873   0.25569   0.54431   0.00000  Uiso   1.00
N681   N     0.83333   0.28573   0.75000   0.00000  Uiso   1.00
N682   N     0.83333   0.04760   0.75000   0.00000  Uiso   1.00
O683   O     0.77226   0.20487   0.75000   0.00000  Uiso   1.00
O684   O     0.87574   0.09913   0.97703   0.00000  Uiso   1.00
O685   O     0.79124   0.23408   0.97699   0.00000  Uiso   1.00
O686   O     0.79125   0.09909   0.52286   0.00000  Uiso   1.00
O687   O     0.89441   0.12846   0.75000   0.00000  Uiso   1.00
O688   O     0.89441   0.20487   0.75001   0.00000  Uiso   1.00
O689   O     0.77226   0.12846   0.75000   0.00000  Uiso   1.00
O690   O     0.83333   0.20489   0.68453   0.00000  Uiso   1.00
O691   O     0.83334   0.12845   0.81547   0.00000  Uiso   1.00
O692   O     0.83334   0.20489   0.81547   0.00000  Uiso   1.00
O693   O     0.83333   0.12845   0.68453   0.00000  Uiso   1.00
O694   O     0.87575   0.23406   0.52312   0.00000  Uiso   1.00
Zn695  Zn    0.83333   0.21771   0.75000   0.00000  Uiso   1.00
Zn696  Zn    0.83333   0.11563   0.75000   0.00000  Uiso   1.00
C697   C     0.08662   0.50000   0.74997   0.00000  Uiso   1.00
C698   C     0.31202   0.54042   0.74143   0.00000  Uiso   1.00
C699   C     0.31204   0.45959   0.75862   0.00000  Uiso   1.00
C700   C     0.02129   0.54041   0.74138   0.00000  Uiso   1.00
C701   C     0.18795   0.53454   0.54690   0.00000  Uiso   1.00
C702   C     0.18796   0.46534   0.95317   0.00000  Uiso   1.00
C703   C     0.14567   0.53457   0.95316   0.00000  Uiso   1.00
C704   C     0.14566   0.46530   0.54677   0.00000  Uiso   1.00
C705   C     0.18729   0.53458   0.59332   0.00000  Uiso   1.00
C706   C     0.18734   0.46537   0.90675   0.00000  Uiso   1.00
C707   C     0.14623   0.53460   0.90674   0.00000  Uiso   1.00
C708   C     0.24671   0.50000   0.75003   0.00000  Uiso   1.00
C709   C     0.14617   0.46533   0.59320   0.00000  Uiso   1.00
C710   C     0.16669   0.49998   0.61607   0.00000  Uiso   1.00
C711   C     0.16676   0.49999   0.88393   0.00000  Uiso   1.00
C712   C     0.16683   0.49991   0.52409   0.00000  Uiso   1.00
C713   C     0.16683   0.49994   0.97591   0.00000  Uiso   1.00
C714   C     0.29086   0.50001   0.75004   0.00000  Uiso   1.00
C715   C     0.04247   0.49999   0.74996   0.00000  Uiso   1.00
C716   C     0.16665   0.50000   0.66393   0.00000  Uiso   1.00
C717   C     0.16670   0.50000   0.83607   0.00000  Uiso   1.00
C718   C     0.19309   0.35733   0.77716   0.00000  Uiso   1.00
C719   C     0.14024   0.64267   0.72285   0.00000  Uiso   1.00
C720   C     0.14025   0.35731   0.72284   0.00000  Uiso   1.00
C721   C     0.19309   0.64269   0.77715   0.00000  Uiso   1.00
C722   C     0.02131   0.45958   0.75857   0.00000  Uiso   1.00
H723   H     0.03755   0.42818   0.76552   0.00000  Uiso   1.00
H724   H     0.22207   0.41087   0.95588   0.00000  Uiso   1.00
H725   H     0.11156   0.58904   0.95583   0.00000  Uiso   1.00
H726   H     0.11155   0.41081   0.54398   0.00000  Uiso   1.00
H727   H     0.20340   0.56096   0.61167   0.00000  Uiso   1.00
H728   H     0.20346   0.43901   0.88845   0.00000  Uiso   1.00
H729   H     0.13008   0.56098   0.88843   0.00000  Uiso   1.00
H730   H     0.13001   0.43897   0.61145   0.00000  Uiso   1.00
H731   H     0.29579   0.57182   0.73447   0.00000  Uiso   1.00
H732   H     0.29582   0.42820   0.76562   0.00000  Uiso   1.00
H733   H     0.03751   0.57180   0.73439   0.00000  Uiso   1.00
H734   H     0.21420   0.37554   0.79886   0.00000  Uiso   1.00
H735   H     0.11912   0.62447   0.70115   0.00000  Uiso   1.00
H736   H     0.11914   0.37550   0.70113   0.00000  Uiso   1.00
H737   H     0.21421   0.62450   0.79885   0.00000  Uiso   1.00
H738   H     0.22206   0.58903   0.54431   0.00000  Uiso   1.00
N739   N     0.16667   0.61907   0.75000   0.00000  Uiso   1.00
N740   N     0.16667   0.38093   0.75000   0.00000  Uiso   1.00
O741   O     0.10559   0.53821   0.75000   0.00000  Uiso   1.00
O742   O     0.20907   0.43247   0.97703   0.00000  Uiso   1.00
O743   O     0.12458   0.56741   0.97699   0.00000  Uiso   1.00
O744   O     0.12458   0.43242   0.52286   0.00000  Uiso   1.00
O745   O     0.22774   0.46179   0.75000   0.00000  Uiso   1.00
O746   O     0.22774   0.53821   0.75001   0.00000  Uiso   1.00
O747   O     0.10559   0.46179   0.75000   0.00000  Uiso   1.00
O748   O     0.16666   0.53822   0.68453   0.00000  Uiso   1.00
O749   O     0.16667   0.46178   0.81547   0.00000  Uiso   1.00
O750   O     0.16667   0.53822   0.81547   0.00000  Uiso   1.00
O751   O     0.16666   0.46178   0.68453   0.00000  Uiso   1.00
O752   O     0.20909   0.56739   0.52312   0.00000  Uiso   1.00
Zn753  Zn    0.16667   0.55104   0.75000   0.00000  Uiso   1.00
Zn754  Zn    0.16667   0.44896   0.75000   0.00000  Uiso   1.00
C755   C     0.41995   0.50000   0.74997   0.00000  Uiso   1.00
C756   C     0.64535   0.54042   0.74143   0.00000  Uiso   1.00
C757   C     0.64537   0.45959   0.75862   0.00000  Uiso   1.00
C758   C     0.35463   0.54041   0.74138   0.00000  Uiso   1.00
C759   C     0.52128   0.53454   0.54690   0.00000  Uiso   1.00
C760   C     0.52129   0.46534   0.95317   0.00000  Uiso   1.00
C761   C     0.47900   0.53457   0.95316   0.00000  Uiso   1.00
C762   C     0.47899   0.46530   0.54677   0.00000  Uiso   1.00
C763   C     0.52062   0.53458   0.59332   0.00000  Uiso   1.00
C764   C     0.52068   0.46537   0.90675   0.00000  Uiso   1.00
C765   C     0.47956   0.53460   0.90674   0.00000  Uiso   1.00
C766   C     0.58005   0.50000   0.75003   0.00000  Uiso   1.00
C767   C     0.47950   0.46533   0.59320   0.00000  Uiso   1.00
C768   C     0.50002   0.49998   0.61607   0.00000  Uiso   1.00
C769   C     0.50010   0.49999   0.88393   0.00000  Uiso   1.00
C770   C     0.50016   0.49991   0.52409   0.00000  Uiso   1.00
C771   C     0.50016   0.49994   0.97591   0.00000  Uiso   1.00
C772   C     0.62419   0.50001   0.75004   0.00000  Uiso   1.00
C773   C     0.37581   0.49999   0.74996   0.00000  Uiso   1.00
C774   C     0.49998   0.50000   0.66393   0.00000  Uiso   1.00
C775   C     0.50004   0.50000   0.83607   0.00000  Uiso   1.00
C776   C     0.52642   0.35733   0.77716   0.00000  Uiso   1.00
C777   C     0.47357   0.64267   0.72285   0.00000  Uiso   1.00
C778   C     0.47358   0.35731   0.72284   0.00000  Uiso   1.00
C779   C     0.52643   0.64269   0.77715   0.00000  Uiso   1.00
C780   C     0.35465   0.45958   0.75857   0.00000  Uiso   1.00
H781   H     0.37088   0.42818   0.76552   0.00000  Uiso   1.00
H782   H     0.55540   0.41087   0.95588   0.00000  Uiso   1.00
H783   H     0.44489   0.58904   0.95583   0.00000  Uiso   1.00
H784   H     0.44488   0.41081   0.54398   0.00000  Uiso   1.00
H785   H     0.53673   0.56096   0.61167   0.00000  Uiso   1.00
H786   H     0.53680   0.43901   0.88845   0.00000  Uiso   1.00
H787   H     0.46341   0.56098   0.88843   0.00000  Uiso   1.00
H788   H     0.46335   0.43897   0.61145   0.00000  Uiso   1.00
H789   H     0.62912   0.57182   0.73447   0.00000  Uiso   1.00
H790   H     0.62916   0.42820   0.76562   0.00000  Uiso   1.00
H791   H     0.37084   0.57180   0.73439   0.00000  Uiso   1.00
H792   H     0.54754   0.37554   0.79886   0.00000  Uiso   1.00
H793   H     0.45245   0.62447   0.70115   0.00000  Uiso   1.00
H794   H     0.45247   0.37550   0.70113   0.00000  Uiso   1.00
H795   H     0.54754   0.62450   0.79885   0.00000  Uiso   1.00
H796   H     0.55540   0.58903   0.54431   0.00000  Uiso   1.00
N797   N     0.50000   0.61907   0.75000   0.00000  Uiso   1.00
N798   N     0.50000   0.38093   0.75000   0.00000  Uiso   1.00
O799   O     0.43892   0.53821   0.75000   0.00000  Uiso   1.00
O800   O     0.54241   0.43247   0.97703   0.00000  Uiso   1.00
O801   O     0.45791   0.56741   0.97699   0.00000  Uiso   1.00
O802   O     0.45792   0.43242   0.52286   0.00000  Uiso   1.00
O803   O     0.56108   0.46179   0.75000   0.00000  Uiso   1.00
O804   O     0.56108   0.53821   0.75001   0.00000  Uiso   1.00
O805   O     0.43892   0.46179   0.75000   0.00000  Uiso   1.00
O806   O     0.50000   0.53822   0.68453   0.00000  Uiso   1.00
O807   O     0.50000   0.46178   0.81547   0.00000  Uiso   1.00
O808   O     0.50000   0.53822   0.81547   0.00000  Uiso   1.00
O809   O     0.50000   0.46178   0.68453   0.00000  Uiso   1.00
O810   O     0.54242   0.56739   0.52312   0.00000  Uiso   1.00
Zn811  Zn    0.50000   0.55104   0.75000   0.00000  Uiso   1.00
Zn812  Zn    0.50000   0.44896   0.75000   0.00000  Uiso   1.00
C813   C     0.75329   0.50000   0.74997   0.00000  Uiso   1.00
C814   C     0.97869   0.54042   0.74143   0.00000  Uiso   1.00
C815   C     0.97871   0.45959   0.75862   0.00000  Uiso   1.00
C816   C     0.68796   0.54041   0.74138   0.00000  Uiso   1.00
C817   C     0.85462   0.53454   0.54690   0.00000  Uiso   1.00
C818   C     0.85463   0.46534   0.95317   0.00000  Uiso   1.00
C819   C     0.81234   0.53457   0.95316   0.00000  Uiso   1.00
C820   C     0.81232   0.46530   0.54677   0.00000  Uiso   1.00
C821   C     0.85396   0.53458   0.59332   0.00000  Uiso   1.00
C822   C     0.85401   0.46537   0.90675   0.00000  Uiso   1.00
C823   C     0.81290   0.53460   0.90674   0.00000  Uiso   1.00
C824   C     0.91338   0.50000   0.75003   0.00000  Uiso   1.00
C825   C     0.81284   0.46533   0.59320   0.00000  Uiso   1.00
C826   C     0.83336   0.49998   0.61607   0.00000  Uiso   1.00
C827   C     0.83343   0.49999   0.88393   0.00000  Uiso   1.00
C828   C     0.83350   0.49991   0.52409   0.00000  Uiso   1.00
C829   C     0.83349   0.49994   0.97591   0.00000  Uiso   1.00
C830   C     0.95753   0.50001   0.75004   0.00000  Uiso   1.00
C831   C     0.70914   0.49999   0.74996   0.00000  Uiso   1.00
C832   C     0.83332   0.50000   0.66393   0.00000  Uiso   1.00
C833   C     0.83337   0.50000   0.83607   0.00000  Uiso   1.00
C834   C     0.85976   0.35733   0.77716   0.00000  Uiso   1.00
C835   C     0.80691   0.64267   0.72285   0.00000  Uiso   1.00
C836   C     0.80691   0.35731   0.72284   0.00000  Uiso   1.00
C837   C     0.85976   0.64269   0.77715   0.00000  Uiso   1.00
C838   C     0.68798   0.45958   0.75857   0.00000  Uiso   1.00
H839   H     0.70421   0.42818   0.76552   0.00000  Uiso   1.00
H840   H     0.88874   0.41087   0.95588   0.00000  Uiso   1.00
H841   H     0.77823   0.58904   0.95583   0.00000  Uiso   1.00
H842   H     0.77822   0.41081   0.54398   0.00000  Uiso   1.00
H843   H     0.87007   0.56096   0.61167   0.00000  Uiso   1.00
H844   H     0.87013   0.43901   0.88845   0.00000  Uiso   1.00
H845   H     0.79675   0.56098   0.88843   0.00000  Uiso   1.00
H846   H     0.79668   0.43897   0.61145   0.00000  Uiso   1.00
H847   H     0.96245   0.57182   0.73447   0.00000  Uiso   1.00
H848   H     0.96249   0.42820   0.76562   0.00000  Uiso   1.00
H849   H     0.70418   0.57180   0.73439   0.00000  Uiso   1.00
H850   H     0.88087   0.37554   0.79886   0.00000  Uiso   1.00
H851   H     0.78578   0.62447   0.70115   0.00000  Uiso   1.00
H852   H     0.78580   0.37550   0.70113   0.00000  Uiso   1.00
H853   H     0.88088   0.62450   0.79885   0.00000  Uiso   1.00
H854   H     0.88873   0.58903   0.54431   0.00000  Uiso   1.00
N855   N     0.83333   0.61907   0.75000   0.00000  Uiso   1.00
N856   N     0.83333   0.38093   0.75000   0.00000  Uiso   1.00
O857   O     0.77226   0.53821   0.75000   0.00000  Uiso   1.00
O858   O     0.87574   0.43247   0.97703   0.00000  Uiso   1.00
O859   O     0.79124   0.56741   0.97699   0.00000  Uiso   1.00
O860   O     0.79125   0.43242   0.52286   0.00000  Uiso   1.00
O861   O     0.89441   0.46179   0.75000   0.00000  Uiso   1.00
O862   O     0.89441   0.53821   0.75001   0.00000  Uiso   1.00
O863   O     0.77226   0.46179   0.75000   0.00000  Uiso   1.00
O864   O     0.83333   0.53822   0.68453   0.00000  Uiso   1.00
O865   O     0.83334   0.46178   0.81547   0.00000  Uiso   1.00
O866   O     0.83334   0.53822   0.81547   0.00000  Uiso   1.00
O867   O     0.83333   0.46178   0.68453   0.00000  Uiso   1.00
O868   O     0.87575   0.56739   0.52312   0.00000  Uiso   1.00
Zn869  Zn    0.83333   0.55104   0.75000   0.00000  Uiso   1.00
Zn870  Zn    0.83333   0.44896   0.75000   0.00000  Uiso   1.00
C871   C     0.08662   0.83333   0.74997   0.00000  Uiso   1.00
C872   C     0.31202   0.87375   0.74143   0.00000  Uiso   1.00
C873   C     0.31204   0.79293   0.75862   0.00000  Uiso   1.00
C874   C     0.02129   0.87374   0.74138   0.00000  Uiso   1.00
C875   C     0.18795   0.86787   0.54690   0.00000  Uiso   1.00
C876   C     0.18796   0.79868   0.95317   0.00000  Uiso   1.00
C877   C     0.14567   0.86790   0.95316   0.00000  Uiso   1.00
C878   C     0.14566   0.79863   0.54677   0.00000  Uiso   1.00
C879   C     0.18729   0.86791   0.59332   0.00000  Uiso   1.00
C880   C     0.18734   0.79870   0.90675   0.00000  Uiso   1.00
C881   C     0.14623   0.86793   0.90674   0.00000  Uiso   1.00
C882   C     0.24671   0.83334   0.75003   0.00000  Uiso   1.00
C883   C     0.14617   0.79867   0.59320   0.00000  Uiso   1.00
C884   C     0.16669   0.83331   0.61607   0.00000  Uiso   1.00
C885   C     0.16676   0.83333   0.88393   0.00000  Uiso   1.00
C886   C     0.16683   0.83324   0.52409   0.00000  Uiso   1.00
C887   C     0.16683   0.83327   0.97591   0.00000  Uiso   1.00
C888   C     0.29086   0.83334   0.75004   0.00000  Uiso   1.00
C889   C     0.04247   0.83332   0.74996   0.00000  Uiso   1.00
C890   C     0.16665   0.83333   0.66393   0.00000  Uiso   1.00
C891   C     0.16670   0.83333   0.83607   0.00000  Uiso   1.00
C892   C     0.19309   0.69067   0.77716   0.00000  Uiso   1.00
C893   C     0.14024   0.97600   0.72285   0.00000  Uiso   1.00
C894   C     0.14025   0.69065   0.72284   0.00000  Uiso   1.00
C895   C     0.19309   0.97602   0.77715   0.00000  Uiso   1.00
C896   C     0.02131   0.79292   0.75857   0.00000  Uiso   1.00
H897   H     0.03755   0.76151   0.76552   0.00000  Uiso   1.00
H898   H     0.22207   0.74420   0.95588   0.00000  Uiso   1.00
H899   H     0.11156   0.92237   0.95583   0.00000  Uiso   1.00
H900   H     0.11155   0.74415   0.54398   0.00000  Uiso   1.00
H901   H     0.20340   0.89430   0.61167   0.00000  Uiso   1.00
H902   H     0.20346   0.77234   0.88845   0.00000  Uiso   1.00
H903   H     0.13008   0.89431   0.88843   0.00000  Uiso   1.00
H904   H     0.13001   0.77230   0.61145   0.00000  Uiso   1.00
H905   H     0.29579   0.90515   0.73447   0.00000  Uiso   1.00
H906   H     0.29582   0.76153   0.76562   0.00000  Uiso   1.00
H907   H     0.03751   0.90514   0.73439   0.00000  Uiso   1.00
H908   H     0.21420   0.70887   0.79886   0.00000  Uiso   1.00
H909   H     0.11912   0.95780   0.70115   0.00000  Uiso   1.00
H910   H     0.11914   0.70884   0.70113   0.00000  Uiso   1.00
H911   H     0.21421   0.95783   0.79885   0.00000  Uiso   1.00
H912   H     0.22206   0.92236   0.54431   0.00000  Uiso   1.00
N913   N     0.16667   0.95240   0.75000   0.00000  Uiso   1.00
N914   N     0.16667   0.71427   0.75000   0.00000  Uiso   1.00
O915   O     0.10559   0.87154   0.75000   0.00000  Uiso   1.00
O916   O     0.20907   0.76580   0.97703   0.00000  Uiso   1.00
O917   O     0.12458   0.90074   0.97699   0.00000  Uiso   1.00
O918   O     0.12458   0.76575   0.52286   0.00000  Uiso   1.00
O919   O     0.22774   0.79513   0.75000   0.00000  Uiso   1.00
O920   O     0.22774   0.87154   0.75001   0.00000  Uiso   1.00
O921   O     0.10559   0.79513   0.75000   0.00000  Uiso   1.00
O922   O     0.16666   0.87155   0.68453   0.00000  Uiso   1.00
O923   O     0.16667   0.79511   0.81547   0.00000  Uiso   1.00
O924   O     0.16667   0.87155   0.81547   0.00000  Uiso   1.00
O925   O     0.16666   0.79511   0.68453   0.00000  Uiso   1.00
O926   O     0.20909   0.90073   0.52312   0.00000  Uiso   1.00
Zn927  Zn    0.16667   0.88437   0.75000   0.00000  Uiso   1.00
Zn928  Zn    0.16667   0.78229   0.75000   0.00000  Uiso   1.00
C929   C     0.41995   0.83333   0.74997   0.00000  Uiso   1.00
C930   C     0.64535   0.87375   0.74143   0.00000  Uiso   1.00
C931   C     0.64537   0.79293   0.75862   0.00000  Uiso   1.00
C932   C     0.35463   0.87374   0.74138   0.00000  Uiso   1.00
C933   C     0.52128   0.86787   0.54690   0.00000  Uiso   1.00
C934   C     0.52129   0.79868   0.95317   0.00000  Uiso   1.00
C935   C     0.47900   0.86790   0.95316   0.00000  Uiso   1.00
C936   C     0.47899   0.79863   0.54677   0.00000  Uiso   1.00
C937   C     0.52062   0.86791   0.59332   0.00000  Uiso   1.00
C938   C     0.52068   0.79870   0.90675   0.00000  Uiso   1.00
C939   C     0.47956   0.86793   0.90674   0.00000  Uiso   1.00
C940   C     0.58005   0.83334   0.75003   0.00000  Uiso   1.00
C941   C     0.47950   0.79867   0.59320   0.00000  Uiso   1.00
C942   C     0.50002   0.83331   0.61607   0.00000  Uiso   1.00
C943   C     0.50010   0.83333   0.88393   0.00000  Uiso   1.00
C944   C     0.50016   0.83324   0.52409   0.00000  Uiso   1.00
C945   C     0.50016   0.83327   0.97591   0.00000  Uiso   1.00
C946   C     0.62419   0.83334   0.75004   0.00000  Uiso   1.00
C947   C     0.37581   0.83332   0.74996   0.00000  Uiso   1.00
C948   C     0.49998   0.83333   0.66393   0.00000  Uiso   1.00
C949   C     0.50004   0.83333   0.83607   0.00000  Uiso   1.00
C950   C     0.52642   0.69067   0.77716   0.00000  Uiso   1.00
C951   C     0.47357   0.97600   0.72285   0.00000  Uiso   1.00
C952   C     0.47358   0.69065   0.72284   0.00000  Uiso   1.00
C953   C     0.52643   0.97602   0.77715   0.00000  Uiso   1.00
C954   C     0.35465   0.79292   0.75857   0.00000  Uiso   1.00
H955   H     0.37088   0.76151   0.76552   0.00000  Uiso   1.00
H956   H     0.55540   0.74420   0.95588   0.00000  Uiso   1.00
H957   H     0.44489   0.92237   0.95583   0.00000  Uiso   1.00
H958   H     0.44488   0.74415   0.54398   0.00000  Uiso   1.00
H959   H     0.53673   0.89430   0.61167   0.00000  Uiso   1.00
H960   H     0.53680   0.77234   0.88845   0.00000  Uiso   1.00
H961   H     0.46341   0.89431   0.88843   0.00000  Uiso   1.00
H962   H     0.46335   0.77230   0.61145   0.00000  Uiso   1.00
H963   H     0.62912   0.90515   0.73447   0.00000  Uiso   1.00
H964   H     0.62916   0.76153   0.76562   0.00000  Uiso   1.00
H965   H     0.37084   0.90514   0.73439   0.00000  Uiso   1.00
H966   H     0.54754   0.70887   0.79886   0.00000  Uiso   1.00
H967   H     0.45245   0.95780   0.70115   0.00000  Uiso   1.00
H968   H     0.45247   0.70884   0.70113   0.00000  Uiso   1.00
H969   H     0.54754   0.95783   0.79885   0.00000  Uiso   1.00
H970   H     0.55540   0.92236   0.54431   0.00000  Uiso   1.00
N971   N     0.50000   0.95240   0.75000   0.00000  Uiso   1.00
N972   N     0.50000   0.71427   0.75000   0.00000  Uiso   1.00
O973   O     0.43892   0.87154   0.75000   0.00000  Uiso   1.00
O974   O     0.54241   0.76580   0.97703   0.00000  Uiso   1.00
O975   O     0.45791   0.90074   0.97699   0.00000  Uiso   1.00
O976   O     0.45792   0.76575   0.52286   0.00000  Uiso   1.00
O977   O     0.56108   0.79513   0.75000   0.00000  Uiso   1.00
O978   O     0.56108   0.87154   0.75001   0.00000  Uiso   1.00
O979   O     0.43892   0.79513   0.75000   0.00000  Uiso   1.00
O980   O     0.50000   0.87155   0.68453   0.00000  Uiso   1.00
O981   O     0.50000   0.79511   0.81547   0.00000  Uiso   1.00
O982   O     0.50000   0.87155   0.81547   0.00000  Uiso   1.00
O983   O     0.50000   0.79511   0.68453   0.00000  Uiso   1.00
O984   O     0.54242   0.90073   0.52312   0.00000  Uiso   1.00
Zn985  Zn    0.50000   0.88437   0.75000   0.00000  Uiso   1.00
Zn986  Zn    0.50000   0.78229   0.75000   0.00000  Uiso   1.00
C987   C     0.75329   0.83333   0.74997   0.00000  Uiso   1.00
C988   C     0.97869   0.87375   0.74143   0.00000  Uiso   1.00
C989   C     0.97871   0.79293   0.75862   0.00000  Uiso   1.00
C990   C     0.68796   0.87374   0.74138   0.00000  Uiso   1.00
C991   C     0.85462   0.86787   0.54690   0.00000  Uiso   1.00
C992   C     0.85463   0.79868   0.95317   0.00000  Uiso   1.00
C993   C     0.81234   0.86790   0.95316   0.00000  Uiso   1.00
C994   C     0.81232   0.79863   0.54677   0.00000  Uiso   1.00
C995   C     0.85396   0.86791   0.59332   0.00000  Uiso   1.00
C996   C     0.85401   0.79870   0.90675   0.00000  Uiso   1.00
C997   C     0.81290   0.86793   0.90674   0.00000  Uiso   1.00
C998   C     0.91338   0.83334   0.75003   0.00000  Uiso   1.00
C999   C     0.81284   0.79867   0.59320   0.00000  Uiso   1.00
C1000  C     0.83336   0.83331   0.61607   0.00000  Uiso   1.00
C1001  C     0.83343   0.83333   0.88393   0.00000  Uiso   1.00
C1002  C     0.83350   0.83324   0.52409   0.00000  Uiso   1.00
C1003  C     0.83349   0.83327   0.97591   0.00000  Uiso   1.00
C1004  C     0.95753   0.83334   0.75004   0.00000  Uiso   1.00
C1005  C     0.70914   0.83332   0.74996   0.00000  Uiso   1.00
C1006  C     0.83332   0.83333   0.66393   0.00000  Uiso   1.00
C1007  C     0.83337   0.83333   0.83607   0.00000  Uiso   1.00
C1008  C     0.85976   0.69067   0.77716   0.00000  Uiso   1.00
C1009  C     0.80691   0.97600   0.72285   0.00000  Uiso   1.00
C1010  C     0.80691   0.69065   0.72284   0.00000  Uiso   1.00
C1011  C     0.85976   0.97602   0.77715   0.00000  Uiso   1.00
C1012  C     0.68798   0.79292   0.75857   0.00000  Uiso   1.00
H1013  H     0.70421   0.76151   0.76552   0.00000  Uiso   1.00
H1014  H     0.88874   0.74420   0.95588   0.00000  Uiso   1.00
H1015  H     0.77823   0.92237   0.95583   0.00000  Uiso   1.00
H1016  H     0.77822   0.74415   0.54398   0.00000  Uiso   1.00
H1017  H     0.87007   0.89430   0.61167   0.00000  Uiso   1.00
H1018  H     0.87013   0.77234   0.88845   0.00000  Uiso   1.00
H1019  H     0.79675   0.89431   0.88843   0.00000  Uiso   1.00
H1020  H     0.79668   0.77230   0.61145   0.00000  Uiso   1.00
H1021  H     0.96245   0.90515   0.73447   0.00000  Uiso   1.00
H1022  H     0.96249   0.76153   0.76562   0.00000  Uiso   1.00
H1023  H     0.70418   0.90514   0.73439   0.00000  Uiso   1.00
H1024  H     0.88087   0.70887   0.79886   0.00000  Uiso   1.00
H1025  H     0.78578   0.95780   0.70115   0.00000  Uiso   1.00
H1026  H     0.78580   0.70884   0.70113   0.00000  Uiso   1.00
H1027  H     0.88088   0.95783   0.79885   0.00000  Uiso   1.00
H1028  H     0.88873   0.92236   0.54431   0.00000  Uiso   1.00
N1029  N     0.83333   0.95240   0.75000   0.00000  Uiso   1.00
N1030  N     0.83333   0.71427   0.75000   0.00000  Uiso   1.00
O1031  O     0.77226   0.87154   0.75000   0.00000  Uiso   1.00
O1032  O     0.87574   0.76580   0.97703   0.00000  Uiso   1.00
O1033  O     0.79124   0.90074   0.97699   0.00000  Uiso   1.00
O1034  O     0.79125   0.76575   0.52286   0.00000  Uiso   1.00
O1035  O     0.89441   0.79513   0.75000   0.00000  Uiso   1.00
O1036  O     0.89441   0.87154   0.75001   0.00000  Uiso   1.00
O1037  O     0.77226   0.79513   0.75000   0.00000  Uiso   1.00
O1038  O     0.83333   0.87155   0.68453   0.00000  Uiso   1.00
O1039  O     0.83334   0.79511   0.81547   0.00000  Uiso   1.00
O1040  O     0.83334   0.87155   0.81547   0.00000  Uiso   1.00
O1041  O     0.83333   0.79511   0.68453   0.00000  Uiso   1.00
O1042  O     0.87575   0.90073   0.52312   0.00000  Uiso   1.00
Zn1043 Zn    0.83333   0.88437   0.75000   0.00000  Uiso   1.00
Zn1044 Zn    0.83333   0.78229   0.75000   0.00000  Uiso   1.00
loop_
_geom_bond_atom_site_label_1
_geom_bond_atom_site_label_2
_geom_bond_distance
_geom_bond_site_symmetry_2
_ccdc_geom_bond_type
C1     O45     1.282   .     A
C1     O51     1.282   .     A
C1     C19     1.419   .     S
C2     H35     1.084   .     S
C2     C18     1.397   .     A
C2     C62     1.370   .     S
C3     H36     1.084   .     S
C3     C18     1.397   .     A
C3     C84     1.370   .     S
C4     H37     1.084   .     S
C4     C19     1.397   .     A
C4     C118    1.370   1_455 S
C5     C9      1.391   .     A
C5     O56     1.383   .     S
C5     C16     1.404   .     A
C6     C10     1.391   .     A
C6     C17     1.404   .     A
C6     O46     1.383   .     S
C7     C11     1.391   .     A
C7     C17     1.404   .     A
C7     O47     1.383   .     S
C8     O48     1.383   .     S
C8     C13     1.391   .     A
C8     C16     1.404   .     A
C9     C14     1.396   .     A
C9     H31     1.084   .     S
C10    H32     1.084   .     S
C10    C15     1.396   .     A
C11    H33     1.084   .     S
C11    C15     1.396   .     A
C12    O50     1.282   .     A
C12    O49     1.282   .     A
C12    C18     1.419   .     S
C13    H34     1.084   .     S
C13    C14     1.396   .     A
C14    C20     1.434   .     S
C15    C21     1.434   .     S
C16    C539    1.444   1_554 S
C17    C538    1.444   .     S
C19    C26     1.397   .     A
C20    O55     1.286   .     A
C20    O52     1.286   .     A
C21    O53     1.286   .     A
C21    O54     1.286   .     A
C22    H38     1.082   .     S
C22    N44     1.366   .     A
C22    C373    1.416   1_545 S
C23    H39     1.082   .     S
C23    N43     1.366   .     A
C23    C198    1.416   .     S
C24    H40     1.082   .     S
C24    N44     1.366   .     A
C24    C371    1.416   1_545 S
C25    N43     1.366   .     A
C25    H41     1.082   .     S
C25    C196    1.416   .     S
C26    H27     1.084   .     S
C26    C119    1.370   1_455 S
H28    O46     0.992   .     S
H29    O47     0.992   .     S
H30    O48     0.992   .     S
H42    O56     0.992   .     S
N43    Zn57    2.007   .     S
N44    Zn58    2.007   .     S
O45    Zn57    2.000   .     S
O49    Zn58    2.000   .     S
O50    Zn57    2.000   .     S
O51    Zn58    2.000   .     S
O52    Zn57    1.998   .     S
O53    Zn58    1.998   .     S
O54    Zn57    1.998   .     S
O55    Zn58    1.998   .     S
C59    O103    1.282   .     A
C59    O109    1.282   .     A
C59    C77     1.419   .     S
C60    H93     1.084   .     S
C60    C76     1.397   .     A
C60    C120    1.370   .     S
C61    H94     1.084   .     S
C61    C76     1.397   .     A
C61    C142    1.370   .     S
C62    H95     1.084   .     S
C62    C77     1.397   .     A
C63    C67     1.391   .     A
C63    O114    1.383   .     S
C63    C74     1.404   .     A
C64    C68     1.391   .     A
C64    C75     1.404   .     A
C64    O104    1.383   .     S
C65    C69     1.391   .     A
C65    C75     1.404   .     A
C65    O105    1.383   .     S
C66    O106    1.383   .     S
C66    C71     1.391   .     A
C66    C74     1.404   .     A
C67    C72     1.396   .     A
C67    H89     1.084   .     S
C68    H90     1.084   .     S
C68    C73     1.396   .     A
C69    H91     1.084   .     S
C69    C73     1.396   .     A
C70    O108    1.282   .     A
C70    O107    1.282   .     A
C70    C76     1.419   .     S
C71    H92     1.084   .     S
C71    C72     1.396   .     A
C72    C78     1.434   .     S
C73    C79     1.434   .     S
C74    C597    1.444   1_554 S
C75    C596    1.444   .     S
C77    C84     1.397   .     A
C78    O113    1.286   .     A
C78    O110    1.286   .     A
C79    O111    1.286   .     A
C79    O112    1.286   .     A
C80    H96     1.082   .     S
C80    N102    1.366   .     A
C80    C431    1.416   1_545 S
C81    H97     1.082   .     S
C81    N101    1.366   .     A
C81    C256    1.416   .     S
C82    H98     1.082   .     S
C82    N102    1.366   .     A
C82    C429    1.416   1_545 S
C83    N101    1.366   .     A
C83    H99     1.082   .     S
C83    C254    1.416   .     S
C84    H85     1.084   .     S
H86    O104    0.992   .     S
H87    O105    0.992   .     S
H88    O106    0.992   .     S
H100   O114    0.992   .     S
N101   Zn115   2.007   .     S
N102   Zn116   2.007   .     S
O103   Zn115   2.000   .     S
O107   Zn116   2.000   .     S
O108   Zn115   2.000   .     S
O109   Zn116   2.000   .     S
O110   Zn115   1.998   .     S
O111   Zn116   1.998   .     S
O112   Zn115   1.998   .     S
O113   Zn116   1.998   .     S
C117   O161    1.282   .     A
C117   O167    1.282   .     A
C117   C135    1.419   .     S
C118   H151    1.084   .     S
C118   C134    1.397   .     A
C118   C4      1.370   1_655 S
C119   H152    1.084   .     S
C119   C134    1.397   .     A
C119   C26     1.370   1_655 S
C120   H153    1.084   .     S
C120   C135    1.397   .     A
C121   C125    1.391   .     A
C121   O172    1.383   .     S
C121   C132    1.404   .     A
C122   C126    1.391   .     A
C122   C133    1.404   .     A
C122   O162    1.383   .     S
C123   C127    1.391   .     A
C123   C133    1.404   .     A
C123   O163    1.383   .     S
C124   O164    1.383   .     S
C124   C129    1.391   .     A
C124   C132    1.404   .     A
C125   C130    1.396   .     A
C125   H147    1.084   .     S
C126   H148    1.084   .     S
C126   C131    1.396   .     A
C127   H149    1.084   .     S
C127   C131    1.396   .     A
C128   O166    1.282   .     A
C128   O165    1.282   .     A
C128   C134    1.419   .     S
C129   H150    1.084   .     S
C129   C130    1.396   .     A
C130   C136    1.434   .     S
C131   C137    1.434   .     S
C132   C655    1.444   1_554 S
C133   C654    1.444   .     S
C135   C142    1.397   .     A
C136   O171    1.286   .     A
C136   O168    1.286   .     A
C137   O169    1.286   .     A
C137   O170    1.286   .     A
C138   H154    1.082   .     S
C138   N160    1.366   .     A
C138   C489    1.416   1_545 S
C139   H155    1.082   .     S
C139   N159    1.366   .     A
C139   C314    1.416   .     S
C140   H156    1.082   .     S
C140   N160    1.366   .     A
C140   C487    1.416   1_545 S
C141   N159    1.366   .     A
C141   H157    1.082   .     S
C141   C312    1.416   .     S
C142   H143    1.084   .     S
H144   O162    0.992   .     S
H145   O163    0.992   .     S
H146   O164    0.992   .     S
H158   O172    0.992   .     S
N159   Zn173   2.007   .     S
N160   Zn174   2.007   .     S
O161   Zn173   2.000   .     S
O165   Zn174   2.000   .     S
O166   Zn173   2.000   .     S
O167   Zn174   2.000   .     S
O168   Zn173   1.998   .     S
O169   Zn174   1.998   .     S
O170   Zn173   1.998   .     S
O171   Zn174   1.998   .     S
C175   O219    1.282   .     A
C175   O225    1.282   .     A
C175   C193    1.419   .     S
C176   H209    1.084   .     S
C176   C192    1.397   .     A
C176   C236    1.370   .     S
C177   H210    1.084   .     S
C177   C192    1.397   .     A
C177   C258    1.370   .     S
C178   H211    1.084   .     S
C178   C193    1.397   .     A
C178   C292    1.370   1_455 S
C179   C183    1.391   .     A
C179   O230    1.383   .     S
C179   C190    1.404   .     A
C180   C184    1.391   .     A
C180   C191    1.404   .     A
C180   O220    1.383   .     S
C181   C185    1.391   .     A
C181   C191    1.404   .     A
C181   O221    1.383   .     S
C182   O222    1.383   .     S
C182   C187    1.391   .     A
C182   C190    1.404   .     A
C183   C188    1.396   .     A
C183   H205    1.084   .     S
C184   H206    1.084   .     S
C184   C189    1.396   .     A
C185   H207    1.084   .     S
C185   C189    1.396   .     A
C186   O224    1.282   .     A
C186   O223    1.282   .     A
C186   C192    1.419   .     S
C187   H208    1.084   .     S
C187   C188    1.396   .     A
C188   C194    1.434   .     S
C189   C195    1.434   .     S
C190   C713    1.444   1_554 S
C191   C712    1.444   .     S
C193   C200    1.397   .     A
C194   O229    1.286   .     A
C194   O226    1.286   .     A
C195   O227    1.286   .     A
C195   O228    1.286   .     A
C196   H212    1.082   .     S
C196   N218    1.366   .     A
C197   H213    1.082   .     S
C197   N217    1.366   .     A
C197   C372    1.416   .     S
C198   H214    1.082   .     S
C198   N218    1.366   .     A
C199   N217    1.366   .     A
C199   H215    1.082   .     S
C199   C370    1.416   .     S
C200   H201    1.084   .     S
C200   C293    1.370   1_455 S
H202   O220    0.992   .     S
H203   O221    0.992   .     S
H204   O222    0.992   .     S
H216   O230    0.992   .     S
N217   Zn231   2.007   .     S
N218   Zn232   2.007   .     S
O219   Zn231   2.000   .     S
O223   Zn232   2.000   .     S
O224   Zn231   2.000   .     S
O225   Zn232   2.000   .     S
O226   Zn231   1.998   .     S
O227   Zn232   1.998   .     S
O228   Zn231   1.998   .     S
O229   Zn232   1.998   .     S
C233   O277    1.282   .     A
C233   O283    1.282   .     A
C233   C251    1.419   .     S
C234   H267    1.084   .     S
C234   C250    1.397   .     A
C234   C294    1.370   .     S
C235   H268    1.084   .     S
C235   C250    1.397   .     A
C235   C316    1.370   .     S
C236   H269    1.084   .     S
C236   C251    1.397   .     A
C237   C241    1.391   .     A
C237   O288    1.383   .     S
C237   C248    1.404   .     A
C238   C242    1.391   .     A
C238   C249    1.404   .     A
C238   O278    1.383   .     S
C239   C243    1.391   .     A
C239   C249    1.404   .     A
C239   O279    1.383   .     S
C240   O280    1.383   .     S
C240   C245    1.391   .     A
C240   C248    1.404   .     A
C241   C246    1.396   .     A
C241   H263    1.084   .     S
C242   H264    1.084   .     S
C242   C247    1.396   .     A
C243   H265    1.084   .     S
C243   C247    1.396   .     A
C244   O282    1.282   .     A
C244   O281    1.282   .     A
C244   C250    1.419   .     S
C245   H266    1.084   .     S
C245   C246    1.396   .     A
C246   C252    1.434   .     S
C247   C253    1.434   .     S
C248   C771    1.444   1_554 S
C249   C770    1.444   .     S
C251   C258    1.397   .     A
C252   O287    1.286   .     A
C252   O284    1.286   .     A
C253   O285    1.286   .     A
C253   O286    1.286   .     A
C254   H270    1.082   .     S
C254   N276    1.366   .     A
C255   H271    1.082   .     S
C255   N275    1.366   .     A
C255   C430    1.416   .     S
C256   H272    1.082   .     S
C256   N276    1.366   .     A
C257   N275    1.366   .     A
C257   H273    1.082   .     S
C257   C428    1.416   .     S
C258   H259    1.084   .     S
H260   O278    0.992   .     S
H261   O279    0.992   .     S
H262   O280    0.992   .     S
H274   O288    0.992   .     S
N275   Zn289   2.007   .     S
N276   Zn290   2.007   .     S
O277   Zn289   2.000   .     S
O281   Zn290   2.000   .     S
O282   Zn289   2.000   .     S
O283   Zn290   2.000   .     S
O284   Zn289   1.998   .     S
O285   Zn290   1.998   .     S
O286   Zn289   1.998   .     S
O287   Zn290   1.998   .     S
C291   O335    1.282   .     A
C291   O341    1.282   .     A
C291   C309    1.419   .     S
C292   H325    1.084   .     S
C292   C308    1.397   .     A
C292   C178    1.370   1_655 S
C293   H326    1.084   .     S
C293   C308    1.397   .     A
C293   C200    1.370   1_655 S
C294   H327    1.084   .     S
C294   C309    1.397   .     A
C295   C299    1.391   .     A
C295   O346    1.383   .     S
C295   C306    1.404   .     A
C296   C300    1.391   .     A
C296   C307    1.404   .     A
C296   O336    1.383   .     S
C297   C301    1.391   .     A
C297   C307    1.404   .     A
C297   O337    1.383   .     S
C298   O338    1.383   .     S
C298   C303    1.391   .     A
C298   C306    1.404   .     A
C299   C304    1.396   .     A
C299   H321    1.084   .     S
C300   H322    1.084   .     S
C300   C305    1.396   .     A
C301   H323    1.084   .     S
C301   C305    1.396   .     A
C302   O340    1.282   .     A
C302   O339    1.282   .     A
C302   C308    1.419   .     S
C303   H324    1.084   .     S
C303   C304    1.396   .     A
C304   C310    1.434   .     S
C305   C311    1.434   .     S
C306   C829    1.444   1_554 S
C307   C828    1.444   .     S
C309   C316    1.397   .     A
C310   O345    1.286   .     A
C310   O342    1.286   .     A
C311   O343    1.286   .     A
C311   O344    1.286   .     A
C312   H328    1.082   .     S
C312   N334    1.366   .     A
C313   H329    1.082   .     S
C313   N333    1.366   .     A
C313   C488    1.416   .     S
C314   H330    1.082   .     S
C314   N334    1.366   .     A
C315   N333    1.366   .     A
C315   H331    1.082   .     S
C315   C486    1.416   .     S
C316   H317    1.084   .     S
H318   O336    0.992   .     S
H319   O337    0.992   .     S
H320   O338    0.992   .     S
H332   O346    0.992   .     S
N333   Zn347   2.007   .     S
N334   Zn348   2.007   .     S
O335   Zn347   2.000   .     S
O339   Zn348   2.000   .     S
O340   Zn347   2.000   .     S
O341   Zn348   2.000   .     S
O342   Zn347   1.998   .     S
O343   Zn348   1.998   .     S
O344   Zn347   1.998   .     S
O345   Zn348   1.998   .     S
C349   O393    1.282   .     A
C349   O399    1.282   .     A
C349   C367    1.419   .     S
C350   H383    1.084   .     S
C350   C366    1.397   .     A
C350   C410    1.370   .     S
C351   H384    1.084   .     S
C351   C366    1.397   .     A
C351   C432    1.370   .     S
C352   H385    1.084   .     S
C352   C367    1.397   .     A
C352   C466    1.370   1_455 S
C353   C357    1.391   .     A
C353   O404    1.383   .     S
C353   C364    1.404   .     A
C354   C358    1.391   .     A
C354   C365    1.404   .     A
C354   O394    1.383   .     S
C355   C359    1.391   .     A
C355   C365    1.404   .     A
C355   O395    1.383   .     S
C356   O396    1.383   .     S
C356   C361    1.391   .     A
C356   C364    1.404   .     A
C357   C362    1.396   .     A
C357   H379    1.084   .     S
C358   H380    1.084   .     S
C358   C363    1.396   .     A
C359   H381    1.084   .     S
C359   C363    1.396   .     A
C360   O398    1.282   .     A
C360   O397    1.282   .     A
C360   C366    1.419   .     S
C361   H382    1.084   .     S
C361   C362    1.396   .     A
C362   C368    1.434   .     S
C363   C369    1.434   .     S
C364   C887    1.444   1_554 S
C365   C886    1.444   .     S
C367   C374    1.397   .     A
C368   O403    1.286   .     A
C368   O400    1.286   .     A
C369   O401    1.286   .     A
C369   O402    1.286   .     A
C370   H386    1.082   .     S
C370   N392    1.366   .     A
C371   H387    1.082   .     S
C371   N391    1.366   .     A
C371   C24     1.416   1_565 S
C372   H388    1.082   .     S
C372   N392    1.366   .     A
C373   N391    1.366   .     A
C373   H389    1.082   .     S
C373   C22     1.416   1_565 S
C374   H375    1.084   .     S
C374   C467    1.370   1_455 S
H376   O394    0.992   .     S
H377   O395    0.992   .     S
H378   O396    0.992   .     S
H390   O404    0.992   .     S
N391   Zn405   2.007   .     S
N392   Zn406   2.007   .     S
O393   Zn405   2.000   .     S
O397   Zn406   2.000   .     S
O398   Zn405   2.000   .     S
O399   Zn406   2.000   .     S
O400   Zn405   1.998   .     S
O401   Zn406   1.998   .     S
O402   Zn405   1.998   .     S
O403   Zn406   1.998   .     S
C407   O451    1.282   .     A
C407   O457    1.282   .     A
C407   C425    1.419   .     S
C408   H441    1.084   .     S
C408   C424    1.397   .     A
C408   C468    1.370   .     S
C409   H442    1.084   .     S
C409   C424    1.397   .     A
C409   C490    1.370   .     S
C410   H443    1.084   .     S
C410   C425    1.397   .     A
C411   C415    1.391   .     A
C411   O462    1.383   .     S
C411   C422    1.404   .     A
C412   C416    1.391   .     A
C412   C423    1.404   .     A
C412   O452    1.383   .     S
C413   C417    1.391   .     A
C413   C423    1.404   .     A
C413   O453    1.383   .     S
C414   O454    1.383   .     S
C414   C419    1.391   .     A
C414   C422    1.404   .     A
C415   C420    1.396   .     A
C415   H437    1.084   .     S
C416   H438    1.084   .     S
C416   C421    1.396   .     A
C417   H439    1.084   .     S
C417   C421    1.396   .     A
C418   O456    1.282   .     A
C418   O455    1.282   .     A
C418   C424    1.419   .     S
C419   H440    1.084   .     S
C419   C420    1.396   .     A
C420   C426    1.434   .     S
C421   C427    1.434   .     S
C422   C945    1.444   1_554 S
C423   C944    1.444   .     S
C425   C432    1.397   .     A
C426   O461    1.286   .     A
C426   O458    1.286   .     A
C427   O459    1.286   .     A
C427   O460    1.286   .     A
C428   H444    1.082   .     S
C428   N450    1.366   .     A
C429   H445    1.082   .     S
C429   N449    1.366   .     A
C429   C82     1.416   1_565 S
C430   H446    1.082   .     S
C430   N450    1.366   .     A
C431   N449    1.366   .     A
C431   H447    1.082   .     S
C431   C80     1.416   1_565 S
C432   H433    1.084   .     S
H434   O452    0.992   .     S
H435   O453    0.992   .     S
H436   O454    0.992   .     S
H448   O462    0.992   .     S
N449   Zn463   2.007   .     S
N450   Zn464   2.007   .     S
O451   Zn463   2.000   .     S
O455   Zn464   2.000   .     S
O456   Zn463   2.000   .     S
O457   Zn464   2.000   .     S
O458   Zn463   1.998   .     S
O459   Zn464   1.998   .     S
O460   Zn463   1.998   .     S
O461   Zn464   1.998   .     S
C465   O509    1.282   .     A
C465   O515    1.282   .     A
C465   C483    1.419   .     S
C466   H499    1.084   .     S
C466   C482    1.397   .     A
C466   C352    1.370   1_655 S
C467   H500    1.084   .     S
C467   C482    1.397   .     A
C467   C374    1.370   1_655 S
C468   H501    1.084   .     S
C468   C483    1.397   .     A
C469   C473    1.391   .     A
C469   O520    1.383   .     S
C469   C480    1.404   .     A
C470   C474    1.391   .     A
C470   C481    1.404   .     A
C470   O510    1.383   .     S
C471   C475    1.391   .     A
C471   C481    1.404   .     A
C471   O511    1.383   .     S
C472   O512    1.383   .     S
C472   C477    1.391   .     A
C472   C480    1.404   .     A
C473   C478    1.396   .     A
C473   H495    1.084   .     S
C474   H496    1.084   .     S
C474   C479    1.396   .     A
C475   H497    1.084   .     S
C475   C479    1.396   .     A
C476   O514    1.282   .     A
C476   O513    1.282   .     A
C476   C482    1.419   .     S
C477   H498    1.084   .     S
C477   C478    1.396   .     A
C478   C484    1.434   .     S
C479   C485    1.434   .     S
C480   C1003   1.444   1_554 S
C481   C1002   1.444   .     S
C483   C490    1.397   .     A
C484   O519    1.286   .     A
C484   O516    1.286   .     A
C485   O517    1.286   .     A
C485   O518    1.286   .     A
C486   H502    1.082   .     S
C486   N508    1.366   .     A
C487   H503    1.082   .     S
C487   N507    1.366   .     A
C487   C140    1.416   1_565 S
C488   H504    1.082   .     S
C488   N508    1.366   .     A
C489   N507    1.366   .     A
C489   H505    1.082   .     S
C489   C138    1.416   1_565 S
C490   H491    1.084   .     S
H492   O510    0.992   .     S
H493   O511    0.992   .     S
H494   O512    0.992   .     S
H506   O520    0.992   .     S
N507   Zn521   2.007   .     S
N508   Zn522   2.007   .     S
O509   Zn521   2.000   .     S
O513   Zn522   2.000   .     S
O514   Zn521   2.000   .     S
O515   Zn522   2.000   .     S
O516   Zn521   1.998   .     S
O517   Zn522   1.998   .     S
O518   Zn521   1.998   .     S
O519   Zn522   1.998   .     S
C523   O567    1.282   .     A
C523   O573    1.282   .     A
C523   C541    1.419   .     S
C524   H557    1.084   .     S
C524   C540    1.397   .     A
C524   C584    1.370   .     S
C525   H558    1.084   .     S
C525   C540    1.397   .     A
C525   C606    1.370   .     S
C526   H559    1.084   .     S
C526   C541    1.397   .     A
C526   C640    1.370   1_455 S
C527   C531    1.391   .     A
C527   O578    1.383   .     S
C527   C538    1.404   .     A
C528   C532    1.391   .     A
C528   C539    1.404   .     A
C528   O568    1.383   .     S
C529   C533    1.391   .     A
C529   C539    1.404   .     A
C529   O569    1.383   .     S
C530   O570    1.383   .     S
C530   C535    1.391   .     A
C530   C538    1.404   .     A
C531   C536    1.396   .     A
C531   H553    1.084   .     S
C532   H554    1.084   .     S
C532   C537    1.396   .     A
C533   H555    1.084   .     S
C533   C537    1.396   .     A
C534   O572    1.282   .     A
C534   O571    1.282   .     A
C534   C540    1.419   .     S
C535   H556    1.084   .     S
C535   C536    1.396   .     A
C536   C542    1.434   .     S
C537   C543    1.434   .     S
C539   C16     1.444   1_556 S
C541   C548    1.397   .     A
C542   O577    1.286   .     A
C542   O574    1.286   .     A
C543   O575    1.286   .     A
C543   O576    1.286   .     A
C544   H560    1.082   .     S
C544   N566    1.366   .     A
C544   C895    1.416   1_545 S
C545   H561    1.082   .     S
C545   N565    1.366   .     A
C545   C720    1.416   .     S
C546   H562    1.082   .     S
C546   N566    1.366   .     A
C546   C893    1.416   1_545 S
C547   N565    1.366   .     A
C547   H563    1.082   .     S
C547   C718    1.416   .     S
C548   H549    1.084   .     S
C548   C641    1.370   1_455 S
H550   O568    0.992   .     S
H551   O569    0.992   .     S
H552   O570    0.992   .     S
H564   O578    0.992   .     S
N565   Zn579   2.007   .     S
N566   Zn580   2.007   .     S
O567   Zn579   2.000   .     S
O571   Zn580   2.000   .     S
O572   Zn579   2.000   .     S
O573   Zn580   2.000   .     S
O574   Zn579   1.998   .     S
O575   Zn580   1.998   .     S
O576   Zn579   1.998   .     S
O577   Zn580   1.998   .     S
C581   O625    1.282   .     A
C581   O631    1.282   .     A
C581   C599    1.419   .     S
C582   H615    1.084   .     S
C582   C598    1.397   .     A
C582   C642    1.370   .     S
C583   H616    1.084   .     S
C583   C598    1.397   .     A
C583   C664    1.370   .     S
C584   H617    1.084   .     S
C584   C599    1.397   .     A
C585   C589    1.391   .     A
C585   O636    1.383   .     S
C585   C596    1.404   .     A
C586   C590    1.391   .     A
C586   C597    1.404   .     A
C586   O626    1.383   .     S
C587   C591    1.391   .     A
C587   C597    1.404   .     A
C587   O627    1.383   .     S
C588   O628    1.383   .     S
C588   C593    1.391   .     A
C588   C596    1.404   .     A
C589   C594    1.396   .     A
C589   H611    1.084   .     S
C590   H612    1.084   .     S
C590   C595    1.396   .     A
C591   H613    1.084   .     S
C591   C595    1.396   .     A
C592   O630    1.282   .     A
C592   O629    1.282   .     A
C592   C598    1.419   .     S
C593   H614    1.084   .     S
C593   C594    1.396   .     A
C594   C600    1.434   .     S
C595   C601    1.434   .     S
C597   C74     1.444   1_556 S
C599   C606    1.397   .     A
C600   O635    1.286   .     A
C600   O632    1.286   .     A
C601   O633    1.286   .     A
C601   O634    1.286   .     A
C602   H618    1.082   .     S
C602   N624    1.366   .     A
C602   C953    1.416   1_545 S
C603   H619    1.082   .     S
C603   N623    1.366   .     A
C603   C778    1.416   .     S
C604   H620    1.082   .     S
C604   N624    1.366   .     A
C604   C951    1.416   1_545 S
C605   N623    1.366   .     A
C605   H621    1.082   .     S
C605   C776    1.416   .     S
C606   H607    1.084   .     S
H608   O626    0.992   .     S
H609   O627    0.992   .     S
H610   O628    0.992   .     S
H622   O636    0.992   .     S
N623   Zn637   2.007   .     S
N624   Zn638   2.007   .     S
O625   Zn637   2.000   .     S
O629   Zn638   2.000   .     S
O630   Zn637   2.000   .     S
O631   Zn638   2.000   .     S
O632   Zn637   1.998   .     S
O633   Zn638   1.998   .     S
O634   Zn637   1.998   .     S
O635   Zn638   1.998   .     S
C639   O683    1.282   .     A
C639   O689    1.282   .     A
C639   C657    1.419   .     S
C640   H673    1.084   .     S
C640   C656    1.397   .     A
C640   C526    1.370   1_655 S
C641   H674    1.084   .     S
C641   C656    1.397   .     A
C641   C548    1.370   1_655 S
C642   H675    1.084   .     S
C642   C657    1.397   .     A
C643   C647    1.391   .     A
C643   O694    1.383   .     S
C643   C654    1.404   .     A
C644   C648    1.391   .     A
C644   C655    1.404   .     A
C644   O684    1.383   .     S
C645   C649    1.391   .     A
C645   C655    1.404   .     A
C645   O685    1.383   .     S
C646   O686    1.383   .     S
C646   C651    1.391   .     A
C646   C654    1.404   .     A
C647   C652    1.396   .     A
C647   H669    1.084   .     S
C648   H670    1.084   .     S
C648   C653    1.396   .     A
C649   H671    1.084   .     S
C649   C653    1.396   .     A
C650   O688    1.282   .     A
C650   O687    1.282   .     A
C650   C656    1.419   .     S
C651   H672    1.084   .     S
C651   C652    1.396   .     A
C652   C658    1.434   .     S
C653   C659    1.434   .     S
C655   C132    1.444   1_556 S
C657   C664    1.397   .     A
C658   O693    1.286   .     A
C658   O690    1.286   .     A
C659   O691    1.286   .     A
C659   O692    1.286   .     A
C660   H676    1.082   .     S
C660   N682    1.366   .     A
C660   C1011   1.416   1_545 S
C661   H677    1.082   .     S
C661   N681    1.366   .     A
C661   C836    1.416   .     S
C662   H678    1.082   .     S
C662   N682    1.366   .     A
C662   C1009   1.416   1_545 S
C663   N681    1.366   .     A
C663   H679    1.082   .     S
C663   C834    1.416   .     S
C664   H665    1.084   .     S
H666   O684    0.992   .     S
H667   O685    0.992   .     S
H668   O686    0.992   .     S
H680   O694    0.992   .     S
N681   Zn695   2.007   .     S
N682   Zn696   2.007   .     S
O683   Zn695   2.000   .     S
O687   Zn696   2.000   .     S
O688   Zn695   2.000   .     S
O689   Zn696   2.000   .     S
O690   Zn695   1.998   .     S
O691   Zn696   1.998   .     S
O692   Zn695   1.998   .     S
O693   Zn696   1.998   .     S
C697   O741    1.282   .     A
C697   O747    1.282   .     A
C697   C715    1.419   .     S
C698   H731    1.084   .     S
C698   C714    1.397   .     A
C698   C758    1.370   .     S
C699   H732    1.084   .     S
C699   C714    1.397   .     A
C699   C780    1.370   .     S
C700   H733    1.084   .     S
C700   C715    1.397   .     A
C700   C814    1.370   1_455 S
C701   C705    1.391   .     A
C701   O752    1.383   .     S
C701   C712    1.404   .     A
C702   C706    1.391   .     A
C702   C713    1.404   .     A
C702   O742    1.383   .     S
C703   C707    1.391   .     A
C703   C713    1.404   .     A
C703   O743    1.383   .     S
C704   O744    1.383   .     S
C704   C709    1.391   .     A
C704   C712    1.404   .     A
C705   C710    1.396   .     A
C705   H727    1.084   .     S
C706   H728    1.084   .     S
C706   C711    1.396   .     A
C707   H729    1.084   .     S
C707   C711    1.396   .     A
C708   O746    1.282   .     A
C708   O745    1.282   .     A
C708   C714    1.419   .     S
C709   H730    1.084   .     S
C709   C710    1.396   .     A
C710   C716    1.434   .     S
C711   C717    1.434   .     S
C713   C190    1.444   1_556 S
C715   C722    1.397   .     A
C716   O751    1.286   .     A
C716   O748    1.286   .     A
C717   O749    1.286   .     A
C717   O750    1.286   .     A
C718   H734    1.082   .     S
C718   N740    1.366   .     A
C719   H735    1.082   .     S
C719   N739    1.366   .     A
C719   C894    1.416   .     S
C720   H736    1.082   .     S
C720   N740    1.366   .     A
C721   N739    1.366   .     A
C721   H737    1.082   .     S
C721   C892    1.416   .     S
C722   H723    1.084   .     S
C722   C815    1.370   1_455 S
H724   O742    0.992   .     S
H725   O743    0.992   .     S
H726   O744    0.992   .     S
H738   O752    0.992   .     S
N739   Zn753   2.007   .     S
N740   Zn754   2.007   .     S
O741   Zn753   2.000   .     S
O745   Zn754   2.000   .     S
O746   Zn753   2.000   .     S
O747   Zn754   2.000   .     S
O748   Zn753   1.998   .     S
O749   Zn754   1.998   .     S
O750   Zn753   1.998   .     S
O751   Zn754   1.998   .     S
C755   O799    1.282   .     A
C755   O805    1.282   .     A
C755   C773    1.419   .     S
C756   H789    1.084   .     S
C756   C772    1.397   .     A
C756   C816    1.370   .     S
C757   H790    1.084   .     S
C757   C772    1.397   .     A
C757   C838    1.370   .     S
C758   H791    1.084   .     S
C758   C773    1.397   .     A
C759   C763    1.391   .     A
C759   O810    1.383   .     S
C759   C770    1.404   .     A
C760   C764    1.391   .     A
C760   C771    1.404   .     A
C760   O800    1.383   .     S
C761   C765    1.391   .     A
C761   C771    1.404   .     A
C761   O801    1.383   .     S
C762   O802    1.383   .     S
C762   C767    1.391   .     A
C762   C770    1.404   .     A
C763   C768    1.396   .     A
C763   H785    1.084   .     S
C764   H786    1.084   .     S
C764   C769    1.396   .     A
C765   H787    1.084   .     S
C765   C769    1.396   .     A
C766   O804    1.282   .     A
C766   O803    1.282   .     A
C766   C772    1.419   .     S
C767   H788    1.084   .     S
C767   C768    1.396   .     A
C768   C774    1.434   .     S
C769   C775    1.434   .     S
C771   C248    1.444   1_556 S
C773   C780    1.397   .     A
C774   O809    1.286   .     A
C774   O806    1.286   .     A
C775   O807    1.286   .     A
C775   O808    1.286   .     A
C776   H792    1.082   .     S
C776   N798    1.366   .     A
C777   H793    1.082   .     S
C777   N797    1.366   .     A
C777   C952    1.416   .     S
C778   H794    1.082   .     S
C778   N798    1.366   .     A
C779   N797    1.366   .     A
C779   H795    1.082   .     S
C779   C950    1.416   .     S
C780   H781    1.084   .     S
H782   O800    0.992   .     S
H783   O801    0.992   .     S
H784   O802    0.992   .     S
H796   O810    0.992   .     S
N797   Zn811   2.007   .     S
N798   Zn812   2.007   .     S
O799   Zn811   2.000   .     S
O803   Zn812   2.000   .     S
O804   Zn811   2.000   .     S
O805   Zn812   2.000   .     S
O806   Zn811   1.998   .     S
O807   Zn812   1.998   .     S
O808   Zn811   1.998   .     S
O809   Zn812   1.998   .     S
C813   O857    1.282   .     A
C813   O863    1.282   .     A
C813   C831    1.419   .     S
C814   H847    1.084   .     S
C814   C830    1.397   .     A
C814   C700    1.370   1_655 S
C815   H848    1.084   .     S
C815   C830    1.397   .     A
C815   C722    1.370   1_655 S
C816   H849    1.084   .     S
C816   C831    1.397   .     A
C817   C821    1.391   .     A
C817   O868    1.383   .     S
C817   C828    1.404   .     A
C818   C822    1.391   .     A
C818   C829    1.404   .     A
C818   O858    1.383   .     S
C819   C823    1.391   .     A
C819   C829    1.404   .     A
C819   O859    1.383   .     S
C820   O860    1.383   .     S
C820   C825    1.391   .     A
C820   C828    1.404   .     A
C821   C826    1.396   .     A
C821   H843    1.084   .     S
C822   H844    1.084   .     S
C822   C827    1.396   .     A
C823   H845    1.084   .     S
C823   C827    1.396   .     A
C824   O862    1.282   .     A
C824   O861    1.282   .     A
C824   C830    1.419   .     S
C825   H846    1.084   .     S
C825   C826    1.396   .     A
C826   C832    1.434   .     S
C827   C833    1.434   .     S
C829   C306    1.444   1_556 S
C831   C838    1.397   .     A
C832   O867    1.286   .     A
C832   O864    1.286   .     A
C833   O865    1.286   .     A
C833   O866    1.286   .     A
C834   H850    1.082   .     S
C834   N856    1.366   .     A
C835   H851    1.082   .     S
C835   N855    1.366   .     A
C835   C1010   1.416   .     S
C836   H852    1.082   .     S
C836   N856    1.366   .     A
C837   N855    1.366   .     A
C837   H853    1.082   .     S
C837   C1008   1.416   .     S
C838   H839    1.084   .     S
H840   O858    0.992   .     S
H841   O859    0.992   .     S
H842   O860    0.992   .     S
H854   O868    0.992   .     S
N855   Zn869   2.007   .     S
N856   Zn870   2.007   .     S
O857   Zn869   2.000   .     S
O861   Zn870   2.000   .     S
O862   Zn869   2.000   .     S
O863   Zn870   2.000   .     S
O864   Zn869   1.998   .     S
O865   Zn870   1.998   .     S
O866   Zn869   1.998   .     S
O867   Zn870   1.998   .     S
C871   O915    1.282   .     A
C871   O921    1.282   .     A
C871   C889    1.419   .     S
C872   H905    1.084   .     S
C872   C888    1.397   .     A
C872   C932    1.370   .     S
C873   H906    1.084   .     S
C873   C888    1.397   .     A
C873   C954    1.370   .     S
C874   H907    1.084   .     S
C874   C889    1.397   .     A
C874   C988    1.370   1_455 S
C875   C879    1.391   .     A
C875   O926    1.383   .     S
C875   C886    1.404   .     A
C876   C880    1.391   .     A
C876   C887    1.404   .     A
C876   O916    1.383   .     S
C877   C881    1.391   .     A
C877   C887    1.404   .     A
C877   O917    1.383   .     S
C878   O918    1.383   .     S
C878   C883    1.391   .     A
C878   C886    1.404   .     A
C879   C884    1.396   .     A
C879   H901    1.084   .     S
C880   H902    1.084   .     S
C880   C885    1.396   .     A
C881   H903    1.084   .     S
C881   C885    1.396   .     A
C882   O920    1.282   .     A
C882   O919    1.282   .     A
C882   C888    1.419   .     S
C883   H904    1.084   .     S
C883   C884    1.396   .     A
C884   C890    1.434   .     S
C885   C891    1.434   .     S
C887   C364    1.444   1_556 S
C889   C896    1.397   .     A
C890   O925    1.286   .     A
C890   O922    1.286   .     A
C891   O923    1.286   .     A
C891   O924    1.286   .     A
C892   H908    1.082   .     S
C892   N914    1.366   .     A
C893   H909    1.082   .     S
C893   N913    1.366   .     A
C893   C546    1.416   1_565 S
C894   H910    1.082   .     S
C894   N914    1.366   .     A
C895   N913    1.366   .     A
C895   H911    1.082   .     S
C895   C544    1.416   1_565 S
C896   H897    1.084   .     S
C896   C989    1.370   1_455 S
H898   O916    0.992   .     S
H899   O917    0.992   .     S
H900   O918    0.992   .     S
H912   O926    0.992   .     S
N913   Zn927   2.007   .     S
N914   Zn928   2.007   .     S
O915   Zn927   2.000   .     S
O919   Zn928   2.000   .     S
O920   Zn927   2.000   .     S
O921   Zn928   2.000   .     S
O922   Zn927   1.998   .     S
O923   Zn928   1.998   .     S
O924   Zn927   1.998   .     S
O925   Zn928   1.998   .     S
C929   O973    1.282   .     A
C929   O979    1.282   .     A
C929   C947    1.419   .     S
C930   H963    1.084   .     S
C930   C946    1.397   .     A
C930   C990    1.370   .     S
C931   H964    1.084   .     S
C931   C946    1.397   .     A
C931   C1012   1.370   .     S
C932   H965    1.084   .     S
C932   C947    1.397   .     A
C933   C937    1.391   .     A
C933   O984    1.383   .     S
C933   C944    1.404   .     A
C934   C938    1.391   .     A
C934   C945    1.404   .     A
C934   O974    1.383   .     S
C935   C939    1.391   .     A
C935   C945    1.404   .     A
C935   O975    1.383   .     S
C936   O976    1.383   .     S
C936   C941    1.391   .     A
C936   C944    1.404   .     A
C937   C942    1.396   .     A
C937   H959    1.084   .     S
C938   H960    1.084   .     S
C938   C943    1.396   .     A
C939   H961    1.084   .     S
C939   C943    1.396   .     A
C940   O978    1.282   .     A
C940   O977    1.282   .     A
C940   C946    1.419   .     S
C941   H962    1.084   .     S
C941   C942    1.396   .     A
C942   C948    1.434   .     S
C943   C949    1.434   .     S
C945   C422    1.444   1_556 S
C947   C954    1.397   .     A
C948   O983    1.286   .     A
C948   O980    1.286   .     A
C949   O981    1.286   .     A
C949   O982    1.286   .     A
C950   H966    1.082   .     S
C950   N972    1.366   .     A
C951   H967    1.082   .     S
C951   N971    1.366   .     A
C951   C604    1.416   1_565 S
C952   H968    1.082   .     S
C952   N972    1.366   .     A
C953   N971    1.366   .     A
C953   H969    1.082   .     S
C953   C602    1.416   1_565 S
C954   H955    1.084   .     S
H956   O974    0.992   .     S
H957   O975    0.992   .     S
H958   O976    0.992   .     S
H970   O984    0.992   .     S
N971   Zn985   2.007   .     S
N972   Zn986   2.007   .     S
O973   Zn985   2.000   .     S
O977   Zn986   2.000   .     S
O978   Zn985   2.000   .     S
O979   Zn986   2.000   .     S
O980   Zn985   1.998   .     S
O981   Zn986   1.998   .     S
O982   Zn985   1.998   .     S
O983   Zn986   1.998   .     S
C987   O1031   1.282   .     A
C987   O1037   1.282   .     A
C987   C1005   1.419   .     S
C988   H1021   1.084   .     S
C988   C1004   1.397   .     A
C988   C874    1.370   1_655 S
C989   H1022   1.084   .     S
C989   C1004   1.397   .     A
C989   C896    1.370   1_655 S
C990   H1023   1.084   .     S
C990   C1005   1.397   .     A
C991   C995    1.391   .     A
C991   O1042   1.383   .     S
C991   C1002   1.404   .     A
C992   C996    1.391   .     A
C992   C1003   1.404   .     A
C992   O1032   1.383   .     S
C993   C997    1.391   .     A
C993   C1003   1.404   .     A
C993   O1033   1.383   .     S
C994   O1034   1.383   .     S
C994   C999    1.391   .     A
C994   C1002   1.404   .     A
C995   C1000   1.396   .     A
C995   H1017   1.084   .     S
C996   H1018   1.084   .     S
C996   C1001   1.396   .     A
C997   H1019   1.084   .     S
C997   C1001   1.396   .     A
C998   O1036   1.282   .     A
C998   O1035   1.282   .     A
C998   C1004   1.419   .     S
C999   H1020   1.084   .     S
C999   C1000   1.396   .     A
C1000  C1006   1.434   .     S
C1001  C1007   1.434   .     S
C1003  C480    1.444   1_556 S
C1005  C1012   1.397   .     A
C1006  O1041   1.286   .     A
C1006  O1038   1.286   .     A
C1007  O1039   1.286   .     A
C1007  O1040   1.286   .     A
C1008  H1024   1.082   .     S
C1008  N1030   1.366   .     A
C1009  H1025   1.082   .     S
C1009  N1029   1.366   .     A
C1009  C662    1.416   1_565 S
C1010  H1026   1.082   .     S
C1010  N1030   1.366   .     A
C1011  N1029   1.366   .     A
C1011  H1027   1.082   .     S
C1011  C660    1.416   1_565 S
C1012  H1013   1.084   .     S
H1014  O1032   0.992   .     S
H1015  O1033   0.992   .     S
H1016  O1034   0.992   .     S
H1028  O1042   0.992   .     S
N1029  Zn1043  2.007   .     S
N1030  Zn1044  2.007   .     S
O1031  Zn1043  2.000   .     S
O1035  Zn1044  2.000   .     S
O1036  Zn1043  2.000   .     S
O1037  Zn1044  2.000   .     S
O1038  Zn1043  1.998   .     S
O1039  Zn1044  1.998   .     S
O1040  Zn1043  1.998   .     S
O1041  Zn1044  1.998   .     S
