data_str_m3_o1_o1_pcu_sym.2
_audit_creation_date              2020-01-03
_audit_creation_method            'Materials Studio'
_symmetry_space_group_name_H-M    'P1'
_symmetry_Int_Tables_number       1
_symmetry_cell_setting            triclinic
loop_
_symmetry_equiv_pos_as_xyz
  x,y,z
_cell_length_a                    30.7134
_cell_length_b                    30.0769
_cell_length_c                    29.4775
_cell_angle_alpha                 92.2918
_cell_angle_beta                  90.0004
_cell_angle_gamma                 90.0001
loop_
_atom_site_label
_atom_site_type_symbol
_atom_site_fract_x
_atom_site_fract_y
_atom_site_fract_z
_atom_site_U_iso_or_equiv
_atom_site_adp_type
_atom_site_occupancy
C1     C     0.06248   0.19242   0.16627   0.00000  Uiso   1.00
C2     C     0.00433   0.21135   0.30790   0.00000  Uiso   1.00
C3     C     0.00327   0.21119   0.02240   0.00000  Uiso   1.00
C4     C     0.49858   0.28896   0.31104   0.00000  Uiso   1.00
C5     C     0.25433   0.03865   0.02544   0.00000  Uiso   1.00
C6     C     0.24819   0.46096   0.30768   0.00000  Uiso   1.00
C7     C     0.24857   0.46104   0.02229   0.00000  Uiso   1.00
C8     C     0.25328   0.03881   0.31093   0.00000  Uiso   1.00
C9     C     0.39867   0.12897   0.12238   0.00000  Uiso   1.00
C10    C     0.08729   0.38220   0.19757   0.00000  Uiso   1.00
C11    C     0.12512   0.34128   0.13581   0.00000  Uiso   1.00
C12    C     0.43820   0.30829   0.16747   0.00000  Uiso   1.00
C13    C     0.40861   0.12557   0.20388   0.00000  Uiso   1.00
C14    C     0.12195   0.15810   0.20844   0.00000  Uiso   1.00
C15    C     0.36932   0.33503   0.13587   0.00000  Uiso   1.00
C16    C     0.39974   0.37144   0.20449   0.00000  Uiso   1.00
C17    C     0.12143   0.14966   0.12583   0.00000  Uiso   1.00
C18    C     0.14974   0.37856   0.12885   0.00000  Uiso   1.00
C19    C     0.37143   0.10034   0.20751   0.00000  Uiso   1.00
C20    C     0.37194   0.09191   0.12489   0.00000  Uiso   1.00
C21    C     0.11932   0.41497   0.19747   0.00000  Uiso   1.00
C22    C     0.37512   0.40872   0.19753   0.00000  Uiso   1.00
C23    C     0.44250   0.18721   0.16569   0.00000  Uiso   1.00
C24    C     0.15861   0.12442   0.12945   0.00000  Uiso   1.00
C25    C     0.14868   0.12104   0.21095   0.00000  Uiso   1.00
C26    C     0.33729   0.36780   0.13576   0.00000  Uiso   1.00
C27    C     0.09220   0.34417   0.16850   0.00000  Uiso   1.00
C28    C     0.41599   0.14738   0.16351   0.00000  Uiso   1.00
C29    C     0.40172   0.33815   0.16961   0.00000  Uiso   1.00
C30    C     0.10184   0.16613   0.16639   0.00000  Uiso   1.00
C31    C     0.35184   0.08386   0.16695   0.00000  Uiso   1.00
C32    C     0.15172   0.41185   0.16373   0.00000  Uiso   1.00
C33    C     0.16599   0.10262   0.16982   0.00000  Uiso   1.00
C34    C     0.05988   0.31020   0.16734   0.00000  Uiso   1.00
C35    C     0.34220   0.40583   0.16483   0.00000  Uiso   1.00
C36    C     0.30988   0.43980   0.16599   0.00000  Uiso   1.00
C37    C     0.19250   0.06279   0.16765   0.00000  Uiso   1.00
C38    C     0.18820   0.44171   0.16586   0.00000  Uiso   1.00
C39    C     0.31248   0.05758   0.16707   0.00000  Uiso   1.00
C40    C     0.49819   0.28904   0.02566   0.00000  Uiso   1.00
H41    H     0.49681   0.32026   0.04513   0.00000  Uiso   1.00
H42    H     0.01019   0.18088   0.28878   0.00000  Uiso   1.00
H43    H     0.00557   0.18005   0.03925   0.00000  Uiso   1.00
H44    H     0.49862   0.32002   0.29429   0.00000  Uiso   1.00
H45    H     0.26021   0.06911   0.04455   0.00000  Uiso   1.00
H46    H     0.24679   0.42974   0.28820   0.00000  Uiso   1.00
H47    H     0.24861   0.42998   0.03904   0.00000  Uiso   1.00
H48    H     0.25558   0.06995   0.29408   0.00000  Uiso   1.00
I49    I     0.40855   0.15432   0.05610   0.00000  Uiso   1.00
I50    I     0.34849   0.09215   0.27513   0.00000  Uiso   1.00
I51    I     0.37112   0.04414   0.06826   0.00000  Uiso   1.00
I52    I     0.11462   0.47222   0.24338   0.00000  Uiso   1.00
I53    I     0.39012   0.46924   0.23544   0.00000  Uiso   1.00
I54    I     0.21053   0.13715   0.08398   0.00000  Uiso   1.00
I55    I     0.15857   0.09569   0.27723   0.00000  Uiso   1.00
I56    I     0.27995   0.35678   0.09593   0.00000  Uiso   1.00
I57    I     0.02996   0.39322   0.23741   0.00000  Uiso   1.00
I58    I     0.14012   0.28075   0.09789   0.00000  Uiso   1.00
I59    I     0.46054   0.11283   0.24934   0.00000  Uiso   1.00
I60    I     0.12112   0.20586   0.26508   0.00000  Uiso   1.00
I61    I     0.36462   0.27779   0.08995   0.00000  Uiso   1.00
I62    I     0.41593   0.36048   0.27360   0.00000  Uiso   1.00
I63    I     0.09848   0.15783   0.05820   0.00000  Uiso   1.00
I64    I     0.16592   0.38952   0.05974   0.00000  Uiso   1.00
N65    N     0.00000   0.25000   0.28573   0.00000  Uiso   1.00
N66    N    -0.00000   0.25000   0.04760   0.00000  Uiso   1.00
N67    N     0.25000   0.00000   0.28573   0.00000  Uiso   1.00
N68    N     0.25000   0.00000   0.04760   0.00000  Uiso   1.00
O69    O     0.04580   0.20419   0.20487   0.00000  Uiso   1.00
O70    O     0.20419   0.04581   0.12846   0.00000  Uiso   1.00
O71    O     0.20419   0.04581   0.20487   0.00000  Uiso   1.00
O72    O     0.29580   0.45419   0.12846   0.00000  Uiso   1.00
O73    O     0.20419   0.45419   0.12846   0.00000  Uiso   1.00
O74    O     0.29580   0.04581   0.20487   0.00000  Uiso   1.00
O75    O     0.29580   0.04581   0.12846   0.00000  Uiso   1.00
O76    O     0.20419   0.45419   0.20487   0.00000  Uiso   1.00
O77    O     0.45419   0.29581   0.12846   0.00000  Uiso   1.00
O78    O     0.45419   0.29581   0.20487   0.00000  Uiso   1.00
O79    O     0.04580   0.20419   0.12846   0.00000  Uiso   1.00
O80    O     0.45419   0.20419   0.12846   0.00000  Uiso   1.00
O81    O     0.04580   0.29581   0.20487   0.00000  Uiso   1.00
O82    O     0.04580   0.29581   0.12846   0.00000  Uiso   1.00
O83    O     0.45419   0.20419   0.20487   0.00000  Uiso   1.00
O84    O     0.29580   0.45419   0.20487   0.00000  Uiso   1.00
Zn85   Zn    0.00000   0.25000   0.21771   0.00000  Uiso   1.00
Zn86   Zn    0.00000   0.25000   0.11563   0.00000  Uiso   1.00
Zn87   Zn    0.25000   0.00000   0.21771   0.00000  Uiso   1.00
Zn88   Zn    0.25000   0.00000   0.11563   0.00000  Uiso   1.00
C89    C     0.56248   0.19242   0.16627   0.00000  Uiso   1.00
C90    C     0.50433   0.21135   0.30790   0.00000  Uiso   1.00
C91    C     0.50327   0.21119   0.02240   0.00000  Uiso   1.00
C92    C     0.99858   0.28896   0.31104   0.00000  Uiso   1.00
C93    C     0.75433   0.03865   0.02544   0.00000  Uiso   1.00
C94    C     0.74819   0.46096   0.30768   0.00000  Uiso   1.00
C95    C     0.74857   0.46104   0.02229   0.00000  Uiso   1.00
C96    C     0.75328   0.03881   0.31093   0.00000  Uiso   1.00
C97    C     0.89867   0.12897   0.12238   0.00000  Uiso   1.00
C98    C     0.58729   0.38220   0.19757   0.00000  Uiso   1.00
C99    C     0.62512   0.34128   0.13581   0.00000  Uiso   1.00
C100   C     0.93820   0.30829   0.16747   0.00000  Uiso   1.00
C101   C     0.90861   0.12557   0.20388   0.00000  Uiso   1.00
C102   C     0.62195   0.15810   0.20844   0.00000  Uiso   1.00
C103   C     0.86932   0.33503   0.13587   0.00000  Uiso   1.00
C104   C     0.89974   0.37144   0.20449   0.00000  Uiso   1.00
C105   C     0.62143   0.14966   0.12583   0.00000  Uiso   1.00
C106   C     0.64974   0.37856   0.12885   0.00000  Uiso   1.00
C107   C     0.87143   0.10034   0.20751   0.00000  Uiso   1.00
C108   C     0.87194   0.09191   0.12489   0.00000  Uiso   1.00
C109   C     0.61932   0.41497   0.19747   0.00000  Uiso   1.00
C110   C     0.87512   0.40872   0.19753   0.00000  Uiso   1.00
C111   C     0.94250   0.18721   0.16569   0.00000  Uiso   1.00
C112   C     0.65861   0.12442   0.12945   0.00000  Uiso   1.00
C113   C     0.64868   0.12104   0.21095   0.00000  Uiso   1.00
C114   C     0.83729   0.36780   0.13576   0.00000  Uiso   1.00
C115   C     0.59220   0.34417   0.16850   0.00000  Uiso   1.00
C116   C     0.91599   0.14738   0.16351   0.00000  Uiso   1.00
C117   C     0.90172   0.33815   0.16961   0.00000  Uiso   1.00
C118   C     0.60184   0.16613   0.16639   0.00000  Uiso   1.00
C119   C     0.85184   0.08386   0.16695   0.00000  Uiso   1.00
C120   C     0.65172   0.41185   0.16373   0.00000  Uiso   1.00
C121   C     0.66599   0.10262   0.16982   0.00000  Uiso   1.00
C122   C     0.55988   0.31020   0.16734   0.00000  Uiso   1.00
C123   C     0.84220   0.40583   0.16483   0.00000  Uiso   1.00
C124   C     0.80988   0.43980   0.16599   0.00000  Uiso   1.00
C125   C     0.69250   0.06279   0.16765   0.00000  Uiso   1.00
C126   C     0.68820   0.44171   0.16586   0.00000  Uiso   1.00
C127   C     0.81248   0.05758   0.16707   0.00000  Uiso   1.00
C128   C     0.99819   0.28904   0.02566   0.00000  Uiso   1.00
H129   H     0.99681   0.32026   0.04513   0.00000  Uiso   1.00
H130   H     0.51019   0.18088   0.28878   0.00000  Uiso   1.00
H131   H     0.50557   0.18005   0.03925   0.00000  Uiso   1.00
H132   H     0.99862   0.32002   0.29429   0.00000  Uiso   1.00
H133   H     0.76021   0.06911   0.04455   0.00000  Uiso   1.00
H134   H     0.74679   0.42974   0.28820   0.00000  Uiso   1.00
H135   H     0.74861   0.42998   0.03904   0.00000  Uiso   1.00
H136   H     0.75558   0.06995   0.29408   0.00000  Uiso   1.00
I137   I     0.90855   0.15432   0.05610   0.00000  Uiso   1.00
I138   I     0.84849   0.09215   0.27513   0.00000  Uiso   1.00
I139   I     0.87112   0.04414   0.06826   0.00000  Uiso   1.00
I140   I     0.61462   0.47222   0.24338   0.00000  Uiso   1.00
I141   I     0.89012   0.46924   0.23544   0.00000  Uiso   1.00
I142   I     0.71053   0.13715   0.08398   0.00000  Uiso   1.00
I143   I     0.65857   0.09569   0.27723   0.00000  Uiso   1.00
I144   I     0.77995   0.35678   0.09593   0.00000  Uiso   1.00
I145   I     0.52996   0.39322   0.23741   0.00000  Uiso   1.00
I146   I     0.64012   0.28075   0.09789   0.00000  Uiso   1.00
I147   I     0.96054   0.11283   0.24934   0.00000  Uiso   1.00
I148   I     0.62112   0.20586   0.26508   0.00000  Uiso   1.00
I149   I     0.86462   0.27779   0.08995   0.00000  Uiso   1.00
I150   I     0.91593   0.36048   0.27360   0.00000  Uiso   1.00
I151   I     0.59848   0.15783   0.05820   0.00000  Uiso   1.00
I152   I     0.66592   0.38952   0.05974   0.00000  Uiso   1.00
N153   N     0.50000   0.25000   0.28573   0.00000  Uiso   1.00
N154   N     0.50000   0.25000   0.04760   0.00000  Uiso   1.00
N155   N     0.75000   0.00000   0.28573   0.00000  Uiso   1.00
N156   N     0.75000   0.00000   0.04760   0.00000  Uiso   1.00
O157   O     0.54580   0.20419   0.20487   0.00000  Uiso   1.00
O158   O     0.70419   0.04581   0.12846   0.00000  Uiso   1.00
O159   O     0.70419   0.04581   0.20487   0.00000  Uiso   1.00
O160   O     0.79580   0.45419   0.12846   0.00000  Uiso   1.00
O161   O     0.70419   0.45419   0.12846   0.00000  Uiso   1.00
O162   O     0.79580   0.04581   0.20487   0.00000  Uiso   1.00
O163   O     0.79580   0.04581   0.12846   0.00000  Uiso   1.00
O164   O     0.70419   0.45419   0.20487   0.00000  Uiso   1.00
O165   O     0.95419   0.29581   0.12846   0.00000  Uiso   1.00
O166   O     0.95419   0.29581   0.20487   0.00000  Uiso   1.00
O167   O     0.54580   0.20419   0.12846   0.00000  Uiso   1.00
O168   O     0.95419   0.20419   0.12846   0.00000  Uiso   1.00
O169   O     0.54580   0.29581   0.20487   0.00000  Uiso   1.00
O170   O     0.54580   0.29581   0.12846   0.00000  Uiso   1.00
O171   O     0.95419   0.20419   0.20487   0.00000  Uiso   1.00
O172   O     0.79580   0.45419   0.20487   0.00000  Uiso   1.00
Zn173  Zn    0.50000   0.25000   0.21771   0.00000  Uiso   1.00
Zn174  Zn    0.50000   0.25000   0.11563   0.00000  Uiso   1.00
Zn175  Zn    0.75000   0.00000   0.21771   0.00000  Uiso   1.00
Zn176  Zn    0.75000   0.00000   0.11563   0.00000  Uiso   1.00
C177   C     0.06248   0.69242   0.16627   0.00000  Uiso   1.00
C178   C     0.00433   0.71135   0.30790   0.00000  Uiso   1.00
C179   C     0.00327   0.71119   0.02240   0.00000  Uiso   1.00
C180   C     0.49858   0.78896   0.31104   0.00000  Uiso   1.00
C181   C     0.25433   0.53865   0.02544   0.00000  Uiso   1.00
C182   C     0.24819   0.96096   0.30768   0.00000  Uiso   1.00
C183   C     0.24857   0.96104   0.02229   0.00000  Uiso   1.00
C184   C     0.25328   0.53881   0.31093   0.00000  Uiso   1.00
C185   C     0.39867   0.62897   0.12238   0.00000  Uiso   1.00
C186   C     0.08729   0.88220   0.19757   0.00000  Uiso   1.00
C187   C     0.12512   0.84128   0.13581   0.00000  Uiso   1.00
C188   C     0.43820   0.80829   0.16747   0.00000  Uiso   1.00
C189   C     0.40861   0.62557   0.20388   0.00000  Uiso   1.00
C190   C     0.12195   0.65810   0.20844   0.00000  Uiso   1.00
C191   C     0.36932   0.83503   0.13587   0.00000  Uiso   1.00
C192   C     0.39974   0.87144   0.20449   0.00000  Uiso   1.00
C193   C     0.12143   0.64966   0.12583   0.00000  Uiso   1.00
C194   C     0.14974   0.87856   0.12885   0.00000  Uiso   1.00
C195   C     0.37143   0.60034   0.20751   0.00000  Uiso   1.00
C196   C     0.37194   0.59191   0.12489   0.00000  Uiso   1.00
C197   C     0.11932   0.91497   0.19747   0.00000  Uiso   1.00
C198   C     0.37512   0.90872   0.19753   0.00000  Uiso   1.00
C199   C     0.44250   0.68721   0.16569   0.00000  Uiso   1.00
C200   C     0.15861   0.62442   0.12945   0.00000  Uiso   1.00
C201   C     0.14868   0.62104   0.21095   0.00000  Uiso   1.00
C202   C     0.33729   0.86780   0.13576   0.00000  Uiso   1.00
C203   C     0.09220   0.84417   0.16850   0.00000  Uiso   1.00
C204   C     0.41599   0.64738   0.16351   0.00000  Uiso   1.00
C205   C     0.40172   0.83815   0.16961   0.00000  Uiso   1.00
C206   C     0.10184   0.66613   0.16639   0.00000  Uiso   1.00
C207   C     0.35184   0.58386   0.16695   0.00000  Uiso   1.00
C208   C     0.15172   0.91185   0.16373   0.00000  Uiso   1.00
C209   C     0.16599   0.60262   0.16982   0.00000  Uiso   1.00
C210   C     0.05988   0.81020   0.16734   0.00000  Uiso   1.00
C211   C     0.34220   0.90583   0.16483   0.00000  Uiso   1.00
C212   C     0.30988   0.93980   0.16599   0.00000  Uiso   1.00
C213   C     0.19250   0.56279   0.16765   0.00000  Uiso   1.00
C214   C     0.18820   0.94171   0.16586   0.00000  Uiso   1.00
C215   C     0.31248   0.55758   0.16707   0.00000  Uiso   1.00
C216   C     0.49819   0.78904   0.02566   0.00000  Uiso   1.00
H217   H     0.49681   0.82026   0.04513   0.00000  Uiso   1.00
H218   H     0.01019   0.68088   0.28878   0.00000  Uiso   1.00
H219   H     0.00557   0.68005   0.03925   0.00000  Uiso   1.00
H220   H     0.49862   0.82002   0.29429   0.00000  Uiso   1.00
H221   H     0.26021   0.56911   0.04455   0.00000  Uiso   1.00
H222   H     0.24679   0.92974   0.28820   0.00000  Uiso   1.00
H223   H     0.24861   0.92998   0.03904   0.00000  Uiso   1.00
H224   H     0.25558   0.56995   0.29408   0.00000  Uiso   1.00
I225   I     0.40855   0.65432   0.05610   0.00000  Uiso   1.00
I226   I     0.34849   0.59215   0.27513   0.00000  Uiso   1.00
I227   I     0.37112   0.54414   0.06826   0.00000  Uiso   1.00
I228   I     0.11462   0.97222   0.24338   0.00000  Uiso   1.00
I229   I     0.39012   0.96924   0.23544   0.00000  Uiso   1.00
I230   I     0.21053   0.63715   0.08398   0.00000  Uiso   1.00
I231   I     0.15857   0.59569   0.27723   0.00000  Uiso   1.00
I232   I     0.27995   0.85678   0.09593   0.00000  Uiso   1.00
I233   I     0.02996   0.89322   0.23741   0.00000  Uiso   1.00
I234   I     0.14012   0.78075   0.09789   0.00000  Uiso   1.00
I235   I     0.46054   0.61283   0.24934   0.00000  Uiso   1.00
I236   I     0.12112   0.70586   0.26508   0.00000  Uiso   1.00
I237   I     0.36462   0.77779   0.08995   0.00000  Uiso   1.00
I238   I     0.41593   0.86048   0.27360   0.00000  Uiso   1.00
I239   I     0.09848   0.65783   0.05820   0.00000  Uiso   1.00
I240   I     0.16592   0.88952   0.05974   0.00000  Uiso   1.00
N241   N     0.00000   0.75000   0.28573   0.00000  Uiso   1.00
N242   N    -0.00000   0.75000   0.04760   0.00000  Uiso   1.00
N243   N     0.25000   0.50000   0.28573   0.00000  Uiso   1.00
N244   N     0.25000   0.50000   0.04760   0.00000  Uiso   1.00
O245   O     0.04580   0.70419   0.20487   0.00000  Uiso   1.00
O246   O     0.20419   0.54581   0.12846   0.00000  Uiso   1.00
O247   O     0.20419   0.54581   0.20487   0.00000  Uiso   1.00
O248   O     0.29580   0.95419   0.12846   0.00000  Uiso   1.00
O249   O     0.20419   0.95419   0.12846   0.00000  Uiso   1.00
O250   O     0.29580   0.54581   0.20487   0.00000  Uiso   1.00
O251   O     0.29580   0.54581   0.12846   0.00000  Uiso   1.00
O252   O     0.20419   0.95419   0.20487   0.00000  Uiso   1.00
O253   O     0.45419   0.79581   0.12846   0.00000  Uiso   1.00
O254   O     0.45419   0.79581   0.20487   0.00000  Uiso   1.00
O255   O     0.04580   0.70419   0.12846   0.00000  Uiso   1.00
O256   O     0.45419   0.70419   0.12846   0.00000  Uiso   1.00
O257   O     0.04580   0.79581   0.20487   0.00000  Uiso   1.00
O258   O     0.04580   0.79581   0.12846   0.00000  Uiso   1.00
O259   O     0.45419   0.70419   0.20487   0.00000  Uiso   1.00
O260   O     0.29580   0.95419   0.20487   0.00000  Uiso   1.00
Zn261  Zn    0.00000   0.75000   0.21771   0.00000  Uiso   1.00
Zn262  Zn    0.00000   0.75000   0.11563   0.00000  Uiso   1.00
Zn263  Zn    0.25000   0.50000   0.21771   0.00000  Uiso   1.00
Zn264  Zn    0.25000   0.50000   0.11563   0.00000  Uiso   1.00
C265   C     0.56248   0.69242   0.16627   0.00000  Uiso   1.00
C266   C     0.50433   0.71135   0.30790   0.00000  Uiso   1.00
C267   C     0.50327   0.71119   0.02240   0.00000  Uiso   1.00
C268   C     0.99858   0.78896   0.31104   0.00000  Uiso   1.00
C269   C     0.75433   0.53865   0.02544   0.00000  Uiso   1.00
C270   C     0.74819   0.96096   0.30768   0.00000  Uiso   1.00
C271   C     0.74857   0.96104   0.02229   0.00000  Uiso   1.00
C272   C     0.75328   0.53881   0.31093   0.00000  Uiso   1.00
C273   C     0.89867   0.62897   0.12238   0.00000  Uiso   1.00
C274   C     0.58729   0.88220   0.19757   0.00000  Uiso   1.00
C275   C     0.62512   0.84128   0.13581   0.00000  Uiso   1.00
C276   C     0.93820   0.80829   0.16747   0.00000  Uiso   1.00
C277   C     0.90861   0.62557   0.20388   0.00000  Uiso   1.00
C278   C     0.62195   0.65810   0.20844   0.00000  Uiso   1.00
C279   C     0.86932   0.83503   0.13587   0.00000  Uiso   1.00
C280   C     0.89974   0.87144   0.20449   0.00000  Uiso   1.00
C281   C     0.62143   0.64966   0.12583   0.00000  Uiso   1.00
C282   C     0.64974   0.87856   0.12885   0.00000  Uiso   1.00
C283   C     0.87143   0.60034   0.20751   0.00000  Uiso   1.00
C284   C     0.87194   0.59191   0.12489   0.00000  Uiso   1.00
C285   C     0.61932   0.91497   0.19747   0.00000  Uiso   1.00
C286   C     0.87512   0.90872   0.19753   0.00000  Uiso   1.00
C287   C     0.94250   0.68721   0.16569   0.00000  Uiso   1.00
C288   C     0.65861   0.62442   0.12945   0.00000  Uiso   1.00
C289   C     0.64868   0.62104   0.21095   0.00000  Uiso   1.00
C290   C     0.83729   0.86780   0.13576   0.00000  Uiso   1.00
C291   C     0.59220   0.84417   0.16850   0.00000  Uiso   1.00
C292   C     0.91599   0.64738   0.16351   0.00000  Uiso   1.00
C293   C     0.90172   0.83815   0.16961   0.00000  Uiso   1.00
C294   C     0.60184   0.66613   0.16639   0.00000  Uiso   1.00
C295   C     0.85184   0.58386   0.16695   0.00000  Uiso   1.00
C296   C     0.65172   0.91185   0.16373   0.00000  Uiso   1.00
C297   C     0.66599   0.60262   0.16982   0.00000  Uiso   1.00
C298   C     0.55988   0.81020   0.16734   0.00000  Uiso   1.00
C299   C     0.84220   0.90583   0.16483   0.00000  Uiso   1.00
C300   C     0.80988   0.93980   0.16599   0.00000  Uiso   1.00
C301   C     0.69250   0.56279   0.16765   0.00000  Uiso   1.00
C302   C     0.68820   0.94171   0.16586   0.00000  Uiso   1.00
C303   C     0.81248   0.55758   0.16707   0.00000  Uiso   1.00
C304   C     0.99819   0.78904   0.02566   0.00000  Uiso   1.00
H305   H     0.99681   0.82026   0.04513   0.00000  Uiso   1.00
H306   H     0.51019   0.68088   0.28878   0.00000  Uiso   1.00
H307   H     0.50557   0.68005   0.03925   0.00000  Uiso   1.00
H308   H     0.99862   0.82002   0.29429   0.00000  Uiso   1.00
H309   H     0.76021   0.56911   0.04455   0.00000  Uiso   1.00
H310   H     0.74679   0.92974   0.28820   0.00000  Uiso   1.00
H311   H     0.74861   0.92998   0.03904   0.00000  Uiso   1.00
H312   H     0.75558   0.56995   0.29408   0.00000  Uiso   1.00
I313   I     0.90855   0.65432   0.05610   0.00000  Uiso   1.00
I314   I     0.84849   0.59215   0.27513   0.00000  Uiso   1.00
I315   I     0.87112   0.54414   0.06826   0.00000  Uiso   1.00
I316   I     0.61462   0.97222   0.24338   0.00000  Uiso   1.00
I317   I     0.89012   0.96924   0.23544   0.00000  Uiso   1.00
I318   I     0.71053   0.63715   0.08398   0.00000  Uiso   1.00
I319   I     0.65857   0.59569   0.27723   0.00000  Uiso   1.00
I320   I     0.77995   0.85678   0.09593   0.00000  Uiso   1.00
I321   I     0.52996   0.89322   0.23741   0.00000  Uiso   1.00
I322   I     0.64012   0.78075   0.09789   0.00000  Uiso   1.00
I323   I     0.96054   0.61283   0.24934   0.00000  Uiso   1.00
I324   I     0.62112   0.70586   0.26508   0.00000  Uiso   1.00
I325   I     0.86462   0.77779   0.08995   0.00000  Uiso   1.00
I326   I     0.91593   0.86048   0.27360   0.00000  Uiso   1.00
I327   I     0.59848   0.65783   0.05820   0.00000  Uiso   1.00
I328   I     0.66592   0.88952   0.05974   0.00000  Uiso   1.00
N329   N     0.50000   0.75000   0.28573   0.00000  Uiso   1.00
N330   N     0.50000   0.75000   0.04760   0.00000  Uiso   1.00
N331   N     0.75000   0.50000   0.28573   0.00000  Uiso   1.00
N332   N     0.75000   0.50000   0.04760   0.00000  Uiso   1.00
O333   O     0.54580   0.70419   0.20487   0.00000  Uiso   1.00
O334   O     0.70419   0.54581   0.12846   0.00000  Uiso   1.00
O335   O     0.70419   0.54581   0.20487   0.00000  Uiso   1.00
O336   O     0.79580   0.95419   0.12846   0.00000  Uiso   1.00
O337   O     0.70419   0.95419   0.12846   0.00000  Uiso   1.00
O338   O     0.79580   0.54581   0.20487   0.00000  Uiso   1.00
O339   O     0.79580   0.54581   0.12846   0.00000  Uiso   1.00
O340   O     0.70419   0.95419   0.20487   0.00000  Uiso   1.00
O341   O     0.95419   0.79581   0.12846   0.00000  Uiso   1.00
O342   O     0.95419   0.79581   0.20487   0.00000  Uiso   1.00
O343   O     0.54580   0.70419   0.12846   0.00000  Uiso   1.00
O344   O     0.95419   0.70419   0.12846   0.00000  Uiso   1.00
O345   O     0.54580   0.79581   0.20487   0.00000  Uiso   1.00
O346   O     0.54580   0.79581   0.12846   0.00000  Uiso   1.00
O347   O     0.95419   0.70419   0.20487   0.00000  Uiso   1.00
O348   O     0.79580   0.95419   0.20487   0.00000  Uiso   1.00
Zn349  Zn    0.50000   0.75000   0.21771   0.00000  Uiso   1.00
Zn350  Zn    0.50000   0.75000   0.11563   0.00000  Uiso   1.00
Zn351  Zn    0.75000   0.50000   0.21771   0.00000  Uiso   1.00
Zn352  Zn    0.75000   0.50000   0.11563   0.00000  Uiso   1.00
C353   C     0.06248   0.19242   0.49960   0.00000  Uiso   1.00
C354   C     0.00433   0.21135   0.64123   0.00000  Uiso   1.00
C355   C     0.00327   0.21119   0.35573   0.00000  Uiso   1.00
C356   C     0.49858   0.28896   0.64437   0.00000  Uiso   1.00
C357   C     0.25433   0.03865   0.35877   0.00000  Uiso   1.00
C358   C     0.24819   0.46096   0.64101   0.00000  Uiso   1.00
C359   C     0.24857   0.46104   0.35563   0.00000  Uiso   1.00
C360   C     0.25328   0.03881   0.64427   0.00000  Uiso   1.00
C361   C     0.39867   0.12897   0.45572   0.00000  Uiso   1.00
C362   C     0.08729   0.38220   0.53090   0.00000  Uiso   1.00
C363   C     0.12512   0.34128   0.46914   0.00000  Uiso   1.00
C364   C     0.43820   0.30829   0.50080   0.00000  Uiso   1.00
C365   C     0.40861   0.12557   0.53721   0.00000  Uiso   1.00
C366   C     0.12195   0.15810   0.54178   0.00000  Uiso   1.00
C367   C     0.36932   0.33503   0.46920   0.00000  Uiso   1.00
C368   C     0.39974   0.37144   0.53782   0.00000  Uiso   1.00
C369   C     0.12143   0.14966   0.45916   0.00000  Uiso   1.00
C370   C     0.14974   0.37856   0.46218   0.00000  Uiso   1.00
C371   C     0.37143   0.10034   0.54084   0.00000  Uiso   1.00
C372   C     0.37194   0.09191   0.45822   0.00000  Uiso   1.00
C373   C     0.11932   0.41497   0.53080   0.00000  Uiso   1.00
C374   C     0.37512   0.40872   0.53086   0.00000  Uiso   1.00
C375   C     0.44250   0.18721   0.49902   0.00000  Uiso   1.00
C376   C     0.15861   0.12442   0.46278   0.00000  Uiso   1.00
C377   C     0.14868   0.12104   0.54428   0.00000  Uiso   1.00
C378   C     0.33729   0.36780   0.46910   0.00000  Uiso   1.00
C379   C     0.09220   0.34417   0.50184   0.00000  Uiso   1.00
C380   C     0.41599   0.14738   0.49685   0.00000  Uiso   1.00
C381   C     0.40172   0.33815   0.50294   0.00000  Uiso   1.00
C382   C     0.10184   0.16613   0.49972   0.00000  Uiso   1.00
C383   C     0.35184   0.08386   0.50028   0.00000  Uiso   1.00
C384   C     0.15172   0.41185   0.49706   0.00000  Uiso   1.00
C385   C     0.16599   0.10262   0.50315   0.00000  Uiso   1.00
C386   C     0.05988   0.31020   0.50068   0.00000  Uiso   1.00
C387   C     0.34220   0.40583   0.49816   0.00000  Uiso   1.00
C388   C     0.30988   0.43980   0.49932   0.00000  Uiso   1.00
C389   C     0.19250   0.06279   0.50098   0.00000  Uiso   1.00
C390   C     0.18820   0.44171   0.49920   0.00000  Uiso   1.00
C391   C     0.31248   0.05758   0.50040   0.00000  Uiso   1.00
C392   C     0.49819   0.28904   0.35899   0.00000  Uiso   1.00
H393   H     0.49681   0.32026   0.37846   0.00000  Uiso   1.00
H394   H     0.01019   0.18088   0.62212   0.00000  Uiso   1.00
H395   H     0.00557   0.18005   0.37259   0.00000  Uiso   1.00
H396   H     0.49862   0.32002   0.62763   0.00000  Uiso   1.00
H397   H     0.26021   0.06911   0.37788   0.00000  Uiso   1.00
H398   H     0.24679   0.42974   0.62154   0.00000  Uiso   1.00
H399   H     0.24861   0.42998   0.37237   0.00000  Uiso   1.00
H400   H     0.25558   0.06995   0.62742   0.00000  Uiso   1.00
I401   I     0.40855   0.15432   0.38944   0.00000  Uiso   1.00
I402   I     0.34849   0.09215   0.60847   0.00000  Uiso   1.00
I403   I     0.37112   0.04414   0.40159   0.00000  Uiso   1.00
I404   I     0.11462   0.47222   0.57671   0.00000  Uiso   1.00
I405   I     0.39012   0.46924   0.56878   0.00000  Uiso   1.00
I406   I     0.21053   0.13715   0.41732   0.00000  Uiso   1.00
I407   I     0.15857   0.09569   0.61057   0.00000  Uiso   1.00
I408   I     0.27995   0.35678   0.42926   0.00000  Uiso   1.00
I409   I     0.02996   0.39322   0.57074   0.00000  Uiso   1.00
I410   I     0.14012   0.28075   0.43123   0.00000  Uiso   1.00
I411   I     0.46054   0.11283   0.58267   0.00000  Uiso   1.00
I412   I     0.12112   0.20586   0.59841   0.00000  Uiso   1.00
I413   I     0.36462   0.27779   0.42328   0.00000  Uiso   1.00
I414   I     0.41593   0.36048   0.60693   0.00000  Uiso   1.00
I415   I     0.09848   0.15783   0.39153   0.00000  Uiso   1.00
I416   I     0.16592   0.38952   0.39307   0.00000  Uiso   1.00
N417   N     0.00000   0.25000   0.61907   0.00000  Uiso   1.00
N418   N    -0.00000   0.25000   0.38093   0.00000  Uiso   1.00
N419   N     0.25000   0.00000   0.61907   0.00000  Uiso   1.00
N420   N     0.25000   0.00000   0.38093   0.00000  Uiso   1.00
O421   O     0.04580   0.20419   0.53821   0.00000  Uiso   1.00
O422   O     0.20419   0.04581   0.46179   0.00000  Uiso   1.00
O423   O     0.20419   0.04581   0.53821   0.00000  Uiso   1.00
O424   O     0.29580   0.45419   0.46179   0.00000  Uiso   1.00
O425   O     0.20419   0.45419   0.46179   0.00000  Uiso   1.00
O426   O     0.29580   0.04581   0.53821   0.00000  Uiso   1.00
O427   O     0.29580   0.04581   0.46179   0.00000  Uiso   1.00
O428   O     0.20419   0.45419   0.53821   0.00000  Uiso   1.00
O429   O     0.45419   0.29581   0.46179   0.00000  Uiso   1.00
O430   O     0.45419   0.29581   0.53821   0.00000  Uiso   1.00
O431   O     0.04580   0.20419   0.46179   0.00000  Uiso   1.00
O432   O     0.45419   0.20419   0.46179   0.00000  Uiso   1.00
O433   O     0.04580   0.29581   0.53821   0.00000  Uiso   1.00
O434   O     0.04580   0.29581   0.46179   0.00000  Uiso   1.00
O435   O     0.45419   0.20419   0.53821   0.00000  Uiso   1.00
O436   O     0.29580   0.45419   0.53821   0.00000  Uiso   1.00
Zn437  Zn    0.00000   0.25000   0.55104   0.00000  Uiso   1.00
Zn438  Zn    0.00000   0.25000   0.44896   0.00000  Uiso   1.00
Zn439  Zn    0.25000   0.00000   0.55104   0.00000  Uiso   1.00
Zn440  Zn    0.25000   0.00000   0.44896   0.00000  Uiso   1.00
C441   C     0.56248   0.19242   0.49960   0.00000  Uiso   1.00
C442   C     0.50433   0.21135   0.64123   0.00000  Uiso   1.00
C443   C     0.50327   0.21119   0.35573   0.00000  Uiso   1.00
C444   C     0.99858   0.28896   0.64437   0.00000  Uiso   1.00
C445   C     0.75433   0.03865   0.35877   0.00000  Uiso   1.00
C446   C     0.74819   0.46096   0.64101   0.00000  Uiso   1.00
C447   C     0.74857   0.46104   0.35563   0.00000  Uiso   1.00
C448   C     0.75328   0.03881   0.64427   0.00000  Uiso   1.00
C449   C     0.89867   0.12897   0.45572   0.00000  Uiso   1.00
C450   C     0.58729   0.38220   0.53090   0.00000  Uiso   1.00
C451   C     0.62512   0.34128   0.46914   0.00000  Uiso   1.00
C452   C     0.93820   0.30829   0.50080   0.00000  Uiso   1.00
C453   C     0.90861   0.12557   0.53721   0.00000  Uiso   1.00
C454   C     0.62195   0.15810   0.54178   0.00000  Uiso   1.00
C455   C     0.86932   0.33503   0.46920   0.00000  Uiso   1.00
C456   C     0.89974   0.37144   0.53782   0.00000  Uiso   1.00
C457   C     0.62143   0.14966   0.45916   0.00000  Uiso   1.00
C458   C     0.64974   0.37856   0.46218   0.00000  Uiso   1.00
C459   C     0.87143   0.10034   0.54084   0.00000  Uiso   1.00
C460   C     0.87194   0.09191   0.45822   0.00000  Uiso   1.00
C461   C     0.61932   0.41497   0.53080   0.00000  Uiso   1.00
C462   C     0.87512   0.40872   0.53086   0.00000  Uiso   1.00
C463   C     0.94250   0.18721   0.49902   0.00000  Uiso   1.00
C464   C     0.65861   0.12442   0.46278   0.00000  Uiso   1.00
C465   C     0.64868   0.12104   0.54428   0.00000  Uiso   1.00
C466   C     0.83729   0.36780   0.46910   0.00000  Uiso   1.00
C467   C     0.59220   0.34417   0.50184   0.00000  Uiso   1.00
C468   C     0.91599   0.14738   0.49685   0.00000  Uiso   1.00
C469   C     0.90172   0.33815   0.50294   0.00000  Uiso   1.00
C470   C     0.60184   0.16613   0.49972   0.00000  Uiso   1.00
C471   C     0.85184   0.08386   0.50028   0.00000  Uiso   1.00
C472   C     0.65172   0.41185   0.49706   0.00000  Uiso   1.00
C473   C     0.66599   0.10262   0.50315   0.00000  Uiso   1.00
C474   C     0.55988   0.31020   0.50068   0.00000  Uiso   1.00
C475   C     0.84220   0.40583   0.49816   0.00000  Uiso   1.00
C476   C     0.80988   0.43980   0.49932   0.00000  Uiso   1.00
C477   C     0.69250   0.06279   0.50098   0.00000  Uiso   1.00
C478   C     0.68820   0.44171   0.49920   0.00000  Uiso   1.00
C479   C     0.81248   0.05758   0.50040   0.00000  Uiso   1.00
C480   C     0.99819   0.28904   0.35899   0.00000  Uiso   1.00
H481   H     0.99681   0.32026   0.37846   0.00000  Uiso   1.00
H482   H     0.51019   0.18088   0.62212   0.00000  Uiso   1.00
H483   H     0.50557   0.18005   0.37259   0.00000  Uiso   1.00
H484   H     0.99862   0.32002   0.62763   0.00000  Uiso   1.00
H485   H     0.76021   0.06911   0.37788   0.00000  Uiso   1.00
H486   H     0.74679   0.42974   0.62154   0.00000  Uiso   1.00
H487   H     0.74861   0.42998   0.37237   0.00000  Uiso   1.00
H488   H     0.75558   0.06995   0.62742   0.00000  Uiso   1.00
I489   I     0.90855   0.15432   0.38944   0.00000  Uiso   1.00
I490   I     0.84849   0.09215   0.60847   0.00000  Uiso   1.00
I491   I     0.87112   0.04414   0.40159   0.00000  Uiso   1.00
I492   I     0.61462   0.47222   0.57671   0.00000  Uiso   1.00
I493   I     0.89012   0.46924   0.56878   0.00000  Uiso   1.00
I494   I     0.71053   0.13715   0.41732   0.00000  Uiso   1.00
I495   I     0.65857   0.09569   0.61057   0.00000  Uiso   1.00
I496   I     0.77995   0.35678   0.42926   0.00000  Uiso   1.00
I497   I     0.52996   0.39322   0.57074   0.00000  Uiso   1.00
I498   I     0.64012   0.28075   0.43123   0.00000  Uiso   1.00
I499   I     0.96054   0.11283   0.58267   0.00000  Uiso   1.00
I500   I     0.62112   0.20586   0.59841   0.00000  Uiso   1.00
I501   I     0.86462   0.27779   0.42328   0.00000  Uiso   1.00
I502   I     0.91593   0.36048   0.60693   0.00000  Uiso   1.00
I503   I     0.59848   0.15783   0.39153   0.00000  Uiso   1.00
I504   I     0.66592   0.38952   0.39307   0.00000  Uiso   1.00
N505   N     0.50000   0.25000   0.61907   0.00000  Uiso   1.00
N506   N     0.50000   0.25000   0.38093   0.00000  Uiso   1.00
N507   N     0.75000   0.00000   0.61907   0.00000  Uiso   1.00
N508   N     0.75000   0.00000   0.38093   0.00000  Uiso   1.00
O509   O     0.54580   0.20419   0.53821   0.00000  Uiso   1.00
O510   O     0.70419   0.04581   0.46179   0.00000  Uiso   1.00
O511   O     0.70419   0.04581   0.53821   0.00000  Uiso   1.00
O512   O     0.79580   0.45419   0.46179   0.00000  Uiso   1.00
O513   O     0.70419   0.45419   0.46179   0.00000  Uiso   1.00
O514   O     0.79580   0.04581   0.53821   0.00000  Uiso   1.00
O515   O     0.79580   0.04581   0.46179   0.00000  Uiso   1.00
O516   O     0.70419   0.45419   0.53821   0.00000  Uiso   1.00
O517   O     0.95419   0.29581   0.46179   0.00000  Uiso   1.00
O518   O     0.95419   0.29581   0.53821   0.00000  Uiso   1.00
O519   O     0.54580   0.20419   0.46179   0.00000  Uiso   1.00
O520   O     0.95419   0.20419   0.46179   0.00000  Uiso   1.00
O521   O     0.54580   0.29581   0.53821   0.00000  Uiso   1.00
O522   O     0.54580   0.29581   0.46179   0.00000  Uiso   1.00
O523   O     0.95419   0.20419   0.53821   0.00000  Uiso   1.00
O524   O     0.79580   0.45419   0.53821   0.00000  Uiso   1.00
Zn525  Zn    0.50000   0.25000   0.55104   0.00000  Uiso   1.00
Zn526  Zn    0.50000   0.25000   0.44896   0.00000  Uiso   1.00
Zn527  Zn    0.75000   0.00000   0.55104   0.00000  Uiso   1.00
Zn528  Zn    0.75000   0.00000   0.44896   0.00000  Uiso   1.00
C529   C     0.06248   0.69242   0.49960   0.00000  Uiso   1.00
C530   C     0.00433   0.71135   0.64123   0.00000  Uiso   1.00
C531   C     0.00327   0.71119   0.35573   0.00000  Uiso   1.00
C532   C     0.49858   0.78896   0.64437   0.00000  Uiso   1.00
C533   C     0.25433   0.53865   0.35877   0.00000  Uiso   1.00
C534   C     0.24819   0.96096   0.64101   0.00000  Uiso   1.00
C535   C     0.24857   0.96104   0.35563   0.00000  Uiso   1.00
C536   C     0.25328   0.53881   0.64427   0.00000  Uiso   1.00
C537   C     0.39867   0.62897   0.45572   0.00000  Uiso   1.00
C538   C     0.08729   0.88220   0.53090   0.00000  Uiso   1.00
C539   C     0.12512   0.84128   0.46914   0.00000  Uiso   1.00
C540   C     0.43820   0.80829   0.50080   0.00000  Uiso   1.00
C541   C     0.40861   0.62557   0.53721   0.00000  Uiso   1.00
C542   C     0.12195   0.65810   0.54178   0.00000  Uiso   1.00
C543   C     0.36932   0.83503   0.46920   0.00000  Uiso   1.00
C544   C     0.39974   0.87144   0.53782   0.00000  Uiso   1.00
C545   C     0.12143   0.64966   0.45916   0.00000  Uiso   1.00
C546   C     0.14974   0.87856   0.46218   0.00000  Uiso   1.00
C547   C     0.37143   0.60034   0.54084   0.00000  Uiso   1.00
C548   C     0.37194   0.59191   0.45822   0.00000  Uiso   1.00
C549   C     0.11932   0.91497   0.53080   0.00000  Uiso   1.00
C550   C     0.37512   0.90872   0.53086   0.00000  Uiso   1.00
C551   C     0.44250   0.68721   0.49902   0.00000  Uiso   1.00
C552   C     0.15861   0.62442   0.46278   0.00000  Uiso   1.00
C553   C     0.14868   0.62104   0.54428   0.00000  Uiso   1.00
C554   C     0.33729   0.86780   0.46910   0.00000  Uiso   1.00
C555   C     0.09220   0.84417   0.50184   0.00000  Uiso   1.00
C556   C     0.41599   0.64738   0.49685   0.00000  Uiso   1.00
C557   C     0.40172   0.83815   0.50294   0.00000  Uiso   1.00
C558   C     0.10184   0.66613   0.49972   0.00000  Uiso   1.00
C559   C     0.35184   0.58386   0.50028   0.00000  Uiso   1.00
C560   C     0.15172   0.91185   0.49706   0.00000  Uiso   1.00
C561   C     0.16599   0.60262   0.50315   0.00000  Uiso   1.00
C562   C     0.05988   0.81020   0.50068   0.00000  Uiso   1.00
C563   C     0.34220   0.90583   0.49816   0.00000  Uiso   1.00
C564   C     0.30988   0.93980   0.49932   0.00000  Uiso   1.00
C565   C     0.19250   0.56279   0.50098   0.00000  Uiso   1.00
C566   C     0.18820   0.94171   0.49920   0.00000  Uiso   1.00
C567   C     0.31248   0.55758   0.50040   0.00000  Uiso   1.00
C568   C     0.49819   0.78904   0.35899   0.00000  Uiso   1.00
H569   H     0.49681   0.82026   0.37846   0.00000  Uiso   1.00
H570   H     0.01019   0.68088   0.62212   0.00000  Uiso   1.00
H571   H     0.00557   0.68005   0.37259   0.00000  Uiso   1.00
H572   H     0.49862   0.82002   0.62763   0.00000  Uiso   1.00
H573   H     0.26021   0.56911   0.37788   0.00000  Uiso   1.00
H574   H     0.24679   0.92974   0.62154   0.00000  Uiso   1.00
H575   H     0.24861   0.92998   0.37237   0.00000  Uiso   1.00
H576   H     0.25558   0.56995   0.62742   0.00000  Uiso   1.00
I577   I     0.40855   0.65432   0.38944   0.00000  Uiso   1.00
I578   I     0.34849   0.59215   0.60847   0.00000  Uiso   1.00
I579   I     0.37112   0.54414   0.40159   0.00000  Uiso   1.00
I580   I     0.11462   0.97222   0.57671   0.00000  Uiso   1.00
I581   I     0.39012   0.96924   0.56878   0.00000  Uiso   1.00
I582   I     0.21053   0.63715   0.41732   0.00000  Uiso   1.00
I583   I     0.15857   0.59569   0.61057   0.00000  Uiso   1.00
I584   I     0.27995   0.85678   0.42926   0.00000  Uiso   1.00
I585   I     0.02996   0.89322   0.57074   0.00000  Uiso   1.00
I586   I     0.14012   0.78075   0.43123   0.00000  Uiso   1.00
I587   I     0.46054   0.61283   0.58267   0.00000  Uiso   1.00
I588   I     0.12112   0.70586   0.59841   0.00000  Uiso   1.00
I589   I     0.36462   0.77779   0.42328   0.00000  Uiso   1.00
I590   I     0.41593   0.86048   0.60693   0.00000  Uiso   1.00
I591   I     0.09848   0.65783   0.39153   0.00000  Uiso   1.00
I592   I     0.16592   0.88952   0.39307   0.00000  Uiso   1.00
N593   N     0.00000   0.75000   0.61907   0.00000  Uiso   1.00
N594   N    -0.00000   0.75000   0.38093   0.00000  Uiso   1.00
N595   N     0.25000   0.50000   0.61907   0.00000  Uiso   1.00
N596   N     0.25000   0.50000   0.38093   0.00000  Uiso   1.00
O597   O     0.04580   0.70419   0.53821   0.00000  Uiso   1.00
O598   O     0.20419   0.54581   0.46179   0.00000  Uiso   1.00
O599   O     0.20419   0.54581   0.53821   0.00000  Uiso   1.00
O600   O     0.29580   0.95419   0.46179   0.00000  Uiso   1.00
O601   O     0.20419   0.95419   0.46179   0.00000  Uiso   1.00
O602   O     0.29580   0.54581   0.53821   0.00000  Uiso   1.00
O603   O     0.29580   0.54581   0.46179   0.00000  Uiso   1.00
O604   O     0.20419   0.95419   0.53821   0.00000  Uiso   1.00
O605   O     0.45419   0.79581   0.46179   0.00000  Uiso   1.00
O606   O     0.45419   0.79581   0.53821   0.00000  Uiso   1.00
O607   O     0.04580   0.70419   0.46179   0.00000  Uiso   1.00
O608   O     0.45419   0.70419   0.46179   0.00000  Uiso   1.00
O609   O     0.04580   0.79581   0.53821   0.00000  Uiso   1.00
O610   O     0.04580   0.79581   0.46179   0.00000  Uiso   1.00
O611   O     0.45419   0.70419   0.53821   0.00000  Uiso   1.00
O612   O     0.29580   0.95419   0.53821   0.00000  Uiso   1.00
Zn613  Zn    0.00000   0.75000   0.55104   0.00000  Uiso   1.00
Zn614  Zn    0.00000   0.75000   0.44896   0.00000  Uiso   1.00
Zn615  Zn    0.25000   0.50000   0.55104   0.00000  Uiso   1.00
Zn616  Zn    0.25000   0.50000   0.44896   0.00000  Uiso   1.00
C617   C     0.56248   0.69242   0.49960   0.00000  Uiso   1.00
C618   C     0.50433   0.71135   0.64123   0.00000  Uiso   1.00
C619   C     0.50327   0.71119   0.35573   0.00000  Uiso   1.00
C620   C     0.99858   0.78896   0.64437   0.00000  Uiso   1.00
C621   C     0.75433   0.53865   0.35877   0.00000  Uiso   1.00
C622   C     0.74819   0.96096   0.64101   0.00000  Uiso   1.00
C623   C     0.74857   0.96104   0.35563   0.00000  Uiso   1.00
C624   C     0.75328   0.53881   0.64427   0.00000  Uiso   1.00
C625   C     0.89867   0.62897   0.45572   0.00000  Uiso   1.00
C626   C     0.58729   0.88220   0.53090   0.00000  Uiso   1.00
C627   C     0.62512   0.84128   0.46914   0.00000  Uiso   1.00
C628   C     0.93820   0.80829   0.50080   0.00000  Uiso   1.00
C629   C     0.90861   0.62557   0.53721   0.00000  Uiso   1.00
C630   C     0.62195   0.65810   0.54178   0.00000  Uiso   1.00
C631   C     0.86932   0.83503   0.46920   0.00000  Uiso   1.00
C632   C     0.89974   0.87144   0.53782   0.00000  Uiso   1.00
C633   C     0.62143   0.64966   0.45916   0.00000  Uiso   1.00
C634   C     0.64974   0.87856   0.46218   0.00000  Uiso   1.00
C635   C     0.87143   0.60034   0.54084   0.00000  Uiso   1.00
C636   C     0.87194   0.59191   0.45822   0.00000  Uiso   1.00
C637   C     0.61932   0.91497   0.53080   0.00000  Uiso   1.00
C638   C     0.87512   0.90872   0.53086   0.00000  Uiso   1.00
C639   C     0.94250   0.68721   0.49902   0.00000  Uiso   1.00
C640   C     0.65861   0.62442   0.46278   0.00000  Uiso   1.00
C641   C     0.64868   0.62104   0.54428   0.00000  Uiso   1.00
C642   C     0.83729   0.86780   0.46910   0.00000  Uiso   1.00
C643   C     0.59220   0.84417   0.50184   0.00000  Uiso   1.00
C644   C     0.91599   0.64738   0.49685   0.00000  Uiso   1.00
C645   C     0.90172   0.83815   0.50294   0.00000  Uiso   1.00
C646   C     0.60184   0.66613   0.49972   0.00000  Uiso   1.00
C647   C     0.85184   0.58386   0.50028   0.00000  Uiso   1.00
C648   C     0.65172   0.91185   0.49706   0.00000  Uiso   1.00
C649   C     0.66599   0.60262   0.50315   0.00000  Uiso   1.00
C650   C     0.55988   0.81020   0.50068   0.00000  Uiso   1.00
C651   C     0.84220   0.90583   0.49816   0.00000  Uiso   1.00
C652   C     0.80988   0.93980   0.49932   0.00000  Uiso   1.00
C653   C     0.69250   0.56279   0.50098   0.00000  Uiso   1.00
C654   C     0.68820   0.94171   0.49920   0.00000  Uiso   1.00
C655   C     0.81248   0.55758   0.50040   0.00000  Uiso   1.00
C656   C     0.99819   0.78904   0.35899   0.00000  Uiso   1.00
H657   H     0.99681   0.82026   0.37846   0.00000  Uiso   1.00
H658   H     0.51019   0.68088   0.62212   0.00000  Uiso   1.00
H659   H     0.50557   0.68005   0.37259   0.00000  Uiso   1.00
H660   H     0.99862   0.82002   0.62763   0.00000  Uiso   1.00
H661   H     0.76021   0.56911   0.37788   0.00000  Uiso   1.00
H662   H     0.74679   0.92974   0.62154   0.00000  Uiso   1.00
H663   H     0.74861   0.92998   0.37237   0.00000  Uiso   1.00
H664   H     0.75558   0.56995   0.62742   0.00000  Uiso   1.00
I665   I     0.90855   0.65432   0.38944   0.00000  Uiso   1.00
I666   I     0.84849   0.59215   0.60847   0.00000  Uiso   1.00
I667   I     0.87112   0.54414   0.40159   0.00000  Uiso   1.00
I668   I     0.61462   0.97222   0.57671   0.00000  Uiso   1.00
I669   I     0.89012   0.96924   0.56878   0.00000  Uiso   1.00
I670   I     0.71053   0.63715   0.41732   0.00000  Uiso   1.00
I671   I     0.65857   0.59569   0.61057   0.00000  Uiso   1.00
I672   I     0.77995   0.85678   0.42926   0.00000  Uiso   1.00
I673   I     0.52996   0.89322   0.57074   0.00000  Uiso   1.00
I674   I     0.64012   0.78075   0.43123   0.00000  Uiso   1.00
I675   I     0.96054   0.61283   0.58267   0.00000  Uiso   1.00
I676   I     0.62112   0.70586   0.59841   0.00000  Uiso   1.00
I677   I     0.86462   0.77779   0.42328   0.00000  Uiso   1.00
I678   I     0.91593   0.86048   0.60693   0.00000  Uiso   1.00
I679   I     0.59848   0.65783   0.39153   0.00000  Uiso   1.00
I680   I     0.66592   0.88952   0.39307   0.00000  Uiso   1.00
N681   N     0.50000   0.75000   0.61907   0.00000  Uiso   1.00
N682   N     0.50000   0.75000   0.38093   0.00000  Uiso   1.00
N683   N     0.75000   0.50000   0.61907   0.00000  Uiso   1.00
N684   N     0.75000   0.50000   0.38093   0.00000  Uiso   1.00
O685   O     0.54580   0.70419   0.53821   0.00000  Uiso   1.00
O686   O     0.70419   0.54581   0.46179   0.00000  Uiso   1.00
O687   O     0.70419   0.54581   0.53821   0.00000  Uiso   1.00
O688   O     0.79580   0.95419   0.46179   0.00000  Uiso   1.00
O689   O     0.70419   0.95419   0.46179   0.00000  Uiso   1.00
O690   O     0.79580   0.54581   0.53821   0.00000  Uiso   1.00
O691   O     0.79580   0.54581   0.46179   0.00000  Uiso   1.00
O692   O     0.70419   0.95419   0.53821   0.00000  Uiso   1.00
O693   O     0.95419   0.79581   0.46179   0.00000  Uiso   1.00
O694   O     0.95419   0.79581   0.53821   0.00000  Uiso   1.00
O695   O     0.54580   0.70419   0.46179   0.00000  Uiso   1.00
O696   O     0.95419   0.70419   0.46179   0.00000  Uiso   1.00
O697   O     0.54580   0.79581   0.53821   0.00000  Uiso   1.00
O698   O     0.54580   0.79581   0.46179   0.00000  Uiso   1.00
O699   O     0.95419   0.70419   0.53821   0.00000  Uiso   1.00
O700   O     0.79580   0.95419   0.53821   0.00000  Uiso   1.00
Zn701  Zn    0.50000   0.75000   0.55104   0.00000  Uiso   1.00
Zn702  Zn    0.50000   0.75000   0.44896   0.00000  Uiso   1.00
Zn703  Zn    0.75000   0.50000   0.55104   0.00000  Uiso   1.00
Zn704  Zn    0.75000   0.50000   0.44896   0.00000  Uiso   1.00
C705   C     0.06248   0.19242   0.83293   0.00000  Uiso   1.00
C706   C     0.00433   0.21135   0.97456   0.00000  Uiso   1.00
C707   C     0.00327   0.21119   0.68907   0.00000  Uiso   1.00
C708   C     0.49858   0.28896   0.97771   0.00000  Uiso   1.00
C709   C     0.25433   0.03865   0.69210   0.00000  Uiso   1.00
C710   C     0.24819   0.46096   0.97434   0.00000  Uiso   1.00
C711   C     0.24857   0.46104   0.68896   0.00000  Uiso   1.00
C712   C     0.25328   0.03881   0.97760   0.00000  Uiso   1.00
C713   C     0.39867   0.12897   0.78905   0.00000  Uiso   1.00
C714   C     0.08729   0.38220   0.86424   0.00000  Uiso   1.00
C715   C     0.12512   0.34128   0.80247   0.00000  Uiso   1.00
C716   C     0.43820   0.30829   0.83414   0.00000  Uiso   1.00
C717   C     0.40861   0.12557   0.87055   0.00000  Uiso   1.00
C718   C     0.12195   0.15810   0.87511   0.00000  Uiso   1.00
C719   C     0.36932   0.33503   0.80253   0.00000  Uiso   1.00
C720   C     0.39974   0.37144   0.87116   0.00000  Uiso   1.00
C721   C     0.12143   0.14966   0.79249   0.00000  Uiso   1.00
C722   C     0.14974   0.37856   0.79551   0.00000  Uiso   1.00
C723   C     0.37143   0.10034   0.87417   0.00000  Uiso   1.00
C724   C     0.37194   0.09191   0.79155   0.00000  Uiso   1.00
C725   C     0.11932   0.41497   0.86413   0.00000  Uiso   1.00
C726   C     0.37512   0.40872   0.86419   0.00000  Uiso   1.00
C727   C     0.44250   0.18721   0.83235   0.00000  Uiso   1.00
C728   C     0.15861   0.12442   0.79612   0.00000  Uiso   1.00
C729   C     0.14868   0.12104   0.87762   0.00000  Uiso   1.00
C730   C     0.33729   0.36780   0.80243   0.00000  Uiso   1.00
C731   C     0.09220   0.34417   0.83517   0.00000  Uiso   1.00
C732   C     0.41599   0.14738   0.83018   0.00000  Uiso   1.00
C733   C     0.40172   0.33815   0.83627   0.00000  Uiso   1.00
C734   C     0.10184   0.16613   0.83305   0.00000  Uiso   1.00
C735   C     0.35184   0.08386   0.83361   0.00000  Uiso   1.00
C736   C     0.15172   0.41185   0.83039   0.00000  Uiso   1.00
C737   C     0.16599   0.10262   0.83649   0.00000  Uiso   1.00
C738   C     0.05988   0.31020   0.83401   0.00000  Uiso   1.00
C739   C     0.34220   0.40583   0.83150   0.00000  Uiso   1.00
C740   C     0.30988   0.43980   0.83266   0.00000  Uiso   1.00
C741   C     0.19250   0.06279   0.83431   0.00000  Uiso   1.00
C742   C     0.18820   0.44171   0.83253   0.00000  Uiso   1.00
C743   C     0.31248   0.05758   0.83373   0.00000  Uiso   1.00
C744   C     0.49819   0.28904   0.69232   0.00000  Uiso   1.00
H745   H     0.49681   0.32026   0.71180   0.00000  Uiso   1.00
H746   H     0.01019   0.18088   0.95545   0.00000  Uiso   1.00
H747   H     0.00557   0.18005   0.70592   0.00000  Uiso   1.00
H748   H     0.49862   0.32002   0.96096   0.00000  Uiso   1.00
H749   H     0.26021   0.06911   0.71122   0.00000  Uiso   1.00
H750   H     0.24679   0.42974   0.95487   0.00000  Uiso   1.00
H751   H     0.24861   0.42998   0.70571   0.00000  Uiso   1.00
H752   H     0.25558   0.06995   0.96075   0.00000  Uiso   1.00
I753   I     0.40855   0.15432   0.72277   0.00000  Uiso   1.00
I754   I     0.34849   0.09215   0.94180   0.00000  Uiso   1.00
I755   I     0.37112   0.04414   0.73492   0.00000  Uiso   1.00
I756   I     0.11462   0.47222   0.91005   0.00000  Uiso   1.00
I757   I     0.39012   0.46924   0.90211   0.00000  Uiso   1.00
I758   I     0.21053   0.13715   0.75065   0.00000  Uiso   1.00
I759   I     0.15857   0.09569   0.94390   0.00000  Uiso   1.00
I760   I     0.27995   0.35678   0.76259   0.00000  Uiso   1.00
I761   I     0.02996   0.39322   0.90407   0.00000  Uiso   1.00
I762   I     0.14012   0.28075   0.76456   0.00000  Uiso   1.00
I763   I     0.46054   0.11283   0.91600   0.00000  Uiso   1.00
I764   I     0.12112   0.20586   0.93174   0.00000  Uiso   1.00
I765   I     0.36462   0.27779   0.75661   0.00000  Uiso   1.00
I766   I     0.41593   0.36048   0.94026   0.00000  Uiso   1.00
I767   I     0.09848   0.15783   0.72487   0.00000  Uiso   1.00
I768   I     0.16592   0.38952   0.72641   0.00000  Uiso   1.00
N769   N     0.00000   0.25000   0.95240   0.00000  Uiso   1.00
N770   N    -0.00000   0.25000   0.71427   0.00000  Uiso   1.00
N771   N     0.25000   0.00000   0.95240   0.00000  Uiso   1.00
N772   N     0.25000   0.00000   0.71427   0.00000  Uiso   1.00
O773   O     0.04580   0.20419   0.87154   0.00000  Uiso   1.00
O774   O     0.20419   0.04581   0.79513   0.00000  Uiso   1.00
O775   O     0.20419   0.04581   0.87154   0.00000  Uiso   1.00
O776   O     0.29580   0.45419   0.79513   0.00000  Uiso   1.00
O777   O     0.20419   0.45419   0.79513   0.00000  Uiso   1.00
O778   O     0.29580   0.04581   0.87154   0.00000  Uiso   1.00
O779   O     0.29580   0.04581   0.79513   0.00000  Uiso   1.00
O780   O     0.20419   0.45419   0.87154   0.00000  Uiso   1.00
O781   O     0.45419   0.29581   0.79513   0.00000  Uiso   1.00
O782   O     0.45419   0.29581   0.87154   0.00000  Uiso   1.00
O783   O     0.04580   0.20419   0.79513   0.00000  Uiso   1.00
O784   O     0.45419   0.20419   0.79513   0.00000  Uiso   1.00
O785   O     0.04580   0.29581   0.87154   0.00000  Uiso   1.00
O786   O     0.04580   0.29581   0.79513   0.00000  Uiso   1.00
O787   O     0.45419   0.20419   0.87154   0.00000  Uiso   1.00
O788   O     0.29580   0.45419   0.87154   0.00000  Uiso   1.00
Zn789  Zn    0.00000   0.25000   0.88437   0.00000  Uiso   1.00
Zn790  Zn    0.00000   0.25000   0.78229   0.00000  Uiso   1.00
Zn791  Zn    0.25000   0.00000   0.88437   0.00000  Uiso   1.00
Zn792  Zn    0.25000   0.00000   0.78229   0.00000  Uiso   1.00
C793   C     0.56248   0.19242   0.83293   0.00000  Uiso   1.00
C794   C     0.50433   0.21135   0.97456   0.00000  Uiso   1.00
C795   C     0.50327   0.21119   0.68907   0.00000  Uiso   1.00
C796   C     0.99858   0.28896   0.97771   0.00000  Uiso   1.00
C797   C     0.75433   0.03865   0.69210   0.00000  Uiso   1.00
C798   C     0.74819   0.46096   0.97434   0.00000  Uiso   1.00
C799   C     0.74857   0.46104   0.68896   0.00000  Uiso   1.00
C800   C     0.75328   0.03881   0.97760   0.00000  Uiso   1.00
C801   C     0.89867   0.12897   0.78905   0.00000  Uiso   1.00
C802   C     0.58729   0.38220   0.86424   0.00000  Uiso   1.00
C803   C     0.62512   0.34128   0.80247   0.00000  Uiso   1.00
C804   C     0.93820   0.30829   0.83414   0.00000  Uiso   1.00
C805   C     0.90861   0.12557   0.87055   0.00000  Uiso   1.00
C806   C     0.62195   0.15810   0.87511   0.00000  Uiso   1.00
C807   C     0.86932   0.33503   0.80253   0.00000  Uiso   1.00
C808   C     0.89974   0.37144   0.87116   0.00000  Uiso   1.00
C809   C     0.62143   0.14966   0.79249   0.00000  Uiso   1.00
C810   C     0.64974   0.37856   0.79551   0.00000  Uiso   1.00
C811   C     0.87143   0.10034   0.87417   0.00000  Uiso   1.00
C812   C     0.87194   0.09191   0.79155   0.00000  Uiso   1.00
C813   C     0.61932   0.41497   0.86413   0.00000  Uiso   1.00
C814   C     0.87512   0.40872   0.86419   0.00000  Uiso   1.00
C815   C     0.94250   0.18721   0.83235   0.00000  Uiso   1.00
C816   C     0.65861   0.12442   0.79612   0.00000  Uiso   1.00
C817   C     0.64868   0.12104   0.87762   0.00000  Uiso   1.00
C818   C     0.83729   0.36780   0.80243   0.00000  Uiso   1.00
C819   C     0.59220   0.34417   0.83517   0.00000  Uiso   1.00
C820   C     0.91599   0.14738   0.83018   0.00000  Uiso   1.00
C821   C     0.90172   0.33815   0.83627   0.00000  Uiso   1.00
C822   C     0.60184   0.16613   0.83305   0.00000  Uiso   1.00
C823   C     0.85184   0.08386   0.83361   0.00000  Uiso   1.00
C824   C     0.65172   0.41185   0.83039   0.00000  Uiso   1.00
C825   C     0.66599   0.10262   0.83649   0.00000  Uiso   1.00
C826   C     0.55988   0.31020   0.83401   0.00000  Uiso   1.00
C827   C     0.84220   0.40583   0.83150   0.00000  Uiso   1.00
C828   C     0.80988   0.43980   0.83266   0.00000  Uiso   1.00
C829   C     0.69250   0.06279   0.83431   0.00000  Uiso   1.00
C830   C     0.68820   0.44171   0.83253   0.00000  Uiso   1.00
C831   C     0.81248   0.05758   0.83373   0.00000  Uiso   1.00
C832   C     0.99819   0.28904   0.69232   0.00000  Uiso   1.00
H833   H     0.99681   0.32026   0.71180   0.00000  Uiso   1.00
H834   H     0.51019   0.18088   0.95545   0.00000  Uiso   1.00
H835   H     0.50557   0.18005   0.70592   0.00000  Uiso   1.00
H836   H     0.99862   0.32002   0.96096   0.00000  Uiso   1.00
H837   H     0.76021   0.06911   0.71122   0.00000  Uiso   1.00
H838   H     0.74679   0.42974   0.95487   0.00000  Uiso   1.00
H839   H     0.74861   0.42998   0.70571   0.00000  Uiso   1.00
H840   H     0.75558   0.06995   0.96075   0.00000  Uiso   1.00
I841   I     0.90855   0.15432   0.72277   0.00000  Uiso   1.00
I842   I     0.84849   0.09215   0.94180   0.00000  Uiso   1.00
I843   I     0.87112   0.04414   0.73492   0.00000  Uiso   1.00
I844   I     0.61462   0.47222   0.91005   0.00000  Uiso   1.00
I845   I     0.89012   0.46924   0.90211   0.00000  Uiso   1.00
I846   I     0.71053   0.13715   0.75065   0.00000  Uiso   1.00
I847   I     0.65857   0.09569   0.94390   0.00000  Uiso   1.00
I848   I     0.77995   0.35678   0.76259   0.00000  Uiso   1.00
I849   I     0.52996   0.39322   0.90407   0.00000  Uiso   1.00
I850   I     0.64012   0.28075   0.76456   0.00000  Uiso   1.00
I851   I     0.96054   0.11283   0.91600   0.00000  Uiso   1.00
I852   I     0.62112   0.20586   0.93174   0.00000  Uiso   1.00
I853   I     0.86462   0.27779   0.75661   0.00000  Uiso   1.00
I854   I     0.91593   0.36048   0.94026   0.00000  Uiso   1.00
I855   I     0.59848   0.15783   0.72487   0.00000  Uiso   1.00
I856   I     0.66592   0.38952   0.72641   0.00000  Uiso   1.00
N857   N     0.50000   0.25000   0.95240   0.00000  Uiso   1.00
N858   N     0.50000   0.25000   0.71427   0.00000  Uiso   1.00
N859   N     0.75000   0.00000   0.95240   0.00000  Uiso   1.00
N860   N     0.75000   0.00000   0.71427   0.00000  Uiso   1.00
O861   O     0.54580   0.20419   0.87154   0.00000  Uiso   1.00
O862   O     0.70419   0.04581   0.79513   0.00000  Uiso   1.00
O863   O     0.70419   0.04581   0.87154   0.00000  Uiso   1.00
O864   O     0.79580   0.45419   0.79513   0.00000  Uiso   1.00
O865   O     0.70419   0.45419   0.79513   0.00000  Uiso   1.00
O866   O     0.79580   0.04581   0.87154   0.00000  Uiso   1.00
O867   O     0.79580   0.04581   0.79513   0.00000  Uiso   1.00
O868   O     0.70419   0.45419   0.87154   0.00000  Uiso   1.00
O869   O     0.95419   0.29581   0.79513   0.00000  Uiso   1.00
O870   O     0.95419   0.29581   0.87154   0.00000  Uiso   1.00
O871   O     0.54580   0.20419   0.79513   0.00000  Uiso   1.00
O872   O     0.95419   0.20419   0.79513   0.00000  Uiso   1.00
O873   O     0.54580   0.29581   0.87154   0.00000  Uiso   1.00
O874   O     0.54580   0.29581   0.79513   0.00000  Uiso   1.00
O875   O     0.95419   0.20419   0.87154   0.00000  Uiso   1.00
O876   O     0.79580   0.45419   0.87154   0.00000  Uiso   1.00
Zn877  Zn    0.50000   0.25000   0.88437   0.00000  Uiso   1.00
Zn878  Zn    0.50000   0.25000   0.78229   0.00000  Uiso   1.00
Zn879  Zn    0.75000   0.00000   0.88437   0.00000  Uiso   1.00
Zn880  Zn    0.75000   0.00000   0.78229   0.00000  Uiso   1.00
C881   C     0.06248   0.69242   0.83293   0.00000  Uiso   1.00
C882   C     0.00433   0.71135   0.97456   0.00000  Uiso   1.00
C883   C     0.00327   0.71119   0.68907   0.00000  Uiso   1.00
C884   C     0.49858   0.78896   0.97771   0.00000  Uiso   1.00
C885   C     0.25433   0.53865   0.69210   0.00000  Uiso   1.00
C886   C     0.24819   0.96096   0.97434   0.00000  Uiso   1.00
C887   C     0.24857   0.96104   0.68896   0.00000  Uiso   1.00
C888   C     0.25328   0.53881   0.97760   0.00000  Uiso   1.00
C889   C     0.39867   0.62897   0.78905   0.00000  Uiso   1.00
C890   C     0.08729   0.88220   0.86424   0.00000  Uiso   1.00
C891   C     0.12512   0.84128   0.80247   0.00000  Uiso   1.00
C892   C     0.43820   0.80829   0.83414   0.00000  Uiso   1.00
C893   C     0.40861   0.62557   0.87055   0.00000  Uiso   1.00
C894   C     0.12195   0.65810   0.87511   0.00000  Uiso   1.00
C895   C     0.36932   0.83503   0.80253   0.00000  Uiso   1.00
C896   C     0.39974   0.87144   0.87116   0.00000  Uiso   1.00
C897   C     0.12143   0.64966   0.79249   0.00000  Uiso   1.00
C898   C     0.14974   0.87856   0.79551   0.00000  Uiso   1.00
C899   C     0.37143   0.60034   0.87417   0.00000  Uiso   1.00
C900   C     0.37194   0.59191   0.79155   0.00000  Uiso   1.00
C901   C     0.11932   0.91497   0.86413   0.00000  Uiso   1.00
C902   C     0.37512   0.90872   0.86419   0.00000  Uiso   1.00
C903   C     0.44250   0.68721   0.83235   0.00000  Uiso   1.00
C904   C     0.15861   0.62442   0.79612   0.00000  Uiso   1.00
C905   C     0.14868   0.62104   0.87762   0.00000  Uiso   1.00
C906   C     0.33729   0.86780   0.80243   0.00000  Uiso   1.00
C907   C     0.09220   0.84417   0.83517   0.00000  Uiso   1.00
C908   C     0.41599   0.64738   0.83018   0.00000  Uiso   1.00
C909   C     0.40172   0.83815   0.83627   0.00000  Uiso   1.00
C910   C     0.10184   0.66613   0.83305   0.00000  Uiso   1.00
C911   C     0.35184   0.58386   0.83361   0.00000  Uiso   1.00
C912   C     0.15172   0.91185   0.83039   0.00000  Uiso   1.00
C913   C     0.16599   0.60262   0.83649   0.00000  Uiso   1.00
C914   C     0.05988   0.81020   0.83401   0.00000  Uiso   1.00
C915   C     0.34220   0.90583   0.83150   0.00000  Uiso   1.00
C916   C     0.30988   0.93980   0.83266   0.00000  Uiso   1.00
C917   C     0.19250   0.56279   0.83431   0.00000  Uiso   1.00
C918   C     0.18820   0.94171   0.83253   0.00000  Uiso   1.00
C919   C     0.31248   0.55758   0.83373   0.00000  Uiso   1.00
C920   C     0.49819   0.78904   0.69232   0.00000  Uiso   1.00
H921   H     0.49681   0.82026   0.71180   0.00000  Uiso   1.00
H922   H     0.01019   0.68088   0.95545   0.00000  Uiso   1.00
H923   H     0.00557   0.68005   0.70592   0.00000  Uiso   1.00
H924   H     0.49862   0.82002   0.96096   0.00000  Uiso   1.00
H925   H     0.26021   0.56911   0.71122   0.00000  Uiso   1.00
H926   H     0.24679   0.92974   0.95487   0.00000  Uiso   1.00
H927   H     0.24861   0.92998   0.70571   0.00000  Uiso   1.00
H928   H     0.25558   0.56995   0.96075   0.00000  Uiso   1.00
I929   I     0.40855   0.65432   0.72277   0.00000  Uiso   1.00
I930   I     0.34849   0.59215   0.94180   0.00000  Uiso   1.00
I931   I     0.37112   0.54414   0.73492   0.00000  Uiso   1.00
I932   I     0.11462   0.97222   0.91005   0.00000  Uiso   1.00
I933   I     0.39012   0.96924   0.90211   0.00000  Uiso   1.00
I934   I     0.21053   0.63715   0.75065   0.00000  Uiso   1.00
I935   I     0.15857   0.59569   0.94390   0.00000  Uiso   1.00
I936   I     0.27995   0.85678   0.76259   0.00000  Uiso   1.00
I937   I     0.02996   0.89322   0.90407   0.00000  Uiso   1.00
I938   I     0.14012   0.78075   0.76456   0.00000  Uiso   1.00
I939   I     0.46054   0.61283   0.91600   0.00000  Uiso   1.00
I940   I     0.12112   0.70586   0.93174   0.00000  Uiso   1.00
I941   I     0.36462   0.77779   0.75661   0.00000  Uiso   1.00
I942   I     0.41593   0.86048   0.94026   0.00000  Uiso   1.00
I943   I     0.09848   0.65783   0.72487   0.00000  Uiso   1.00
I944   I     0.16592   0.88952   0.72641   0.00000  Uiso   1.00
N945   N     0.00000   0.75000   0.95240   0.00000  Uiso   1.00
N946   N    -0.00000   0.75000   0.71427   0.00000  Uiso   1.00
N947   N     0.25000   0.50000   0.95240   0.00000  Uiso   1.00
N948   N     0.25000   0.50000   0.71427   0.00000  Uiso   1.00
O949   O     0.04580   0.70419   0.87154   0.00000  Uiso   1.00
O950   O     0.20419   0.54581   0.79513   0.00000  Uiso   1.00
O951   O     0.20419   0.54581   0.87154   0.00000  Uiso   1.00
O952   O     0.29580   0.95419   0.79513   0.00000  Uiso   1.00
O953   O     0.20419   0.95419   0.79513   0.00000  Uiso   1.00
O954   O     0.29580   0.54581   0.87154   0.00000  Uiso   1.00
O955   O     0.29580   0.54581   0.79513   0.00000  Uiso   1.00
O956   O     0.20419   0.95419   0.87154   0.00000  Uiso   1.00
O957   O     0.45419   0.79581   0.79513   0.00000  Uiso   1.00
O958   O     0.45419   0.79581   0.87154   0.00000  Uiso   1.00
O959   O     0.04580   0.70419   0.79513   0.00000  Uiso   1.00
O960   O     0.45419   0.70419   0.79513   0.00000  Uiso   1.00
O961   O     0.04580   0.79581   0.87154   0.00000  Uiso   1.00
O962   O     0.04580   0.79581   0.79513   0.00000  Uiso   1.00
O963   O     0.45419   0.70419   0.87154   0.00000  Uiso   1.00
O964   O     0.29580   0.95419   0.87154   0.00000  Uiso   1.00
Zn965  Zn    0.00000   0.75000   0.88437   0.00000  Uiso   1.00
Zn966  Zn    0.00000   0.75000   0.78229   0.00000  Uiso   1.00
Zn967  Zn    0.25000   0.50000   0.88437   0.00000  Uiso   1.00
Zn968  Zn    0.25000   0.50000   0.78229   0.00000  Uiso   1.00
C969   C     0.56248   0.69242   0.83293   0.00000  Uiso   1.00
C970   C     0.50433   0.71135   0.97456   0.00000  Uiso   1.00
C971   C     0.50327   0.71119   0.68907   0.00000  Uiso   1.00
C972   C     0.99858   0.78896   0.97771   0.00000  Uiso   1.00
C973   C     0.75433   0.53865   0.69210   0.00000  Uiso   1.00
C974   C     0.74819   0.96096   0.97434   0.00000  Uiso   1.00
C975   C     0.74857   0.96104   0.68896   0.00000  Uiso   1.00
C976   C     0.75328   0.53881   0.97760   0.00000  Uiso   1.00
C977   C     0.89867   0.62897   0.78905   0.00000  Uiso   1.00
C978   C     0.58729   0.88220   0.86424   0.00000  Uiso   1.00
C979   C     0.62512   0.84128   0.80247   0.00000  Uiso   1.00
C980   C     0.93820   0.80829   0.83414   0.00000  Uiso   1.00
C981   C     0.90861   0.62557   0.87055   0.00000  Uiso   1.00
C982   C     0.62195   0.65810   0.87511   0.00000  Uiso   1.00
C983   C     0.86932   0.83503   0.80253   0.00000  Uiso   1.00
C984   C     0.89974   0.87144   0.87116   0.00000  Uiso   1.00
C985   C     0.62143   0.64966   0.79249   0.00000  Uiso   1.00
C986   C     0.64974   0.87856   0.79551   0.00000  Uiso   1.00
C987   C     0.87143   0.60034   0.87417   0.00000  Uiso   1.00
C988   C     0.87194   0.59191   0.79155   0.00000  Uiso   1.00
C989   C     0.61932   0.91497   0.86413   0.00000  Uiso   1.00
C990   C     0.87512   0.90872   0.86419   0.00000  Uiso   1.00
C991   C     0.94250   0.68721   0.83235   0.00000  Uiso   1.00
C992   C     0.65861   0.62442   0.79612   0.00000  Uiso   1.00
C993   C     0.64868   0.62104   0.87762   0.00000  Uiso   1.00
C994   C     0.83729   0.86780   0.80243   0.00000  Uiso   1.00
C995   C     0.59220   0.84417   0.83517   0.00000  Uiso   1.00
C996   C     0.91599   0.64738   0.83018   0.00000  Uiso   1.00
C997   C     0.90172   0.83815   0.83627   0.00000  Uiso   1.00
C998   C     0.60184   0.66613   0.83305   0.00000  Uiso   1.00
C999   C     0.85184   0.58386   0.83361   0.00000  Uiso   1.00
C1000  C     0.65172   0.91185   0.83039   0.00000  Uiso   1.00
C1001  C     0.66599   0.60262   0.83649   0.00000  Uiso   1.00
C1002  C     0.55988   0.81020   0.83401   0.00000  Uiso   1.00
C1003  C     0.84220   0.90583   0.83150   0.00000  Uiso   1.00
C1004  C     0.80988   0.93980   0.83266   0.00000  Uiso   1.00
C1005  C     0.69250   0.56279   0.83431   0.00000  Uiso   1.00
C1006  C     0.68820   0.94171   0.83253   0.00000  Uiso   1.00
C1007  C     0.81248   0.55758   0.83373   0.00000  Uiso   1.00
C1008  C     0.99819   0.78904   0.69232   0.00000  Uiso   1.00
H1009  H     0.99681   0.82026   0.71180   0.00000  Uiso   1.00
H1010  H     0.51019   0.68088   0.95545   0.00000  Uiso   1.00
H1011  H     0.50557   0.68005   0.70592   0.00000  Uiso   1.00
H1012  H     0.99862   0.82002   0.96096   0.00000  Uiso   1.00
H1013  H     0.76021   0.56911   0.71122   0.00000  Uiso   1.00
H1014  H     0.74679   0.92974   0.95487   0.00000  Uiso   1.00
H1015  H     0.74861   0.92998   0.70571   0.00000  Uiso   1.00
H1016  H     0.75558   0.56995   0.96075   0.00000  Uiso   1.00
I1017  I     0.90855   0.65432   0.72277   0.00000  Uiso   1.00
I1018  I     0.84849   0.59215   0.94180   0.00000  Uiso   1.00
I1019  I     0.87112   0.54414   0.73492   0.00000  Uiso   1.00
I1020  I     0.61462   0.97222   0.91005   0.00000  Uiso   1.00
I1021  I     0.89012   0.96924   0.90211   0.00000  Uiso   1.00
I1022  I     0.71053   0.63715   0.75065   0.00000  Uiso   1.00
I1023  I     0.65857   0.59569   0.94390   0.00000  Uiso   1.00
I1024  I     0.77995   0.85678   0.76259   0.00000  Uiso   1.00
I1025  I     0.52996   0.89322   0.90407   0.00000  Uiso   1.00
I1026  I     0.64012   0.78075   0.76456   0.00000  Uiso   1.00
I1027  I     0.96054   0.61283   0.91600   0.00000  Uiso   1.00
I1028  I     0.62112   0.70586   0.93174   0.00000  Uiso   1.00
I1029  I     0.86462   0.77779   0.75661   0.00000  Uiso   1.00
I1030  I     0.91593   0.86048   0.94026   0.00000  Uiso   1.00
I1031  I     0.59848   0.65783   0.72487   0.00000  Uiso   1.00
I1032  I     0.66592   0.88952   0.72641   0.00000  Uiso   1.00
N1033  N     0.50000   0.75000   0.95240   0.00000  Uiso   1.00
N1034  N     0.50000   0.75000   0.71427   0.00000  Uiso   1.00
N1035  N     0.75000   0.50000   0.95240   0.00000  Uiso   1.00
N1036  N     0.75000   0.50000   0.71427   0.00000  Uiso   1.00
O1037  O     0.54580   0.70419   0.87154   0.00000  Uiso   1.00
O1038  O     0.70419   0.54581   0.79513   0.00000  Uiso   1.00
O1039  O     0.70419   0.54581   0.87154   0.00000  Uiso   1.00
O1040  O     0.79580   0.95419   0.79513   0.00000  Uiso   1.00
O1041  O     0.70419   0.95419   0.79513   0.00000  Uiso   1.00
O1042  O     0.79580   0.54581   0.87154   0.00000  Uiso   1.00
O1043  O     0.79580   0.54581   0.79513   0.00000  Uiso   1.00
O1044  O     0.70419   0.95419   0.87154   0.00000  Uiso   1.00
O1045  O     0.95419   0.79581   0.79513   0.00000  Uiso   1.00
O1046  O     0.95419   0.79581   0.87154   0.00000  Uiso   1.00
O1047  O     0.54580   0.70419   0.79513   0.00000  Uiso   1.00
O1048  O     0.95419   0.70419   0.79513   0.00000  Uiso   1.00
O1049  O     0.54580   0.79581   0.87154   0.00000  Uiso   1.00
O1050  O     0.54580   0.79581   0.79513   0.00000  Uiso   1.00
O1051  O     0.95419   0.70419   0.87154   0.00000  Uiso   1.00
O1052  O     0.79580   0.95419   0.87154   0.00000  Uiso   1.00
Zn1053 Zn    0.50000   0.75000   0.88437   0.00000  Uiso   1.00
Zn1054 Zn    0.50000   0.75000   0.78229   0.00000  Uiso   1.00
Zn1055 Zn    0.75000   0.50000   0.88437   0.00000  Uiso   1.00
Zn1056 Zn    0.75000   0.50000   0.78229   0.00000  Uiso   1.00
loop_
_geom_bond_atom_site_label_1
_geom_bond_atom_site_label_2
_geom_bond_distance
_geom_bond_site_symmetry_2
_ccdc_geom_bond_type
C1     O69     1.285   .     A
C1     O79     1.289   .     A
C1     C30     1.444   .     S
C2     N65     1.362   .     A
C2     H42     1.072   .     S
C2     C355    1.411   .     S
C3     H43     1.080   .     S
C3     C706    1.411   1_554 S
C3     N66     1.362   .     S
C4     H44     1.074   .     S
C4     C392    1.413   .     S
C4     N153    1.364   .     S
C5     N68     1.362   .     A
C5     H45     1.072   .     S
C5     C712    1.411   1_554 S
C6     H46     1.082   .     S
C6     C359    1.413   .     S
C6     N243    1.364   .     S
C7     H47     1.074   .     S
C7     C710    1.413   1_554 S
C7     N244    1.364   .     S
C8     H48     1.080   .     S
C8     N67     1.362   .     A
C8     C357    1.411   .     S
C9     I49     2.147   .     S
C9     C20     1.389   .     A
C9     C28     1.416   .     A
C10    C27     1.410   .     A
C10    C21     1.393   .     A
C10    I57     2.135   .     S
C11    C18     1.374   .     A
C11    I58     2.148   .     S
C11    C27     1.397   .     A
C12    C29     1.436   .     S
C12    O78     1.277   .     A
C12    O77     1.292   .     A
C13    C28     1.400   .     A
C13    C19     1.378   .     A
C13    I59     2.128   .     S
C14    C30     1.415   .     A
C14    I60     2.159   .     S
C14    C25     1.389   .     A
C15    C29     1.407   .     A
C15    C26     1.393   .     A
C15    I61     2.152   .     S
C16    I62     2.135   .     S
C16    C29     1.407   .     A
C16    C22     1.374   .     A
C17    C30     1.411   .     A
C17    C24     1.378   .     A
C17    I63     2.138   .     S
C18    C32     1.407   .     A
C18    I64     2.135   .     S
C19    C31     1.411   .     A
C19    I50     2.138   .     S
C20    I51     2.159   .     S
C20    C31     1.415   .     A
C21    C32     1.407   .     A
C21    I52     2.152   .     S
C22    C35     1.397   .     A
C22    I53     2.148   .     S
C23    O83     1.295   .     A
C23    C28     1.448   .     S
C23    O80     1.280   .     A
C24    I54     2.128   .     S
C24    C33     1.400   .     A
C25    I55     2.147   .     S
C25    C33     1.416   .     A
C26    C35     1.410   .     A
C26    I56     2.135   .     S
C27    C34     1.424   .     S
C31    C39     1.444   .     S
C32    C38     1.436   .     S
C33    C37     1.448   .     S
C34    O81     1.279   .     A
C34    O82     1.284   .     A
C35    C36     1.424   .     S
C36    O84     1.284   .     A
C36    O72     1.279   .     A
C37    O70     1.295   .     A
C37    O71     1.280   .     A
C38    O76     1.292   .     A
C38    O73     1.277   .     A
C39    O74     1.289   .     A
C39    O75     1.285   .     A
C40    N154    1.364   .     A
C40    H41     1.082   .     S
C40    C708    1.413   1_554 S
N65    Zn85    2.005   .     S
N65    C92     1.364   1_455 S
N66    C128    1.364   1_455 A
N66    Zn86    2.005   .     S
N67    Zn87    2.005   .     S
N67    C182    1.364   1_545 S
N68    Zn88    2.005   .     S
N68    C183    1.364   1_545 S
O69    Zn85    1.995   .     S
O70    Zn88    1.995   .     S
O71    Zn87    2.016   .     S
O72    Zn264   2.016   .     S
O73    Zn264   2.016   .     S
O74    Zn87    2.016   .     S
O75    Zn88    1.995   .     S
O76    Zn263   1.995   .     S
O77    Zn174   1.995   .     S
O78    Zn173   2.016   .     S
O79    Zn86    2.016   .     S
O80    Zn174   2.016   .     S
O81    Zn85    2.016   .     S
O82    Zn86    1.995   .     S
O83    Zn173   1.995   .     S
O84    Zn263   1.995   .     S
Zn85   O166    2.016   1_455 S
Zn85   O171    1.995   1_455 S
Zn86   O165    1.995   1_455 S
Zn86   O168    2.016   1_455 S
Zn87   O252    1.995   1_545 S
Zn87   O260    1.995   1_545 S
Zn88   O248    2.016   1_545 S
Zn88   O249    2.016   1_545 S
C89    O157    1.285   .     A
C89    O167    1.289   .     A
C89    C118    1.444   .     S
C90    N153    1.362   .     A
C90    H130    1.072   .     S
C90    C443    1.411   .     S
C91    H131    1.080   .     S
C91    C794    1.411   1_554 S
C91    N154    1.362   .     S
C92    H132    1.074   .     S
C92    C480    1.413   .     S
C92    N65     1.364   1_655 S
C93    N156    1.362   .     A
C93    H133    1.072   .     S
C93    C800    1.411   1_554 S
C94    H134    1.082   .     S
C94    C447    1.413   .     S
C94    N331    1.364   .     S
C95    H135    1.074   .     S
C95    C798    1.413   1_554 S
C95    N332    1.364   .     S
C96    H136    1.080   .     S
C96    N155    1.362   .     A
C96    C445    1.411   .     S
C97    I137    2.147   .     S
C97    C108    1.389   .     A
C97    C116    1.416   .     A
C98    C115    1.410   .     A
C98    C109    1.393   .     A
C98    I145    2.135   .     S
C99    C106    1.374   .     A
C99    I146    2.148   .     S
C99    C115    1.397   .     A
C100   C117    1.436   .     S
C100   O166    1.277   .     A
C100   O165    1.292   .     A
C101   C116    1.400   .     A
C101   C107    1.378   .     A
C101   I147    2.128   .     S
C102   C118    1.415   .     A
C102   I148    2.159   .     S
C102   C113    1.389   .     A
C103   C117    1.407   .     A
C103   C114    1.393   .     A
C103   I149    2.152   .     S
C104   I150    2.135   .     S
C104   C117    1.407   .     A
C104   C110    1.374   .     A
C105   C118    1.411   .     A
C105   C112    1.378   .     A
C105   I151    2.138   .     S
C106   C120    1.407   .     A
C106   I152    2.135   .     S
C107   C119    1.411   .     A
C107   I138    2.138   .     S
C108   I139    2.159   .     S
C108   C119    1.415   .     A
C109   C120    1.407   .     A
C109   I140    2.152   .     S
C110   C123    1.397   .     A
C110   I141    2.148   .     S
C111   O171    1.295   .     A
C111   C116    1.448   .     S
C111   O168    1.280   .     A
C112   I142    2.128   .     S
C112   C121    1.400   .     A
C113   I143    2.147   .     S
C113   C121    1.416   .     A
C114   C123    1.410   .     A
C114   I144    2.135   .     S
C115   C122    1.424   .     S
C119   C127    1.444   .     S
C120   C126    1.436   .     S
C121   C125    1.448   .     S
C122   O169    1.279   .     A
C122   O170    1.284   .     A
C123   C124    1.424   .     S
C124   O172    1.284   .     A
C124   O160    1.279   .     A
C125   O158    1.295   .     A
C125   O159    1.280   .     A
C126   O164    1.292   .     A
C126   O161    1.277   .     A
C127   O162    1.289   .     A
C127   O163    1.285   .     A
C128   N66     1.364   1_655 A
C128   H129    1.082   .     S
C128   C796    1.413   1_554 S
N153   Zn173   2.005   .     S
N154   Zn174   2.005   .     S
N155   Zn175   2.005   .     S
N155   C270    1.364   1_545 S
N156   Zn176   2.005   .     S
N156   C271    1.364   1_545 S
O157   Zn173   1.995   .     S
O158   Zn176   1.995   .     S
O159   Zn175   2.016   .     S
O160   Zn352   2.016   .     S
O161   Zn352   2.016   .     S
O162   Zn175   2.016   .     S
O163   Zn176   1.995   .     S
O164   Zn351   1.995   .     S
O165   Zn86    1.995   1_655 S
O166   Zn85    2.016   1_655 S
O167   Zn174   2.016   .     S
O168   Zn86    2.016   1_655 S
O169   Zn173   2.016   .     S
O170   Zn174   1.995   .     S
O171   Zn85    1.995   1_655 S
O172   Zn351   1.995   .     S
Zn175  O340    1.995   1_545 S
Zn175  O348    1.995   1_545 S
Zn176  O336    2.016   1_545 S
Zn176  O337    2.016   1_545 S
C177   O245    1.285   .     A
C177   O255    1.289   .     A
C177   C206    1.444   .     S
C178   N241    1.362   .     A
C178   H218    1.072   .     S
C178   C531    1.411   .     S
C179   H219    1.080   .     S
C179   C882    1.411   1_554 S
C179   N242    1.362   .     S
C180   H220    1.074   .     S
C180   C568    1.413   .     S
C180   N329    1.364   .     S
C181   N244    1.362   .     A
C181   H221    1.072   .     S
C181   C888    1.411   1_554 S
C182   H222    1.082   .     S
C182   C535    1.413   .     S
C182   N67     1.364   1_565 S
C183   H223    1.074   .     S
C183   C886    1.413   1_554 S
C183   N68     1.364   1_565 S
C184   H224    1.080   .     S
C184   N243    1.362   .     A
C184   C533    1.411   .     S
C185   I225    2.147   .     S
C185   C196    1.389   .     A
C185   C204    1.416   .     A
C186   C203    1.410   .     A
C186   C197    1.393   .     A
C186   I233    2.135   .     S
C187   C194    1.374   .     A
C187   I234    2.148   .     S
C187   C203    1.397   .     A
C188   C205    1.436   .     S
C188   O254    1.277   .     A
C188   O253    1.292   .     A
C189   C204    1.400   .     A
C189   C195    1.378   .     A
C189   I235    2.128   .     S
C190   C206    1.415   .     A
C190   I236    2.159   .     S
C190   C201    1.389   .     A
C191   C205    1.407   .     A
C191   C202    1.393   .     A
C191   I237    2.152   .     S
C192   I238    2.135   .     S
C192   C205    1.407   .     A
C192   C198    1.374   .     A
C193   C206    1.411   .     A
C193   C200    1.378   .     A
C193   I239    2.138   .     S
C194   C208    1.407   .     A
C194   I240    2.135   .     S
C195   C207    1.411   .     A
C195   I226    2.138   .     S
C196   I227    2.159   .     S
C196   C207    1.415   .     A
C197   C208    1.407   .     A
C197   I228    2.152   .     S
C198   C211    1.397   .     A
C198   I229    2.148   .     S
C199   O259    1.295   .     A
C199   C204    1.448   .     S
C199   O256    1.280   .     A
C200   I230    2.128   .     S
C200   C209    1.400   .     A
C201   I231    2.147   .     S
C201   C209    1.416   .     A
C202   C211    1.410   .     A
C202   I232    2.135   .     S
C203   C210    1.424   .     S
C207   C215    1.444   .     S
C208   C214    1.436   .     S
C209   C213    1.448   .     S
C210   O257    1.279   .     A
C210   O258    1.284   .     A
C211   C212    1.424   .     S
C212   O260    1.284   .     A
C212   O248    1.279   .     A
C213   O246    1.295   .     A
C213   O247    1.280   .     A
C214   O252    1.292   .     A
C214   O249    1.277   .     A
C215   O250    1.289   .     A
C215   O251    1.285   .     A
C216   N330    1.364   .     A
C216   H217    1.082   .     S
C216   C884    1.413   1_554 S
N241   Zn261   2.005   .     S
N241   C268    1.364   1_455 S
N242   C304    1.364   1_455 A
N242   Zn262   2.005   .     S
N243   Zn263   2.005   .     S
N244   Zn264   2.005   .     S
O245   Zn261   1.995   .     S
O246   Zn264   1.995   .     S
O247   Zn263   2.016   .     S
O248   Zn88    2.016   1_565 S
O249   Zn88    2.016   1_565 S
O250   Zn263   2.016   .     S
O251   Zn264   1.995   .     S
O252   Zn87    1.995   1_565 S
O253   Zn350   1.995   .     S
O254   Zn349   2.016   .     S
O255   Zn262   2.016   .     S
O256   Zn350   2.016   .     S
O257   Zn261   2.016   .     S
O258   Zn262   1.995   .     S
O259   Zn349   1.995   .     S
O260   Zn87    1.995   1_565 S
Zn261  O342    2.016   1_455 S
Zn261  O347    1.995   1_455 S
Zn262  O341    1.995   1_455 S
Zn262  O344    2.016   1_455 S
C265   O333    1.285   .     A
C265   O343    1.289   .     A
C265   C294    1.444   .     S
C266   N329    1.362   .     A
C266   H306    1.072   .     S
C266   C619    1.411   .     S
C267   H307    1.080   .     S
C267   C970    1.411   1_554 S
C267   N330    1.362   .     S
C268   H308    1.074   .     S
C268   C656    1.413   .     S
C268   N241    1.364   1_655 S
C269   N332    1.362   .     A
C269   H309    1.072   .     S
C269   C976    1.411   1_554 S
C270   H310    1.082   .     S
C270   C623    1.413   .     S
C270   N155    1.364   1_565 S
C271   H311    1.074   .     S
C271   C974    1.413   1_554 S
C271   N156    1.364   1_565 S
C272   H312    1.080   .     S
C272   N331    1.362   .     A
C272   C621    1.411   .     S
C273   I313    2.147   .     S
C273   C284    1.389   .     A
C273   C292    1.416   .     A
C274   C291    1.410   .     A
C274   C285    1.393   .     A
C274   I321    2.135   .     S
C275   C282    1.374   .     A
C275   I322    2.148   .     S
C275   C291    1.397   .     A
C276   C293    1.436   .     S
C276   O342    1.277   .     A
C276   O341    1.292   .     A
C277   C292    1.400   .     A
C277   C283    1.378   .     A
C277   I323    2.128   .     S
C278   C294    1.415   .     A
C278   I324    2.159   .     S
C278   C289    1.389   .     A
C279   C293    1.407   .     A
C279   C290    1.393   .     A
C279   I325    2.152   .     S
C280   I326    2.135   .     S
C280   C293    1.407   .     A
C280   C286    1.374   .     A
C281   C294    1.411   .     A
C281   C288    1.378   .     A
C281   I327    2.138   .     S
C282   C296    1.407   .     A
C282   I328    2.135   .     S
C283   C295    1.411   .     A
C283   I314    2.138   .     S
C284   I315    2.159   .     S
C284   C295    1.415   .     A
C285   C296    1.407   .     A
C285   I316    2.152   .     S
C286   C299    1.397   .     A
C286   I317    2.148   .     S
C287   O347    1.295   .     A
C287   C292    1.448   .     S
C287   O344    1.280   .     A
C288   I318    2.128   .     S
C288   C297    1.400   .     A
C289   I319    2.147   .     S
C289   C297    1.416   .     A
C290   C299    1.410   .     A
C290   I320    2.135   .     S
C291   C298    1.424   .     S
C295   C303    1.444   .     S
C296   C302    1.436   .     S
C297   C301    1.448   .     S
C298   O345    1.279   .     A
C298   O346    1.284   .     A
C299   C300    1.424   .     S
C300   O348    1.284   .     A
C300   O336    1.279   .     A
C301   O334    1.295   .     A
C301   O335    1.280   .     A
C302   O340    1.292   .     A
C302   O337    1.277   .     A
C303   O338    1.289   .     A
C303   O339    1.285   .     A
C304   N242    1.364   1_655 A
C304   H305    1.082   .     S
C304   C972    1.413   1_554 S
N329   Zn349   2.005   .     S
N330   Zn350   2.005   .     S
N331   Zn351   2.005   .     S
N332   Zn352   2.005   .     S
O333   Zn349   1.995   .     S
O334   Zn352   1.995   .     S
O335   Zn351   2.016   .     S
O336   Zn176   2.016   1_565 S
O337   Zn176   2.016   1_565 S
O338   Zn351   2.016   .     S
O339   Zn352   1.995   .     S
O340   Zn175   1.995   1_565 S
O341   Zn262   1.995   1_655 S
O342   Zn261   2.016   1_655 S
O343   Zn350   2.016   .     S
O344   Zn262   2.016   1_655 S
O345   Zn349   2.016   .     S
O346   Zn350   1.995   .     S
O347   Zn261   1.995   1_655 S
O348   Zn175   1.995   1_565 S
C353   O421    1.285   .     A
C353   O431    1.289   .     A
C353   C382    1.444   .     S
C354   N417    1.362   .     A
C354   H394    1.072   .     S
C354   C707    1.411   .     S
C355   H395    1.080   .     S
C355   N418    1.362   .     S
C356   H396    1.074   .     S
C356   C744    1.413   .     S
C356   N505    1.364   .     S
C357   N420    1.362   .     A
C357   H397    1.072   .     S
C358   H398    1.082   .     S
C358   C711    1.413   .     S
C358   N595    1.364   .     S
C359   H399    1.074   .     S
C359   N596    1.364   .     S
C360   H400    1.080   .     S
C360   N419    1.362   .     A
C360   C709    1.411   .     S
C361   I401    2.147   .     S
C361   C372    1.389   .     A
C361   C380    1.416   .     A
C362   C379    1.410   .     A
C362   C373    1.393   .     A
C362   I409    2.135   .     S
C363   C370    1.374   .     A
C363   I410    2.148   .     S
C363   C379    1.397   .     A
C364   C381    1.436   .     S
C364   O430    1.277   .     A
C364   O429    1.292   .     A
C365   C380    1.400   .     A
C365   C371    1.378   .     A
C365   I411    2.128   .     S
C366   C382    1.415   .     A
C366   I412    2.159   .     S
C366   C377    1.389   .     A
C367   C381    1.407   .     A
C367   C378    1.393   .     A
C367   I413    2.152   .     S
C368   I414    2.135   .     S
C368   C381    1.407   .     A
C368   C374    1.374   .     A
C369   C382    1.411   .     A
C369   C376    1.378   .     A
C369   I415    2.138   .     S
C370   C384    1.407   .     A
C370   I416    2.135   .     S
C371   C383    1.411   .     A
C371   I402    2.138   .     S
C372   I403    2.159   .     S
C372   C383    1.415   .     A
C373   C384    1.407   .     A
C373   I404    2.152   .     S
C374   C387    1.397   .     A
C374   I405    2.148   .     S
C375   O435    1.295   .     A
C375   C380    1.448   .     S
C375   O432    1.280   .     A
C376   I406    2.128   .     S
C376   C385    1.400   .     A
C377   I407    2.147   .     S
C377   C385    1.416   .     A
C378   C387    1.410   .     A
C378   I408    2.135   .     S
C379   C386    1.424   .     S
C383   C391    1.444   .     S
C384   C390    1.436   .     S
C385   C389    1.448   .     S
C386   O433    1.279   .     A
C386   O434    1.284   .     A
C387   C388    1.424   .     S
C388   O436    1.284   .     A
C388   O424    1.279   .     A
C389   O422    1.295   .     A
C389   O423    1.280   .     A
C390   O428    1.292   .     A
C390   O425    1.277   .     A
C391   O426    1.289   .     A
C391   O427    1.285   .     A
C392   N506    1.364   .     A
C392   H393    1.082   .     S
N417   Zn437   2.005   .     S
N417   C444    1.364   1_455 S
N418   C480    1.364   1_455 A
N418   Zn438   2.005   .     S
N419   Zn439   2.005   .     S
N419   C534    1.364   1_545 S
N420   Zn440   2.005   .     S
N420   C535    1.364   1_545 S
O421   Zn437   1.995   .     S
O422   Zn440   1.995   .     S
O423   Zn439   2.016   .     S
O424   Zn616   2.016   .     S
O425   Zn616   2.016   .     S
O426   Zn439   2.016   .     S
O427   Zn440   1.995   .     S
O428   Zn615   1.995   .     S
O429   Zn526   1.995   .     S
O430   Zn525   2.016   .     S
O431   Zn438   2.016   .     S
O432   Zn526   2.016   .     S
O433   Zn437   2.016   .     S
O434   Zn438   1.995   .     S
O435   Zn525   1.995   .     S
O436   Zn615   1.995   .     S
Zn437  O518    2.016   1_455 S
Zn437  O523    1.995   1_455 S
Zn438  O517    1.995   1_455 S
Zn438  O520    2.016   1_455 S
Zn439  O604    1.995   1_545 S
Zn439  O612    1.995   1_545 S
Zn440  O600    2.016   1_545 S
Zn440  O601    2.016   1_545 S
C441   O509    1.285   .     A
C441   O519    1.289   .     A
C441   C470    1.444   .     S
C442   N505    1.362   .     A
C442   H482    1.072   .     S
C442   C795    1.411   .     S
C443   H483    1.080   .     S
C443   N506    1.362   .     S
C444   H484    1.074   .     S
C444   C832    1.413   .     S
C444   N417    1.364   1_655 S
C445   N508    1.362   .     A
C445   H485    1.072   .     S
C446   H486    1.082   .     S
C446   C799    1.413   .     S
C446   N683    1.364   .     S
C447   H487    1.074   .     S
C447   N684    1.364   .     S
C448   H488    1.080   .     S
C448   N507    1.362   .     A
C448   C797    1.411   .     S
C449   I489    2.147   .     S
C449   C460    1.389   .     A
C449   C468    1.416   .     A
C450   C467    1.410   .     A
C450   C461    1.393   .     A
C450   I497    2.135   .     S
C451   C458    1.374   .     A
C451   I498    2.148   .     S
C451   C467    1.397   .     A
C452   C469    1.436   .     S
C452   O518    1.277   .     A
C452   O517    1.292   .     A
C453   C468    1.400   .     A
C453   C459    1.378   .     A
C453   I499    2.128   .     S
C454   C470    1.415   .     A
C454   I500    2.159   .     S
C454   C465    1.389   .     A
C455   C469    1.407   .     A
C455   C466    1.393   .     A
C455   I501    2.152   .     S
C456   I502    2.135   .     S
C456   C469    1.407   .     A
C456   C462    1.374   .     A
C457   C470    1.411   .     A
C457   C464    1.378   .     A
C457   I503    2.138   .     S
C458   C472    1.407   .     A
C458   I504    2.135   .     S
C459   C471    1.411   .     A
C459   I490    2.138   .     S
C460   I491    2.159   .     S
C460   C471    1.415   .     A
C461   C472    1.407   .     A
C461   I492    2.152   .     S
C462   C475    1.397   .     A
C462   I493    2.148   .     S
C463   O523    1.295   .     A
C463   C468    1.448   .     S
C463   O520    1.280   .     A
C464   I494    2.128   .     S
C464   C473    1.400   .     A
C465   I495    2.147   .     S
C465   C473    1.416   .     A
C466   C475    1.410   .     A
C466   I496    2.135   .     S
C467   C474    1.424   .     S
C471   C479    1.444   .     S
C472   C478    1.436   .     S
C473   C477    1.448   .     S
C474   O521    1.279   .     A
C474   O522    1.284   .     A
C475   C476    1.424   .     S
C476   O524    1.284   .     A
C476   O512    1.279   .     A
C477   O510    1.295   .     A
C477   O511    1.280   .     A
C478   O516    1.292   .     A
C478   O513    1.277   .     A
C479   O514    1.289   .     A
C479   O515    1.285   .     A
C480   N418    1.364   1_655 A
C480   H481    1.082   .     S
N505   Zn525   2.005   .     S
N506   Zn526   2.005   .     S
N507   Zn527   2.005   .     S
N507   C622    1.364   1_545 S
N508   Zn528   2.005   .     S
N508   C623    1.364   1_545 S
O509   Zn525   1.995   .     S
O510   Zn528   1.995   .     S
O511   Zn527   2.016   .     S
O512   Zn704   2.016   .     S
O513   Zn704   2.016   .     S
O514   Zn527   2.016   .     S
O515   Zn528   1.995   .     S
O516   Zn703   1.995   .     S
O517   Zn438   1.995   1_655 S
O518   Zn437   2.016   1_655 S
O519   Zn526   2.016   .     S
O520   Zn438   2.016   1_655 S
O521   Zn525   2.016   .     S
O522   Zn526   1.995   .     S
O523   Zn437   1.995   1_655 S
O524   Zn703   1.995   .     S
Zn527  O692    1.995   1_545 S
Zn527  O700    1.995   1_545 S
Zn528  O688    2.016   1_545 S
Zn528  O689    2.016   1_545 S
C529   O597    1.285   .     A
C529   O607    1.289   .     A
C529   C558    1.444   .     S
C530   N593    1.362   .     A
C530   H570    1.072   .     S
C530   C883    1.411   .     S
C531   H571    1.080   .     S
C531   N594    1.362   .     S
C532   H572    1.074   .     S
C532   C920    1.413   .     S
C532   N681    1.364   .     S
C533   N596    1.362   .     A
C533   H573    1.072   .     S
C534   H574    1.082   .     S
C534   C887    1.413   .     S
C534   N419    1.364   1_565 S
C535   H575    1.074   .     S
C535   N420    1.364   1_565 S
C536   H576    1.080   .     S
C536   N595    1.362   .     A
C536   C885    1.411   .     S
C537   I577    2.147   .     S
C537   C548    1.389   .     A
C537   C556    1.416   .     A
C538   C555    1.410   .     A
C538   C549    1.393   .     A
C538   I585    2.135   .     S
C539   C546    1.374   .     A
C539   I586    2.148   .     S
C539   C555    1.397   .     A
C540   C557    1.436   .     S
C540   O606    1.277   .     A
C540   O605    1.292   .     A
C541   C556    1.400   .     A
C541   C547    1.378   .     A
C541   I587    2.128   .     S
C542   C558    1.415   .     A
C542   I588    2.159   .     S
C542   C553    1.389   .     A
C543   C557    1.407   .     A
C543   C554    1.393   .     A
C543   I589    2.152   .     S
C544   I590    2.135   .     S
C544   C557    1.407   .     A
C544   C550    1.374   .     A
C545   C558    1.411   .     A
C545   C552    1.378   .     A
C545   I591    2.138   .     S
C546   C560    1.407   .     A
C546   I592    2.135   .     S
C547   C559    1.411   .     A
C547   I578    2.138   .     S
C548   I579    2.159   .     S
C548   C559    1.415   .     A
C549   C560    1.407   .     A
C549   I580    2.152   .     S
C550   C563    1.397   .     A
C550   I581    2.148   .     S
C551   O611    1.295   .     A
C551   C556    1.448   .     S
C551   O608    1.280   .     A
C552   I582    2.128   .     S
C552   C561    1.400   .     A
C553   I583    2.147   .     S
C553   C561    1.416   .     A
C554   C563    1.410   .     A
C554   I584    2.135   .     S
C555   C562    1.424   .     S
C559   C567    1.444   .     S
C560   C566    1.436   .     S
C561   C565    1.448   .     S
C562   O609    1.279   .     A
C562   O610    1.284   .     A
C563   C564    1.424   .     S
C564   O612    1.284   .     A
C564   O600    1.279   .     A
C565   O598    1.295   .     A
C565   O599    1.280   .     A
C566   O604    1.292   .     A
C566   O601    1.277   .     A
C567   O602    1.289   .     A
C567   O603    1.285   .     A
C568   N682    1.364   .     A
C568   H569    1.082   .     S
N593   Zn613   2.005   .     S
N593   C620    1.364   1_455 S
N594   C656    1.364   1_455 A
N594   Zn614   2.005   .     S
N595   Zn615   2.005   .     S
N596   Zn616   2.005   .     S
O597   Zn613   1.995   .     S
O598   Zn616   1.995   .     S
O599   Zn615   2.016   .     S
O600   Zn440   2.016   1_565 S
O601   Zn440   2.016   1_565 S
O602   Zn615   2.016   .     S
O603   Zn616   1.995   .     S
O604   Zn439   1.995   1_565 S
O605   Zn702   1.995   .     S
O606   Zn701   2.016   .     S
O607   Zn614   2.016   .     S
O608   Zn702   2.016   .     S
O609   Zn613   2.016   .     S
O610   Zn614   1.995   .     S
O611   Zn701   1.995   .     S
O612   Zn439   1.995   1_565 S
Zn613  O694    2.016   1_455 S
Zn613  O699    1.995   1_455 S
Zn614  O693    1.995   1_455 S
Zn614  O696    2.016   1_455 S
C617   O685    1.285   .     A
C617   O695    1.289   .     A
C617   C646    1.444   .     S
C618   N681    1.362   .     A
C618   H658    1.072   .     S
C618   C971    1.411   .     S
C619   H659    1.080   .     S
C619   N682    1.362   .     S
C620   H660    1.074   .     S
C620   C1008   1.413   .     S
C620   N593    1.364   1_655 S
C621   N684    1.362   .     A
C621   H661    1.072   .     S
C622   H662    1.082   .     S
C622   C975    1.413   .     S
C622   N507    1.364   1_565 S
C623   H663    1.074   .     S
C623   N508    1.364   1_565 S
C624   H664    1.080   .     S
C624   N683    1.362   .     A
C624   C973    1.411   .     S
C625   I665    2.147   .     S
C625   C636    1.389   .     A
C625   C644    1.416   .     A
C626   C643    1.410   .     A
C626   C637    1.393   .     A
C626   I673    2.135   .     S
C627   C634    1.374   .     A
C627   I674    2.148   .     S
C627   C643    1.397   .     A
C628   C645    1.436   .     S
C628   O694    1.277   .     A
C628   O693    1.292   .     A
C629   C644    1.400   .     A
C629   C635    1.378   .     A
C629   I675    2.128   .     S
C630   C646    1.415   .     A
C630   I676    2.159   .     S
C630   C641    1.389   .     A
C631   C645    1.407   .     A
C631   C642    1.393   .     A
C631   I677    2.152   .     S
C632   I678    2.135   .     S
C632   C645    1.407   .     A
C632   C638    1.374   .     A
C633   C646    1.411   .     A
C633   C640    1.378   .     A
C633   I679    2.138   .     S
C634   C648    1.407   .     A
C634   I680    2.135   .     S
C635   C647    1.411   .     A
C635   I666    2.138   .     S
C636   I667    2.159   .     S
C636   C647    1.415   .     A
C637   C648    1.407   .     A
C637   I668    2.152   .     S
C638   C651    1.397   .     A
C638   I669    2.148   .     S
C639   O699    1.295   .     A
C639   C644    1.448   .     S
C639   O696    1.280   .     A
C640   I670    2.128   .     S
C640   C649    1.400   .     A
C641   I671    2.147   .     S
C641   C649    1.416   .     A
C642   C651    1.410   .     A
C642   I672    2.135   .     S
C643   C650    1.424   .     S
C647   C655    1.444   .     S
C648   C654    1.436   .     S
C649   C653    1.448   .     S
C650   O697    1.279   .     A
C650   O698    1.284   .     A
C651   C652    1.424   .     S
C652   O700    1.284   .     A
C652   O688    1.279   .     A
C653   O686    1.295   .     A
C653   O687    1.280   .     A
C654   O692    1.292   .     A
C654   O689    1.277   .     A
C655   O690    1.289   .     A
C655   O691    1.285   .     A
C656   N594    1.364   1_655 A
C656   H657    1.082   .     S
N681   Zn701   2.005   .     S
N682   Zn702   2.005   .     S
N683   Zn703   2.005   .     S
N684   Zn704   2.005   .     S
O685   Zn701   1.995   .     S
O686   Zn704   1.995   .     S
O687   Zn703   2.016   .     S
O688   Zn528   2.016   1_565 S
O689   Zn528   2.016   1_565 S
O690   Zn703   2.016   .     S
O691   Zn704   1.995   .     S
O692   Zn527   1.995   1_565 S
O693   Zn614   1.995   1_655 S
O694   Zn613   2.016   1_655 S
O695   Zn702   2.016   .     S
O696   Zn614   2.016   1_655 S
O697   Zn701   2.016   .     S
O698   Zn702   1.995   .     S
O699   Zn613   1.995   1_655 S
O700   Zn527   1.995   1_565 S
C705   O773    1.285   .     A
C705   O783    1.289   .     A
C705   C734    1.444   .     S
C706   N769    1.362   .     A
C706   H746    1.072   .     S
C706   C3      1.411   1_556 S
C707   H747    1.080   .     S
C707   N770    1.362   .     S
C708   H748    1.074   .     S
C708   C40     1.413   1_556 S
C708   N857    1.364   .     S
C709   N772    1.362   .     A
C709   H749    1.072   .     S
C710   H750    1.082   .     S
C710   C7      1.413   1_556 S
C710   N947    1.364   .     S
C711   H751    1.074   .     S
C711   N948    1.364   .     S
C712   H752    1.080   .     S
C712   N771    1.362   .     A
C712   C5      1.411   1_556 S
C713   I753    2.147   .     S
C713   C724    1.389   .     A
C713   C732    1.416   .     A
C714   C731    1.410   .     A
C714   C725    1.393   .     A
C714   I761    2.135   .     S
C715   C722    1.374   .     A
C715   I762    2.148   .     S
C715   C731    1.397   .     A
C716   C733    1.436   .     S
C716   O782    1.277   .     A
C716   O781    1.292   .     A
C717   C732    1.400   .     A
C717   C723    1.378   .     A
C717   I763    2.128   .     S
C718   C734    1.415   .     A
C718   I764    2.159   .     S
C718   C729    1.389   .     A
C719   C733    1.407   .     A
C719   C730    1.393   .     A
C719   I765    2.152   .     S
C720   I766    2.135   .     S
C720   C733    1.407   .     A
C720   C726    1.374   .     A
C721   C734    1.411   .     A
C721   C728    1.378   .     A
C721   I767    2.138   .     S
C722   C736    1.407   .     A
C722   I768    2.135   .     S
C723   C735    1.411   .     A
C723   I754    2.138   .     S
C724   I755    2.159   .     S
C724   C735    1.415   .     A
C725   C736    1.407   .     A
C725   I756    2.152   .     S
C726   C739    1.397   .     A
C726   I757    2.148   .     S
C727   O787    1.295   .     A
C727   C732    1.448   .     S
C727   O784    1.280   .     A
C728   I758    2.128   .     S
C728   C737    1.400   .     A
C729   I759    2.147   .     S
C729   C737    1.416   .     A
C730   C739    1.410   .     A
C730   I760    2.135   .     S
C731   C738    1.424   .     S
C735   C743    1.444   .     S
C736   C742    1.436   .     S
C737   C741    1.448   .     S
C738   O785    1.279   .     A
C738   O786    1.284   .     A
C739   C740    1.424   .     S
C740   O788    1.284   .     A
C740   O776    1.279   .     A
C741   O774    1.295   .     A
C741   O775    1.280   .     A
C742   O780    1.292   .     A
C742   O777    1.277   .     A
C743   O778    1.289   .     A
C743   O779    1.285   .     A
C744   N858    1.364   .     A
C744   H745    1.082   .     S
N769   Zn789   2.005   .     S
N769   C796    1.364   1_455 S
N770   C832    1.364   1_455 A
N770   Zn790   2.005   .     S
N771   Zn791   2.005   .     S
N771   C886    1.364   1_545 S
N772   Zn792   2.005   .     S
N772   C887    1.364   1_545 S
O773   Zn789   1.995   .     S
O774   Zn792   1.995   .     S
O775   Zn791   2.016   .     S
O776   Zn968   2.016   .     S
O777   Zn968   2.016   .     S
O778   Zn791   2.016   .     S
O779   Zn792   1.995   .     S
O780   Zn967   1.995   .     S
O781   Zn878   1.995   .     S
O782   Zn877   2.016   .     S
O783   Zn790   2.016   .     S
O784   Zn878   2.016   .     S
O785   Zn789   2.016   .     S
O786   Zn790   1.995   .     S
O787   Zn877   1.995   .     S
O788   Zn967   1.995   .     S
Zn789  O870    2.016   1_455 S
Zn789  O875    1.995   1_455 S
Zn790  O869    1.995   1_455 S
Zn790  O872    2.016   1_455 S
Zn791  O956    1.995   1_545 S
Zn791  O964    1.995   1_545 S
Zn792  O952    2.016   1_545 S
Zn792  O953    2.016   1_545 S
C793   O861    1.285   .     A
C793   O871    1.289   .     A
C793   C822    1.444   .     S
C794   N857    1.362   .     A
C794   H834    1.072   .     S
C794   C91     1.411   1_556 S
C795   H835    1.080   .     S
C795   N858    1.362   .     S
C796   H836    1.074   .     S
C796   C128    1.413   1_556 S
C796   N769    1.364   1_655 S
C797   N860    1.362   .     A
C797   H837    1.072   .     S
C798   H838    1.082   .     S
C798   C95     1.413   1_556 S
C798   N1035   1.364   .     S
C799   H839    1.074   .     S
C799   N1036   1.364   .     S
C800   H840    1.080   .     S
C800   N859    1.362   .     A
C800   C93     1.411   1_556 S
C801   I841    2.147   .     S
C801   C812    1.389   .     A
C801   C820    1.416   .     A
C802   C819    1.410   .     A
C802   C813    1.393   .     A
C802   I849    2.135   .     S
C803   C810    1.374   .     A
C803   I850    2.148   .     S
C803   C819    1.397   .     A
C804   C821    1.436   .     S
C804   O870    1.277   .     A
C804   O869    1.292   .     A
C805   C820    1.400   .     A
C805   C811    1.378   .     A
C805   I851    2.128   .     S
C806   C822    1.415   .     A
C806   I852    2.159   .     S
C806   C817    1.389   .     A
C807   C821    1.407   .     A
C807   C818    1.393   .     A
C807   I853    2.152   .     S
C808   I854    2.135   .     S
C808   C821    1.407   .     A
C808   C814    1.374   .     A
C809   C822    1.411   .     A
C809   C816    1.378   .     A
C809   I855    2.138   .     S
C810   C824    1.407   .     A
C810   I856    2.135   .     S
C811   C823    1.411   .     A
C811   I842    2.138   .     S
C812   I843    2.159   .     S
C812   C823    1.415   .     A
C813   C824    1.407   .     A
C813   I844    2.152   .     S
C814   C827    1.397   .     A
C814   I845    2.148   .     S
C815   O875    1.295   .     A
C815   C820    1.448   .     S
C815   O872    1.280   .     A
C816   I846    2.128   .     S
C816   C825    1.400   .     A
C817   I847    2.147   .     S
C817   C825    1.416   .     A
C818   C827    1.410   .     A
C818   I848    2.135   .     S
C819   C826    1.424   .     S
C823   C831    1.444   .     S
C824   C830    1.436   .     S
C825   C829    1.448   .     S
C826   O873    1.279   .     A
C826   O874    1.284   .     A
C827   C828    1.424   .     S
C828   O876    1.284   .     A
C828   O864    1.279   .     A
C829   O862    1.295   .     A
C829   O863    1.280   .     A
C830   O868    1.292   .     A
C830   O865    1.277   .     A
C831   O866    1.289   .     A
C831   O867    1.285   .     A
C832   N770    1.364   1_655 A
C832   H833    1.082   .     S
N857   Zn877   2.005   .     S
N858   Zn878   2.005   .     S
N859   Zn879   2.005   .     S
N859   C974    1.364   1_545 S
N860   Zn880   2.005   .     S
N860   C975    1.364   1_545 S
O861   Zn877   1.995   .     S
O862   Zn880   1.995   .     S
O863   Zn879   2.016   .     S
O864   Zn1056  2.016   .     S
O865   Zn1056  2.016   .     S
O866   Zn879   2.016   .     S
O867   Zn880   1.995   .     S
O868   Zn1055  1.995   .     S
O869   Zn790   1.995   1_655 S
O870   Zn789   2.016   1_655 S
O871   Zn878   2.016   .     S
O872   Zn790   2.016   1_655 S
O873   Zn877   2.016   .     S
O874   Zn878   1.995   .     S
O875   Zn789   1.995   1_655 S
O876   Zn1055  1.995   .     S
Zn879  O1044   1.995   1_545 S
Zn879  O1052   1.995   1_545 S
Zn880  O1040   2.016   1_545 S
Zn880  O1041   2.016   1_545 S
C881   O949    1.285   .     A
C881   O959    1.289   .     A
C881   C910    1.444   .     S
C882   N945    1.362   .     A
C882   H922    1.072   .     S
C882   C179    1.411   1_556 S
C883   H923    1.080   .     S
C883   N946    1.362   .     S
C884   H924    1.074   .     S
C884   C216    1.413   1_556 S
C884   N1033   1.364   .     S
C885   N948    1.362   .     A
C885   H925    1.072   .     S
C886   H926    1.082   .     S
C886   C183    1.413   1_556 S
C886   N771    1.364   1_565 S
C887   H927    1.074   .     S
C887   N772    1.364   1_565 S
C888   H928    1.080   .     S
C888   N947    1.362   .     A
C888   C181    1.411   1_556 S
C889   I929    2.147   .     S
C889   C900    1.389   .     A
C889   C908    1.416   .     A
C890   C907    1.410   .     A
C890   C901    1.393   .     A
C890   I937    2.135   .     S
C891   C898    1.374   .     A
C891   I938    2.148   .     S
C891   C907    1.397   .     A
C892   C909    1.436   .     S
C892   O958    1.277   .     A
C892   O957    1.292   .     A
C893   C908    1.400   .     A
C893   C899    1.378   .     A
C893   I939    2.128   .     S
C894   C910    1.415   .     A
C894   I940    2.159   .     S
C894   C905    1.389   .     A
C895   C909    1.407   .     A
C895   C906    1.393   .     A
C895   I941    2.152   .     S
C896   I942    2.135   .     S
C896   C909    1.407   .     A
C896   C902    1.374   .     A
C897   C910    1.411   .     A
C897   C904    1.378   .     A
C897   I943    2.138   .     S
C898   C912    1.407   .     A
C898   I944    2.135   .     S
C899   C911    1.411   .     A
C899   I930    2.138   .     S
C900   I931    2.159   .     S
C900   C911    1.415   .     A
C901   C912    1.407   .     A
C901   I932    2.152   .     S
C902   C915    1.397   .     A
C902   I933    2.148   .     S
C903   O963    1.295   .     A
C903   C908    1.448   .     S
C903   O960    1.280   .     A
C904   I934    2.128   .     S
C904   C913    1.400   .     A
C905   I935    2.147   .     S
C905   C913    1.416   .     A
C906   C915    1.410   .     A
C906   I936    2.135   .     S
C907   C914    1.424   .     S
C911   C919    1.444   .     S
C912   C918    1.436   .     S
C913   C917    1.448   .     S
C914   O961    1.279   .     A
C914   O962    1.284   .     A
C915   C916    1.424   .     S
C916   O964    1.284   .     A
C916   O952    1.279   .     A
C917   O950    1.295   .     A
C917   O951    1.280   .     A
C918   O956    1.292   .     A
C918   O953    1.277   .     A
C919   O954    1.289   .     A
C919   O955    1.285   .     A
C920   N1034   1.364   .     A
C920   H921    1.082   .     S
N945   Zn965   2.005   .     S
N945   C972    1.364   1_455 S
N946   C1008   1.364   1_455 A
N946   Zn966   2.005   .     S
N947   Zn967   2.005   .     S
N948   Zn968   2.005   .     S
O949   Zn965   1.995   .     S
O950   Zn968   1.995   .     S
O951   Zn967   2.016   .     S
O952   Zn792   2.016   1_565 S
O953   Zn792   2.016   1_565 S
O954   Zn967   2.016   .     S
O955   Zn968   1.995   .     S
O956   Zn791   1.995   1_565 S
O957   Zn1054  1.995   .     S
O958   Zn1053  2.016   .     S
O959   Zn966   2.016   .     S
O960   Zn1054  2.016   .     S
O961   Zn965   2.016   .     S
O962   Zn966   1.995   .     S
O963   Zn1053  1.995   .     S
O964   Zn791   1.995   1_565 S
Zn965  O1046   2.016   1_455 S
Zn965  O1051   1.995   1_455 S
Zn966  O1045   1.995   1_455 S
Zn966  O1048   2.016   1_455 S
C969   O1037   1.285   .     A
C969   O1047   1.289   .     A
C969   C998    1.444   .     S
C970   N1033   1.362   .     A
C970   H1010   1.072   .     S
C970   C267    1.411   1_556 S
C971   H1011   1.080   .     S
C971   N1034   1.362   .     S
C972   H1012   1.074   .     S
C972   C304    1.413   1_556 S
C972   N945    1.364   1_655 S
C973   N1036   1.362   .     A
C973   H1013   1.072   .     S
C974   H1014   1.082   .     S
C974   C271    1.413   1_556 S
C974   N859    1.364   1_565 S
C975   H1015   1.074   .     S
C975   N860    1.364   1_565 S
C976   H1016   1.080   .     S
C976   N1035   1.362   .     A
C976   C269    1.411   1_556 S
C977   I1017   2.147   .     S
C977   C988    1.389   .     A
C977   C996    1.416   .     A
C978   C995    1.410   .     A
C978   C989    1.393   .     A
C978   I1025   2.135   .     S
C979   C986    1.374   .     A
C979   I1026   2.148   .     S
C979   C995    1.397   .     A
C980   C997    1.436   .     S
C980   O1046   1.277   .     A
C980   O1045   1.292   .     A
C981   C996    1.400   .     A
C981   C987    1.378   .     A
C981   I1027   2.128   .     S
C982   C998    1.415   .     A
C982   I1028   2.159   .     S
C982   C993    1.389   .     A
C983   C997    1.407   .     A
C983   C994    1.393   .     A
C983   I1029   2.152   .     S
C984   I1030   2.135   .     S
C984   C997    1.407   .     A
C984   C990    1.374   .     A
C985   C998    1.411   .     A
C985   C992    1.378   .     A
C985   I1031   2.138   .     S
C986   C1000   1.407   .     A
C986   I1032   2.135   .     S
C987   C999    1.411   .     A
C987   I1018   2.138   .     S
C988   I1019   2.159   .     S
C988   C999    1.415   .     A
C989   C1000   1.407   .     A
C989   I1020   2.152   .     S
C990   C1003   1.397   .     A
C990   I1021   2.148   .     S
C991   O1051   1.295   .     A
C991   C996    1.448   .     S
C991   O1048   1.280   .     A
C992   I1022   2.128   .     S
C992   C1001   1.400   .     A
C993   I1023   2.147   .     S
C993   C1001   1.416   .     A
C994   C1003   1.410   .     A
C994   I1024   2.135   .     S
C995   C1002   1.424   .     S
C999   C1007   1.444   .     S
C1000  C1006   1.436   .     S
C1001  C1005   1.448   .     S
C1002  O1049   1.279   .     A
C1002  O1050   1.284   .     A
C1003  C1004   1.424   .     S
C1004  O1052   1.284   .     A
C1004  O1040   1.279   .     A
C1005  O1038   1.295   .     A
C1005  O1039   1.280   .     A
C1006  O1044   1.292   .     A
C1006  O1041   1.277   .     A
C1007  O1042   1.289   .     A
C1007  O1043   1.285   .     A
C1008  N946    1.364   1_655 A
C1008  H1009   1.082   .     S
N1033  Zn1053  2.005   .     S
N1034  Zn1054  2.005   .     S
N1035  Zn1055  2.005   .     S
N1036  Zn1056  2.005   .     S
O1037  Zn1053  1.995   .     S
O1038  Zn1056  1.995   .     S
O1039  Zn1055  2.016   .     S
O1040  Zn880   2.016   1_565 S
O1041  Zn880   2.016   1_565 S
O1042  Zn1055  2.016   .     S
O1043  Zn1056  1.995   .     S
O1044  Zn879   1.995   1_565 S
O1045  Zn966   1.995   1_655 S
O1046  Zn965   2.016   1_655 S
O1047  Zn1054  2.016   .     S
O1048  Zn966   2.016   1_655 S
O1049  Zn1053  2.016   .     S
O1050  Zn1054  1.995   .     S
O1051  Zn965   1.995   1_655 S
O1052  Zn879   1.995   1_565 S
