data_str_m3_o1_o10_pcu_sym.156
_audit_creation_date              2020-01-03
_audit_creation_method            'Materials Studio'
_symmetry_space_group_name_H-M    'P1'
_symmetry_Int_Tables_number       1
_symmetry_cell_setting            triclinic
loop_
_symmetry_equiv_pos_as_xyz
  x,y,z
_cell_length_a                    25.9592
_cell_length_b                    31.9910
_cell_length_c                    29.5480
_cell_angle_alpha                 89.8017
_cell_angle_beta                  98.2078
_cell_angle_gamma                 90.1773
loop_
_atom_site_label
_atom_site_type_symbol
_atom_site_fract_x
_atom_site_fract_y
_atom_site_fract_z
_atom_site_U_iso_or_equiv
_atom_site_adp_type
_atom_site_occupancy
C1     C     0.16759   0.08675   0.16686   0.00000  Uiso   1.00
C2     C     0.16574   0.24658   0.16647   0.00000  Uiso   1.00
C3     C     0.06730   0.16622   0.15500   0.00000  Uiso   1.00
C4     C     0.26604   0.16711   0.17833   0.00000  Uiso   1.00
C5     C     0.01326   0.15971   0.15007   0.00000  Uiso   1.00
C6     C     0.32008   0.17362   0.18327   0.00000  Uiso   1.00
C7     C     0.13415   0.02236   0.13326   0.00000  Uiso   1.00
C8     C     0.19918   0.31098   0.20008   0.00000  Uiso   1.00
C9     C     0.13229   0.31275   0.13262   0.00000  Uiso   1.00
C10    C     0.20104   0.02058   0.20071   0.00000  Uiso   1.00
C11    C     0.16525   0.29072   0.16623   0.00000  Uiso   1.00
C12    C     0.16808   0.04261   0.16710   0.00000  Uiso   1.00
C13    C     0.20106   0.19094   0.02818   0.00000  Uiso   1.00
C14    C     0.13227   0.14239   0.30515   0.00000  Uiso   1.00
C15    C     0.20104   0.19094   0.31357   0.00000  Uiso   1.00
C16    C     0.13229   0.14240   0.01977   0.00000  Uiso   1.00
H17    H     0.10853   0.04012   0.10800   0.00000  Uiso   1.00
H18    H     0.22481   0.29322   0.22533   0.00000  Uiso   1.00
H19    H     0.22857   0.21036   0.04970   0.00000  Uiso   1.00
H20    H     0.10476   0.12298   0.28363   0.00000  Uiso   1.00
H21    H     0.22853   0.21036   0.29878   0.00000  Uiso   1.00
H22    H     0.10480   0.12298   0.03456   0.00000  Uiso   1.00
N23    N     0.16665   0.16666   0.28573   0.00000  Uiso   1.00
N24    N     0.16668   0.16668   0.04760   0.00000  Uiso   1.00
O25    O     0.16666   0.10558   0.20487   0.00000  Uiso   1.00
O26    O     0.16667   0.22775   0.12846   0.00000  Uiso   1.00
O27    O     0.16666   0.10559   0.12843   0.00000  Uiso   1.00
O28    O     0.16667   0.22774   0.20490   0.00000  Uiso   1.00
O29    O     0.09058   0.16666   0.19595   0.00000  Uiso   1.00
O30    O     0.24275   0.16667   0.13739   0.00000  Uiso   1.00
O31    O     0.09058   0.16667   0.11950   0.00000  Uiso   1.00
O32    O     0.24275   0.16666   0.21383   0.00000  Uiso   1.00
Zn33   Zn    0.16667   0.16666   0.21771   0.00000  Uiso   1.00
Zn34   Zn    0.16667   0.16667   0.11563   0.00000  Uiso   1.00
C35    C     0.32521   0.13208   0.11285   0.00000  Uiso   1.00
N36    N     0.30837   0.11014   0.08329   0.00000  Uiso   1.00
C37    C     0.00812   0.20125   0.22048   0.00000  Uiso   1.00
N38    N     0.02496   0.22320   0.25004   0.00000  Uiso   1.00
C39    C     0.09523   0.29224   0.09855   0.00000  Uiso   1.00
N40    N     0.06557   0.27581   0.07133   0.00000  Uiso   1.00
C41    C     0.23813   0.04109   0.23478   0.00000  Uiso   1.00
N42    N     0.26780   0.05753   0.26200   0.00000  Uiso   1.00
C43    C     0.50093   0.08675   0.16686   0.00000  Uiso   1.00
C44    C     0.49907   0.24658   0.16647   0.00000  Uiso   1.00
C45    C     0.40063   0.16622   0.15500   0.00000  Uiso   1.00
C46    C     0.59937   0.16711   0.17833   0.00000  Uiso   1.00
C47    C     0.34659   0.15971   0.15007   0.00000  Uiso   1.00
C48    C     0.65341   0.17362   0.18327   0.00000  Uiso   1.00
C49    C     0.46748   0.02236   0.13326   0.00000  Uiso   1.00
C50    C     0.53252   0.31098   0.20008   0.00000  Uiso   1.00
C51    C     0.46563   0.31275   0.13262   0.00000  Uiso   1.00
C52    C     0.53438   0.02058   0.20071   0.00000  Uiso   1.00
C53    C     0.49858   0.29072   0.16623   0.00000  Uiso   1.00
C54    C     0.50142   0.04261   0.16710   0.00000  Uiso   1.00
C55    C     0.53439   0.19094   0.02818   0.00000  Uiso   1.00
C56    C     0.46561   0.14239   0.30515   0.00000  Uiso   1.00
C57    C     0.53438   0.19094   0.31357   0.00000  Uiso   1.00
C58    C     0.46562   0.14240   0.01977   0.00000  Uiso   1.00
H59    H     0.44186   0.04012   0.10800   0.00000  Uiso   1.00
H60    H     0.55814   0.29322   0.22533   0.00000  Uiso   1.00
H61    H     0.56190   0.21036   0.04970   0.00000  Uiso   1.00
H62    H     0.43810   0.12298   0.28363   0.00000  Uiso   1.00
H63    H     0.56186   0.21036   0.29878   0.00000  Uiso   1.00
H64    H     0.43814   0.12298   0.03456   0.00000  Uiso   1.00
N65    N     0.49999   0.16666   0.28573   0.00000  Uiso   1.00
N66    N     0.50001   0.16668   0.04760   0.00000  Uiso   1.00
O67    O     0.50000   0.10558   0.20487   0.00000  Uiso   1.00
O68    O     0.50000   0.22775   0.12846   0.00000  Uiso   1.00
O69    O     0.50000   0.10559   0.12843   0.00000  Uiso   1.00
O70    O     0.50000   0.22774   0.20490   0.00000  Uiso   1.00
O71    O     0.42392   0.16666   0.19595   0.00000  Uiso   1.00
O72    O     0.57608   0.16667   0.13739   0.00000  Uiso   1.00
O73    O     0.42392   0.16667   0.11950   0.00000  Uiso   1.00
O74    O     0.57608   0.16666   0.21383   0.00000  Uiso   1.00
Zn75   Zn    0.50000   0.16666   0.21771   0.00000  Uiso   1.00
Zn76   Zn    0.50000   0.16667   0.11563   0.00000  Uiso   1.00
C77    C     0.65854   0.13208   0.11285   0.00000  Uiso   1.00
N78    N     0.64171   0.11014   0.08329   0.00000  Uiso   1.00
C79    C     0.34146   0.20125   0.22048   0.00000  Uiso   1.00
N80    N     0.35829   0.22320   0.25004   0.00000  Uiso   1.00
C81    C     0.42856   0.29224   0.09855   0.00000  Uiso   1.00
N82    N     0.39891   0.27581   0.07133   0.00000  Uiso   1.00
C83    C     0.57146   0.04109   0.23478   0.00000  Uiso   1.00
N84    N     0.60113   0.05753   0.26200   0.00000  Uiso   1.00
C85    C     0.83426   0.08675   0.16686   0.00000  Uiso   1.00
C86    C     0.83240   0.24658   0.16647   0.00000  Uiso   1.00
C87    C     0.73396   0.16622   0.15500   0.00000  Uiso   1.00
C88    C     0.93270   0.16711   0.17833   0.00000  Uiso   1.00
C89    C     0.67992   0.15971   0.15007   0.00000  Uiso   1.00
C90    C     0.98674   0.17362   0.18327   0.00000  Uiso   1.00
C91    C     0.80081   0.02236   0.13326   0.00000  Uiso   1.00
C92    C     0.86585   0.31098   0.20008   0.00000  Uiso   1.00
C93    C     0.79896   0.31275   0.13262   0.00000  Uiso   1.00
C94    C     0.86771   0.02058   0.20071   0.00000  Uiso   1.00
C95    C     0.83192   0.29072   0.16623   0.00000  Uiso   1.00
C96    C     0.83475   0.04261   0.16710   0.00000  Uiso   1.00
C97    C     0.86773   0.19094   0.02818   0.00000  Uiso   1.00
C98    C     0.79894   0.14239   0.30515   0.00000  Uiso   1.00
C99    C     0.86771   0.19094   0.31357   0.00000  Uiso   1.00
C100   C     0.79896   0.14240   0.01977   0.00000  Uiso   1.00
H101   H     0.77519   0.04012   0.10800   0.00000  Uiso   1.00
H102   H     0.89147   0.29322   0.22533   0.00000  Uiso   1.00
H103   H     0.89524   0.21036   0.04970   0.00000  Uiso   1.00
H104   H     0.77143   0.12298   0.28363   0.00000  Uiso   1.00
H105   H     0.89520   0.21036   0.29878   0.00000  Uiso   1.00
H106   H     0.77147   0.12298   0.03456   0.00000  Uiso   1.00
N107   N     0.83332   0.16666   0.28573   0.00000  Uiso   1.00
N108   N     0.83335   0.16668   0.04760   0.00000  Uiso   1.00
O109   O     0.83333   0.10558   0.20487   0.00000  Uiso   1.00
O110   O     0.83334   0.22775   0.12846   0.00000  Uiso   1.00
O111   O     0.83333   0.10559   0.12843   0.00000  Uiso   1.00
O112   O     0.83334   0.22774   0.20490   0.00000  Uiso   1.00
O113   O     0.75725   0.16666   0.19595   0.00000  Uiso   1.00
O114   O     0.90942   0.16667   0.13739   0.00000  Uiso   1.00
O115   O     0.75725   0.16667   0.11950   0.00000  Uiso   1.00
O116   O     0.90942   0.16666   0.21383   0.00000  Uiso   1.00
Zn117  Zn    0.83333   0.16666   0.21771   0.00000  Uiso   1.00
Zn118  Zn    0.83333   0.16667   0.11563   0.00000  Uiso   1.00
C119   C     0.99188   0.13208   0.11285   0.00000  Uiso   1.00
N120   N     0.97504   0.11014   0.08329   0.00000  Uiso   1.00
C121   C     0.67479   0.20125   0.22048   0.00000  Uiso   1.00
N122   N     0.69163   0.22320   0.25004   0.00000  Uiso   1.00
C123   C     0.76189   0.29224   0.09855   0.00000  Uiso   1.00
N124   N     0.73224   0.27581   0.07133   0.00000  Uiso   1.00
C125   C     0.90479   0.04109   0.23478   0.00000  Uiso   1.00
N126   N     0.93446   0.05753   0.26200   0.00000  Uiso   1.00
C127   C     0.16759   0.42009   0.16686   0.00000  Uiso   1.00
C128   C     0.16574   0.57991   0.16647   0.00000  Uiso   1.00
C129   C     0.06730   0.49956   0.15500   0.00000  Uiso   1.00
C130   C     0.26604   0.50044   0.17833   0.00000  Uiso   1.00
C131   C     0.01326   0.49304   0.15007   0.00000  Uiso   1.00
C132   C     0.32008   0.50696   0.18327   0.00000  Uiso   1.00
C133   C     0.13415   0.35569   0.13326   0.00000  Uiso   1.00
C134   C     0.19918   0.64431   0.20008   0.00000  Uiso   1.00
C135   C     0.13229   0.64609   0.13262   0.00000  Uiso   1.00
C136   C     0.20104   0.35391   0.20071   0.00000  Uiso   1.00
C137   C     0.16525   0.62406   0.16623   0.00000  Uiso   1.00
C138   C     0.16808   0.37594   0.16710   0.00000  Uiso   1.00
C139   C     0.20106   0.52428   0.02818   0.00000  Uiso   1.00
C140   C     0.13227   0.47572   0.30515   0.00000  Uiso   1.00
C141   C     0.20104   0.52427   0.31357   0.00000  Uiso   1.00
C142   C     0.13229   0.47573   0.01977   0.00000  Uiso   1.00
H143   H     0.10853   0.37345   0.10800   0.00000  Uiso   1.00
H144   H     0.22481   0.62655   0.22533   0.00000  Uiso   1.00
H145   H     0.22857   0.54369   0.04970   0.00000  Uiso   1.00
H146   H     0.10476   0.45631   0.28363   0.00000  Uiso   1.00
H147   H     0.22853   0.54369   0.29878   0.00000  Uiso   1.00
H148   H     0.10480   0.45631   0.03456   0.00000  Uiso   1.00
N149   N     0.16665   0.49999   0.28573   0.00000  Uiso   1.00
N150   N     0.16668   0.50001   0.04760   0.00000  Uiso   1.00
O151   O     0.16666   0.43892   0.20487   0.00000  Uiso   1.00
O152   O     0.16667   0.56108   0.12846   0.00000  Uiso   1.00
O153   O     0.16666   0.43893   0.12843   0.00000  Uiso   1.00
O154   O     0.16667   0.56107   0.20490   0.00000  Uiso   1.00
O155   O     0.09058   0.50000   0.19595   0.00000  Uiso   1.00
O156   O     0.24275   0.50000   0.13739   0.00000  Uiso   1.00
O157   O     0.09058   0.50000   0.11950   0.00000  Uiso   1.00
O158   O     0.24275   0.50000   0.21383   0.00000  Uiso   1.00
Zn159  Zn    0.16667   0.49999   0.21771   0.00000  Uiso   1.00
Zn160  Zn    0.16667   0.50001   0.11563   0.00000  Uiso   1.00
C161   C     0.32521   0.46541   0.11285   0.00000  Uiso   1.00
N162   N     0.30837   0.44347   0.08329   0.00000  Uiso   1.00
C163   C     0.00812   0.53459   0.22048   0.00000  Uiso   1.00
N164   N     0.02496   0.55653   0.25004   0.00000  Uiso   1.00
C165   C     0.09523   0.62557   0.09855   0.00000  Uiso   1.00
N166   N     0.06557   0.60914   0.07133   0.00000  Uiso   1.00
C167   C     0.23813   0.37443   0.23478   0.00000  Uiso   1.00
N168   N     0.26780   0.39086   0.26200   0.00000  Uiso   1.00
C169   C     0.50093   0.42009   0.16686   0.00000  Uiso   1.00
C170   C     0.49907   0.57991   0.16647   0.00000  Uiso   1.00
C171   C     0.40063   0.49956   0.15500   0.00000  Uiso   1.00
C172   C     0.59937   0.50044   0.17833   0.00000  Uiso   1.00
C173   C     0.34659   0.49304   0.15007   0.00000  Uiso   1.00
C174   C     0.65341   0.50696   0.18327   0.00000  Uiso   1.00
C175   C     0.46748   0.35569   0.13326   0.00000  Uiso   1.00
C176   C     0.53252   0.64431   0.20008   0.00000  Uiso   1.00
C177   C     0.46563   0.64609   0.13262   0.00000  Uiso   1.00
C178   C     0.53438   0.35391   0.20071   0.00000  Uiso   1.00
C179   C     0.49858   0.62406   0.16623   0.00000  Uiso   1.00
C180   C     0.50142   0.37594   0.16710   0.00000  Uiso   1.00
C181   C     0.53439   0.52428   0.02818   0.00000  Uiso   1.00
C182   C     0.46561   0.47572   0.30515   0.00000  Uiso   1.00
C183   C     0.53438   0.52427   0.31357   0.00000  Uiso   1.00
C184   C     0.46562   0.47573   0.01977   0.00000  Uiso   1.00
H185   H     0.44186   0.37345   0.10800   0.00000  Uiso   1.00
H186   H     0.55814   0.62655   0.22533   0.00000  Uiso   1.00
H187   H     0.56190   0.54369   0.04970   0.00000  Uiso   1.00
H188   H     0.43810   0.45631   0.28363   0.00000  Uiso   1.00
H189   H     0.56186   0.54369   0.29878   0.00000  Uiso   1.00
H190   H     0.43814   0.45631   0.03456   0.00000  Uiso   1.00
N191   N     0.49999   0.49999   0.28573   0.00000  Uiso   1.00
N192   N     0.50001   0.50001   0.04760   0.00000  Uiso   1.00
O193   O     0.50000   0.43892   0.20487   0.00000  Uiso   1.00
O194   O     0.50000   0.56108   0.12846   0.00000  Uiso   1.00
O195   O     0.50000   0.43893   0.12843   0.00000  Uiso   1.00
O196   O     0.50000   0.56107   0.20490   0.00000  Uiso   1.00
O197   O     0.42392   0.50000   0.19595   0.00000  Uiso   1.00
O198   O     0.57608   0.50000   0.13739   0.00000  Uiso   1.00
O199   O     0.42392   0.50000   0.11950   0.00000  Uiso   1.00
O200   O     0.57608   0.50000   0.21383   0.00000  Uiso   1.00
Zn201  Zn    0.50000   0.49999   0.21771   0.00000  Uiso   1.00
Zn202  Zn    0.50000   0.50001   0.11563   0.00000  Uiso   1.00
C203   C     0.65854   0.46541   0.11285   0.00000  Uiso   1.00
N204   N     0.64171   0.44347   0.08329   0.00000  Uiso   1.00
C205   C     0.34146   0.53459   0.22048   0.00000  Uiso   1.00
N206   N     0.35829   0.55653   0.25004   0.00000  Uiso   1.00
C207   C     0.42856   0.62557   0.09855   0.00000  Uiso   1.00
N208   N     0.39891   0.60914   0.07133   0.00000  Uiso   1.00
C209   C     0.57146   0.37443   0.23478   0.00000  Uiso   1.00
N210   N     0.60113   0.39086   0.26200   0.00000  Uiso   1.00
C211   C     0.83426   0.42009   0.16686   0.00000  Uiso   1.00
C212   C     0.83240   0.57991   0.16647   0.00000  Uiso   1.00
C213   C     0.73396   0.49956   0.15500   0.00000  Uiso   1.00
C214   C     0.93270   0.50044   0.17833   0.00000  Uiso   1.00
C215   C     0.67992   0.49304   0.15007   0.00000  Uiso   1.00
C216   C     0.98674   0.50696   0.18327   0.00000  Uiso   1.00
C217   C     0.80081   0.35569   0.13326   0.00000  Uiso   1.00
C218   C     0.86585   0.64431   0.20008   0.00000  Uiso   1.00
C219   C     0.79896   0.64609   0.13262   0.00000  Uiso   1.00
C220   C     0.86771   0.35391   0.20071   0.00000  Uiso   1.00
C221   C     0.83192   0.62406   0.16623   0.00000  Uiso   1.00
C222   C     0.83475   0.37594   0.16710   0.00000  Uiso   1.00
C223   C     0.86773   0.52428   0.02818   0.00000  Uiso   1.00
C224   C     0.79894   0.47572   0.30515   0.00000  Uiso   1.00
C225   C     0.86771   0.52427   0.31357   0.00000  Uiso   1.00
C226   C     0.79896   0.47573   0.01977   0.00000  Uiso   1.00
H227   H     0.77519   0.37345   0.10800   0.00000  Uiso   1.00
H228   H     0.89147   0.62655   0.22533   0.00000  Uiso   1.00
H229   H     0.89524   0.54369   0.04970   0.00000  Uiso   1.00
H230   H     0.77143   0.45631   0.28363   0.00000  Uiso   1.00
H231   H     0.89520   0.54369   0.29878   0.00000  Uiso   1.00
H232   H     0.77147   0.45631   0.03456   0.00000  Uiso   1.00
N233   N     0.83332   0.49999   0.28573   0.00000  Uiso   1.00
N234   N     0.83335   0.50001   0.04760   0.00000  Uiso   1.00
O235   O     0.83333   0.43892   0.20487   0.00000  Uiso   1.00
O236   O     0.83334   0.56108   0.12846   0.00000  Uiso   1.00
O237   O     0.83333   0.43893   0.12843   0.00000  Uiso   1.00
O238   O     0.83334   0.56107   0.20490   0.00000  Uiso   1.00
O239   O     0.75725   0.50000   0.19595   0.00000  Uiso   1.00
O240   O     0.90942   0.50000   0.13739   0.00000  Uiso   1.00
O241   O     0.75725   0.50000   0.11950   0.00000  Uiso   1.00
O242   O     0.90942   0.50000   0.21383   0.00000  Uiso   1.00
Zn243  Zn    0.83333   0.49999   0.21771   0.00000  Uiso   1.00
Zn244  Zn    0.83333   0.50001   0.11563   0.00000  Uiso   1.00
C245   C     0.99188   0.46541   0.11285   0.00000  Uiso   1.00
N246   N     0.97504   0.44347   0.08329   0.00000  Uiso   1.00
C247   C     0.67479   0.53459   0.22048   0.00000  Uiso   1.00
N248   N     0.69163   0.55653   0.25004   0.00000  Uiso   1.00
C249   C     0.76189   0.62557   0.09855   0.00000  Uiso   1.00
N250   N     0.73224   0.60914   0.07133   0.00000  Uiso   1.00
C251   C     0.90479   0.37443   0.23478   0.00000  Uiso   1.00
N252   N     0.93446   0.39086   0.26200   0.00000  Uiso   1.00
C253   C     0.16759   0.75342   0.16686   0.00000  Uiso   1.00
C254   C     0.16574   0.91325   0.16647   0.00000  Uiso   1.00
C255   C     0.06730   0.83289   0.15500   0.00000  Uiso   1.00
C256   C     0.26604   0.83378   0.17833   0.00000  Uiso   1.00
C257   C     0.01326   0.82638   0.15007   0.00000  Uiso   1.00
C258   C     0.32008   0.84029   0.18327   0.00000  Uiso   1.00
C259   C     0.13415   0.68902   0.13326   0.00000  Uiso   1.00
C260   C     0.19918   0.97764   0.20008   0.00000  Uiso   1.00
C261   C     0.13229   0.97942   0.13262   0.00000  Uiso   1.00
C262   C     0.20104   0.68725   0.20071   0.00000  Uiso   1.00
C263   C     0.16525   0.95739   0.16623   0.00000  Uiso   1.00
C264   C     0.16808   0.70928   0.16710   0.00000  Uiso   1.00
C265   C     0.20106   0.85761   0.02818   0.00000  Uiso   1.00
C266   C     0.13227   0.80906   0.30515   0.00000  Uiso   1.00
C267   C     0.20104   0.85760   0.31357   0.00000  Uiso   1.00
C268   C     0.13229   0.80906   0.01977   0.00000  Uiso   1.00
H269   H     0.10853   0.70678   0.10800   0.00000  Uiso   1.00
H270   H     0.22481   0.95988   0.22533   0.00000  Uiso   1.00
H271   H     0.22857   0.87702   0.04970   0.00000  Uiso   1.00
H272   H     0.10476   0.78965   0.28363   0.00000  Uiso   1.00
H273   H     0.22853   0.87702   0.29878   0.00000  Uiso   1.00
H274   H     0.10480   0.78964   0.03456   0.00000  Uiso   1.00
N275   N     0.16665   0.83332   0.28573   0.00000  Uiso   1.00
N276   N     0.16668   0.83334   0.04760   0.00000  Uiso   1.00
O277   O     0.16666   0.77225   0.20487   0.00000  Uiso   1.00
O278   O     0.16667   0.89442   0.12846   0.00000  Uiso   1.00
O279   O     0.16666   0.77226   0.12843   0.00000  Uiso   1.00
O280   O     0.16667   0.89441   0.20490   0.00000  Uiso   1.00
O281   O     0.09058   0.83333   0.19595   0.00000  Uiso   1.00
O282   O     0.24275   0.83334   0.13739   0.00000  Uiso   1.00
O283   O     0.09058   0.83334   0.11950   0.00000  Uiso   1.00
O284   O     0.24275   0.83333   0.21383   0.00000  Uiso   1.00
Zn285  Zn    0.16667   0.83333   0.21771   0.00000  Uiso   1.00
Zn286  Zn    0.16667   0.83334   0.11563   0.00000  Uiso   1.00
C287   C     0.32521   0.79875   0.11285   0.00000  Uiso   1.00
N288   N     0.30837   0.77681   0.08329   0.00000  Uiso   1.00
C289   C     0.00812   0.86792   0.22048   0.00000  Uiso   1.00
N290   N     0.02496   0.88986   0.25004   0.00000  Uiso   1.00
C291   C     0.09523   0.95891   0.09855   0.00000  Uiso   1.00
N292   N     0.06557   0.94247   0.07133   0.00000  Uiso   1.00
C293   C     0.23813   0.70776   0.23478   0.00000  Uiso   1.00
N294   N     0.26780   0.72420   0.26200   0.00000  Uiso   1.00
C295   C     0.50093   0.75342   0.16686   0.00000  Uiso   1.00
C296   C     0.49907   0.91325   0.16647   0.00000  Uiso   1.00
C297   C     0.40063   0.83289   0.15500   0.00000  Uiso   1.00
C298   C     0.59937   0.83378   0.17833   0.00000  Uiso   1.00
C299   C     0.34659   0.82638   0.15007   0.00000  Uiso   1.00
C300   C     0.65341   0.84029   0.18327   0.00000  Uiso   1.00
C301   C     0.46748   0.68902   0.13326   0.00000  Uiso   1.00
C302   C     0.53252   0.97764   0.20008   0.00000  Uiso   1.00
C303   C     0.46563   0.97942   0.13262   0.00000  Uiso   1.00
C304   C     0.53438   0.68725   0.20071   0.00000  Uiso   1.00
C305   C     0.49858   0.95739   0.16623   0.00000  Uiso   1.00
C306   C     0.50142   0.70928   0.16710   0.00000  Uiso   1.00
C307   C     0.53439   0.85761   0.02818   0.00000  Uiso   1.00
C308   C     0.46561   0.80906   0.30515   0.00000  Uiso   1.00
C309   C     0.53438   0.85760   0.31357   0.00000  Uiso   1.00
C310   C     0.46562   0.80906   0.01977   0.00000  Uiso   1.00
H311   H     0.44186   0.70678   0.10800   0.00000  Uiso   1.00
H312   H     0.55814   0.95988   0.22533   0.00000  Uiso   1.00
H313   H     0.56190   0.87702   0.04970   0.00000  Uiso   1.00
H314   H     0.43810   0.78965   0.28363   0.00000  Uiso   1.00
H315   H     0.56186   0.87702   0.29878   0.00000  Uiso   1.00
H316   H     0.43814   0.78964   0.03456   0.00000  Uiso   1.00
N317   N     0.49999   0.83332   0.28573   0.00000  Uiso   1.00
N318   N     0.50001   0.83334   0.04760   0.00000  Uiso   1.00
O319   O     0.50000   0.77225   0.20487   0.00000  Uiso   1.00
O320   O     0.50000   0.89442   0.12846   0.00000  Uiso   1.00
O321   O     0.50000   0.77226   0.12843   0.00000  Uiso   1.00
O322   O     0.50000   0.89441   0.20490   0.00000  Uiso   1.00
O323   O     0.42392   0.83333   0.19595   0.00000  Uiso   1.00
O324   O     0.57608   0.83334   0.13739   0.00000  Uiso   1.00
O325   O     0.42392   0.83334   0.11950   0.00000  Uiso   1.00
O326   O     0.57608   0.83333   0.21383   0.00000  Uiso   1.00
Zn327  Zn    0.50000   0.83333   0.21771   0.00000  Uiso   1.00
Zn328  Zn    0.50000   0.83334   0.11563   0.00000  Uiso   1.00
C329   C     0.65854   0.79875   0.11285   0.00000  Uiso   1.00
N330   N     0.64171   0.77681   0.08329   0.00000  Uiso   1.00
C331   C     0.34146   0.86792   0.22048   0.00000  Uiso   1.00
N332   N     0.35829   0.88986   0.25004   0.00000  Uiso   1.00
C333   C     0.42856   0.95891   0.09855   0.00000  Uiso   1.00
N334   N     0.39891   0.94247   0.07133   0.00000  Uiso   1.00
C335   C     0.57146   0.70776   0.23478   0.00000  Uiso   1.00
N336   N     0.60113   0.72420   0.26200   0.00000  Uiso   1.00
C337   C     0.83426   0.75342   0.16686   0.00000  Uiso   1.00
C338   C     0.83240   0.91325   0.16647   0.00000  Uiso   1.00
C339   C     0.73396   0.83289   0.15500   0.00000  Uiso   1.00
C340   C     0.93270   0.83378   0.17833   0.00000  Uiso   1.00
C341   C     0.67992   0.82638   0.15007   0.00000  Uiso   1.00
C342   C     0.98674   0.84029   0.18327   0.00000  Uiso   1.00
C343   C     0.80081   0.68902   0.13326   0.00000  Uiso   1.00
C344   C     0.86585   0.97764   0.20008   0.00000  Uiso   1.00
C345   C     0.79896   0.97942   0.13262   0.00000  Uiso   1.00
C346   C     0.86771   0.68725   0.20071   0.00000  Uiso   1.00
C347   C     0.83192   0.95739   0.16623   0.00000  Uiso   1.00
C348   C     0.83475   0.70928   0.16710   0.00000  Uiso   1.00
C349   C     0.86773   0.85761   0.02818   0.00000  Uiso   1.00
C350   C     0.79894   0.80906   0.30515   0.00000  Uiso   1.00
C351   C     0.86771   0.85760   0.31357   0.00000  Uiso   1.00
C352   C     0.79896   0.80906   0.01977   0.00000  Uiso   1.00
H353   H     0.77519   0.70678   0.10800   0.00000  Uiso   1.00
H354   H     0.89147   0.95988   0.22533   0.00000  Uiso   1.00
H355   H     0.89524   0.87702   0.04970   0.00000  Uiso   1.00
H356   H     0.77143   0.78965   0.28363   0.00000  Uiso   1.00
H357   H     0.89520   0.87702   0.29878   0.00000  Uiso   1.00
H358   H     0.77147   0.78964   0.03456   0.00000  Uiso   1.00
N359   N     0.83332   0.83332   0.28573   0.00000  Uiso   1.00
N360   N     0.83335   0.83334   0.04760   0.00000  Uiso   1.00
O361   O     0.83333   0.77225   0.20487   0.00000  Uiso   1.00
O362   O     0.83334   0.89442   0.12846   0.00000  Uiso   1.00
O363   O     0.83333   0.77226   0.12843   0.00000  Uiso   1.00
O364   O     0.83334   0.89441   0.20490   0.00000  Uiso   1.00
O365   O     0.75725   0.83333   0.19595   0.00000  Uiso   1.00
O366   O     0.90942   0.83334   0.13739   0.00000  Uiso   1.00
O367   O     0.75725   0.83334   0.11950   0.00000  Uiso   1.00
O368   O     0.90942   0.83333   0.21383   0.00000  Uiso   1.00
Zn369  Zn    0.83333   0.83333   0.21771   0.00000  Uiso   1.00
Zn370  Zn    0.83333   0.83334   0.11563   0.00000  Uiso   1.00
C371   C     0.99188   0.79875   0.11285   0.00000  Uiso   1.00
N372   N     0.97504   0.77681   0.08329   0.00000  Uiso   1.00
C373   C     0.67479   0.86792   0.22048   0.00000  Uiso   1.00
N374   N     0.69163   0.88986   0.25004   0.00000  Uiso   1.00
C375   C     0.76189   0.95891   0.09855   0.00000  Uiso   1.00
N376   N     0.73224   0.94247   0.07133   0.00000  Uiso   1.00
C377   C     0.90479   0.70776   0.23478   0.00000  Uiso   1.00
N378   N     0.93446   0.72420   0.26200   0.00000  Uiso   1.00
C379   C     0.16759   0.08675   0.50019   0.00000  Uiso   1.00
C380   C     0.16574   0.24658   0.49981   0.00000  Uiso   1.00
C381   C     0.06730   0.16622   0.48834   0.00000  Uiso   1.00
C382   C     0.26604   0.16711   0.51166   0.00000  Uiso   1.00
C383   C     0.01326   0.15971   0.48340   0.00000  Uiso   1.00
C384   C     0.32008   0.17362   0.51660   0.00000  Uiso   1.00
C385   C     0.13415   0.02236   0.46659   0.00000  Uiso   1.00
C386   C     0.19918   0.31098   0.53341   0.00000  Uiso   1.00
C387   C     0.13229   0.31275   0.46595   0.00000  Uiso   1.00
C388   C     0.20104   0.02058   0.53405   0.00000  Uiso   1.00
C389   C     0.16525   0.29072   0.49956   0.00000  Uiso   1.00
C390   C     0.16808   0.04261   0.50044   0.00000  Uiso   1.00
C391   C     0.20106   0.19094   0.36152   0.00000  Uiso   1.00
C392   C     0.13227   0.14239   0.63848   0.00000  Uiso   1.00
C393   C     0.20104   0.19094   0.64690   0.00000  Uiso   1.00
C394   C     0.13229   0.14240   0.35310   0.00000  Uiso   1.00
H395   H     0.10853   0.04012   0.44134   0.00000  Uiso   1.00
H396   H     0.22481   0.29322   0.55866   0.00000  Uiso   1.00
H397   H     0.22857   0.21036   0.38303   0.00000  Uiso   1.00
H398   H     0.10476   0.12298   0.61697   0.00000  Uiso   1.00
H399   H     0.22853   0.21036   0.63211   0.00000  Uiso   1.00
H400   H     0.10480   0.12298   0.36789   0.00000  Uiso   1.00
N401   N     0.16665   0.16666   0.61907   0.00000  Uiso   1.00
N402   N     0.16668   0.16668   0.38093   0.00000  Uiso   1.00
O403   O     0.16666   0.10558   0.53821   0.00000  Uiso   1.00
O404   O     0.16667   0.22775   0.46179   0.00000  Uiso   1.00
O405   O     0.16666   0.10559   0.46176   0.00000  Uiso   1.00
O406   O     0.16667   0.22774   0.53824   0.00000  Uiso   1.00
O407   O     0.09058   0.16666   0.52928   0.00000  Uiso   1.00
O408   O     0.24275   0.16667   0.47072   0.00000  Uiso   1.00
O409   O     0.09058   0.16667   0.45284   0.00000  Uiso   1.00
O410   O     0.24275   0.16666   0.54716   0.00000  Uiso   1.00
Zn411  Zn    0.16667   0.16666   0.55104   0.00000  Uiso   1.00
Zn412  Zn    0.16667   0.16667   0.44896   0.00000  Uiso   1.00
C413   C     0.32521   0.13208   0.44618   0.00000  Uiso   1.00
N414   N     0.30837   0.11014   0.41663   0.00000  Uiso   1.00
C415   C     0.00812   0.20125   0.55382   0.00000  Uiso   1.00
N416   N     0.02496   0.22320   0.58337   0.00000  Uiso   1.00
C417   C     0.09523   0.29224   0.43188   0.00000  Uiso   1.00
N418   N     0.06557   0.27581   0.40466   0.00000  Uiso   1.00
C419   C     0.23813   0.04109   0.56811   0.00000  Uiso   1.00
N420   N     0.26780   0.05753   0.59533   0.00000  Uiso   1.00
C421   C     0.50093   0.08675   0.50019   0.00000  Uiso   1.00
C422   C     0.49907   0.24658   0.49981   0.00000  Uiso   1.00
C423   C     0.40063   0.16622   0.48834   0.00000  Uiso   1.00
C424   C     0.59937   0.16711   0.51166   0.00000  Uiso   1.00
C425   C     0.34659   0.15971   0.48340   0.00000  Uiso   1.00
C426   C     0.65341   0.17362   0.51660   0.00000  Uiso   1.00
C427   C     0.46748   0.02236   0.46659   0.00000  Uiso   1.00
C428   C     0.53252   0.31098   0.53341   0.00000  Uiso   1.00
C429   C     0.46563   0.31275   0.46595   0.00000  Uiso   1.00
C430   C     0.53438   0.02058   0.53405   0.00000  Uiso   1.00
C431   C     0.49858   0.29072   0.49956   0.00000  Uiso   1.00
C432   C     0.50142   0.04261   0.50044   0.00000  Uiso   1.00
C433   C     0.53439   0.19094   0.36152   0.00000  Uiso   1.00
C434   C     0.46561   0.14239   0.63848   0.00000  Uiso   1.00
C435   C     0.53438   0.19094   0.64690   0.00000  Uiso   1.00
C436   C     0.46562   0.14240   0.35310   0.00000  Uiso   1.00
H437   H     0.44186   0.04012   0.44134   0.00000  Uiso   1.00
H438   H     0.55814   0.29322   0.55866   0.00000  Uiso   1.00
H439   H     0.56190   0.21036   0.38303   0.00000  Uiso   1.00
H440   H     0.43810   0.12298   0.61697   0.00000  Uiso   1.00
H441   H     0.56186   0.21036   0.63211   0.00000  Uiso   1.00
H442   H     0.43814   0.12298   0.36789   0.00000  Uiso   1.00
N443   N     0.49999   0.16666   0.61907   0.00000  Uiso   1.00
N444   N     0.50001   0.16668   0.38093   0.00000  Uiso   1.00
O445   O     0.50000   0.10558   0.53821   0.00000  Uiso   1.00
O446   O     0.50000   0.22775   0.46179   0.00000  Uiso   1.00
O447   O     0.50000   0.10559   0.46176   0.00000  Uiso   1.00
O448   O     0.50000   0.22774   0.53824   0.00000  Uiso   1.00
O449   O     0.42392   0.16666   0.52928   0.00000  Uiso   1.00
O450   O     0.57608   0.16667   0.47072   0.00000  Uiso   1.00
O451   O     0.42392   0.16667   0.45284   0.00000  Uiso   1.00
O452   O     0.57608   0.16666   0.54716   0.00000  Uiso   1.00
Zn453  Zn    0.50000   0.16666   0.55104   0.00000  Uiso   1.00
Zn454  Zn    0.50000   0.16667   0.44896   0.00000  Uiso   1.00
C455   C     0.65854   0.13208   0.44618   0.00000  Uiso   1.00
N456   N     0.64171   0.11014   0.41663   0.00000  Uiso   1.00
C457   C     0.34146   0.20125   0.55382   0.00000  Uiso   1.00
N458   N     0.35829   0.22320   0.58337   0.00000  Uiso   1.00
C459   C     0.42856   0.29224   0.43188   0.00000  Uiso   1.00
N460   N     0.39891   0.27581   0.40466   0.00000  Uiso   1.00
C461   C     0.57146   0.04109   0.56811   0.00000  Uiso   1.00
N462   N     0.60113   0.05753   0.59533   0.00000  Uiso   1.00
C463   C     0.83426   0.08675   0.50019   0.00000  Uiso   1.00
C464   C     0.83240   0.24658   0.49981   0.00000  Uiso   1.00
C465   C     0.73396   0.16622   0.48834   0.00000  Uiso   1.00
C466   C     0.93270   0.16711   0.51166   0.00000  Uiso   1.00
C467   C     0.67992   0.15971   0.48340   0.00000  Uiso   1.00
C468   C     0.98674   0.17362   0.51660   0.00000  Uiso   1.00
C469   C     0.80081   0.02236   0.46659   0.00000  Uiso   1.00
C470   C     0.86585   0.31098   0.53341   0.00000  Uiso   1.00
C471   C     0.79896   0.31275   0.46595   0.00000  Uiso   1.00
C472   C     0.86771   0.02058   0.53405   0.00000  Uiso   1.00
C473   C     0.83192   0.29072   0.49956   0.00000  Uiso   1.00
C474   C     0.83475   0.04261   0.50044   0.00000  Uiso   1.00
C475   C     0.86773   0.19094   0.36152   0.00000  Uiso   1.00
C476   C     0.79894   0.14239   0.63848   0.00000  Uiso   1.00
C477   C     0.86771   0.19094   0.64690   0.00000  Uiso   1.00
C478   C     0.79896   0.14240   0.35310   0.00000  Uiso   1.00
H479   H     0.77519   0.04012   0.44134   0.00000  Uiso   1.00
H480   H     0.89147   0.29322   0.55866   0.00000  Uiso   1.00
H481   H     0.89524   0.21036   0.38303   0.00000  Uiso   1.00
H482   H     0.77143   0.12298   0.61697   0.00000  Uiso   1.00
H483   H     0.89520   0.21036   0.63211   0.00000  Uiso   1.00
H484   H     0.77147   0.12298   0.36789   0.00000  Uiso   1.00
N485   N     0.83332   0.16666   0.61907   0.00000  Uiso   1.00
N486   N     0.83335   0.16668   0.38093   0.00000  Uiso   1.00
O487   O     0.83333   0.10558   0.53821   0.00000  Uiso   1.00
O488   O     0.83334   0.22775   0.46179   0.00000  Uiso   1.00
O489   O     0.83333   0.10559   0.46176   0.00000  Uiso   1.00
O490   O     0.83334   0.22774   0.53824   0.00000  Uiso   1.00
O491   O     0.75725   0.16666   0.52928   0.00000  Uiso   1.00
O492   O     0.90942   0.16667   0.47072   0.00000  Uiso   1.00
O493   O     0.75725   0.16667   0.45284   0.00000  Uiso   1.00
O494   O     0.90942   0.16666   0.54716   0.00000  Uiso   1.00
Zn495  Zn    0.83333   0.16666   0.55104   0.00000  Uiso   1.00
Zn496  Zn    0.83333   0.16667   0.44896   0.00000  Uiso   1.00
C497   C     0.99188   0.13208   0.44618   0.00000  Uiso   1.00
N498   N     0.97504   0.11014   0.41663   0.00000  Uiso   1.00
C499   C     0.67479   0.20125   0.55382   0.00000  Uiso   1.00
N500   N     0.69163   0.22320   0.58337   0.00000  Uiso   1.00
C501   C     0.76189   0.29224   0.43188   0.00000  Uiso   1.00
N502   N     0.73224   0.27581   0.40466   0.00000  Uiso   1.00
C503   C     0.90479   0.04109   0.56811   0.00000  Uiso   1.00
N504   N     0.93446   0.05753   0.59533   0.00000  Uiso   1.00
C505   C     0.16759   0.42009   0.50019   0.00000  Uiso   1.00
C506   C     0.16574   0.57991   0.49981   0.00000  Uiso   1.00
C507   C     0.06730   0.49956   0.48834   0.00000  Uiso   1.00
C508   C     0.26604   0.50044   0.51166   0.00000  Uiso   1.00
C509   C     0.01326   0.49304   0.48340   0.00000  Uiso   1.00
C510   C     0.32008   0.50696   0.51660   0.00000  Uiso   1.00
C511   C     0.13415   0.35569   0.46659   0.00000  Uiso   1.00
C512   C     0.19918   0.64431   0.53341   0.00000  Uiso   1.00
C513   C     0.13229   0.64609   0.46595   0.00000  Uiso   1.00
C514   C     0.20104   0.35391   0.53405   0.00000  Uiso   1.00
C515   C     0.16525   0.62406   0.49956   0.00000  Uiso   1.00
C516   C     0.16808   0.37594   0.50044   0.00000  Uiso   1.00
C517   C     0.20106   0.52428   0.36152   0.00000  Uiso   1.00
C518   C     0.13227   0.47572   0.63848   0.00000  Uiso   1.00
C519   C     0.20104   0.52427   0.64690   0.00000  Uiso   1.00
C520   C     0.13229   0.47573   0.35310   0.00000  Uiso   1.00
H521   H     0.10853   0.37345   0.44134   0.00000  Uiso   1.00
H522   H     0.22481   0.62655   0.55866   0.00000  Uiso   1.00
H523   H     0.22857   0.54369   0.38303   0.00000  Uiso   1.00
H524   H     0.10476   0.45631   0.61697   0.00000  Uiso   1.00
H525   H     0.22853   0.54369   0.63211   0.00000  Uiso   1.00
H526   H     0.10480   0.45631   0.36789   0.00000  Uiso   1.00
N527   N     0.16665   0.49999   0.61907   0.00000  Uiso   1.00
N528   N     0.16668   0.50001   0.38093   0.00000  Uiso   1.00
O529   O     0.16666   0.43892   0.53821   0.00000  Uiso   1.00
O530   O     0.16667   0.56108   0.46179   0.00000  Uiso   1.00
O531   O     0.16666   0.43893   0.46176   0.00000  Uiso   1.00
O532   O     0.16667   0.56107   0.53824   0.00000  Uiso   1.00
O533   O     0.09058   0.50000   0.52928   0.00000  Uiso   1.00
O534   O     0.24275   0.50000   0.47072   0.00000  Uiso   1.00
O535   O     0.09058   0.50000   0.45284   0.00000  Uiso   1.00
O536   O     0.24275   0.50000   0.54716   0.00000  Uiso   1.00
Zn537  Zn    0.16667   0.49999   0.55104   0.00000  Uiso   1.00
Zn538  Zn    0.16667   0.50001   0.44896   0.00000  Uiso   1.00
C539   C     0.32521   0.46541   0.44618   0.00000  Uiso   1.00
N540   N     0.30837   0.44347   0.41663   0.00000  Uiso   1.00
C541   C     0.00812   0.53459   0.55382   0.00000  Uiso   1.00
N542   N     0.02496   0.55653   0.58337   0.00000  Uiso   1.00
C543   C     0.09523   0.62557   0.43188   0.00000  Uiso   1.00
N544   N     0.06557   0.60914   0.40466   0.00000  Uiso   1.00
C545   C     0.23813   0.37443   0.56811   0.00000  Uiso   1.00
N546   N     0.26780   0.39086   0.59533   0.00000  Uiso   1.00
C547   C     0.50093   0.42009   0.50019   0.00000  Uiso   1.00
C548   C     0.49907   0.57991   0.49981   0.00000  Uiso   1.00
C549   C     0.40063   0.49956   0.48834   0.00000  Uiso   1.00
C550   C     0.59937   0.50044   0.51166   0.00000  Uiso   1.00
C551   C     0.34659   0.49304   0.48340   0.00000  Uiso   1.00
C552   C     0.65341   0.50696   0.51660   0.00000  Uiso   1.00
C553   C     0.46748   0.35569   0.46659   0.00000  Uiso   1.00
C554   C     0.53252   0.64431   0.53341   0.00000  Uiso   1.00
C555   C     0.46563   0.64609   0.46595   0.00000  Uiso   1.00
C556   C     0.53438   0.35391   0.53405   0.00000  Uiso   1.00
C557   C     0.49858   0.62406   0.49956   0.00000  Uiso   1.00
C558   C     0.50142   0.37594   0.50044   0.00000  Uiso   1.00
C559   C     0.53439   0.52428   0.36152   0.00000  Uiso   1.00
C560   C     0.46561   0.47572   0.63848   0.00000  Uiso   1.00
C561   C     0.53438   0.52427   0.64690   0.00000  Uiso   1.00
C562   C     0.46562   0.47573   0.35310   0.00000  Uiso   1.00
H563   H     0.44186   0.37345   0.44134   0.00000  Uiso   1.00
H564   H     0.55814   0.62655   0.55866   0.00000  Uiso   1.00
H565   H     0.56190   0.54369   0.38303   0.00000  Uiso   1.00
H566   H     0.43810   0.45631   0.61697   0.00000  Uiso   1.00
H567   H     0.56186   0.54369   0.63211   0.00000  Uiso   1.00
H568   H     0.43814   0.45631   0.36789   0.00000  Uiso   1.00
N569   N     0.49999   0.49999   0.61907   0.00000  Uiso   1.00
N570   N     0.50001   0.50001   0.38093   0.00000  Uiso   1.00
O571   O     0.50000   0.43892   0.53821   0.00000  Uiso   1.00
O572   O     0.50000   0.56108   0.46179   0.00000  Uiso   1.00
O573   O     0.50000   0.43893   0.46176   0.00000  Uiso   1.00
O574   O     0.50000   0.56107   0.53824   0.00000  Uiso   1.00
O575   O     0.42392   0.50000   0.52928   0.00000  Uiso   1.00
O576   O     0.57608   0.50000   0.47072   0.00000  Uiso   1.00
O577   O     0.42392   0.50000   0.45284   0.00000  Uiso   1.00
O578   O     0.57608   0.50000   0.54716   0.00000  Uiso   1.00
Zn579  Zn    0.50000   0.49999   0.55104   0.00000  Uiso   1.00
Zn580  Zn    0.50000   0.50001   0.44896   0.00000  Uiso   1.00
C581   C     0.65854   0.46541   0.44618   0.00000  Uiso   1.00
N582   N     0.64171   0.44347   0.41663   0.00000  Uiso   1.00
C583   C     0.34146   0.53459   0.55382   0.00000  Uiso   1.00
N584   N     0.35829   0.55653   0.58337   0.00000  Uiso   1.00
C585   C     0.42856   0.62557   0.43188   0.00000  Uiso   1.00
N586   N     0.39891   0.60914   0.40466   0.00000  Uiso   1.00
C587   C     0.57146   0.37443   0.56811   0.00000  Uiso   1.00
N588   N     0.60113   0.39086   0.59533   0.00000  Uiso   1.00
C589   C     0.83426   0.42009   0.50019   0.00000  Uiso   1.00
C590   C     0.83240   0.57991   0.49981   0.00000  Uiso   1.00
C591   C     0.73396   0.49956   0.48834   0.00000  Uiso   1.00
C592   C     0.93270   0.50044   0.51166   0.00000  Uiso   1.00
C593   C     0.67992   0.49304   0.48340   0.00000  Uiso   1.00
C594   C     0.98674   0.50696   0.51660   0.00000  Uiso   1.00
C595   C     0.80081   0.35569   0.46659   0.00000  Uiso   1.00
C596   C     0.86585   0.64431   0.53341   0.00000  Uiso   1.00
C597   C     0.79896   0.64609   0.46595   0.00000  Uiso   1.00
C598   C     0.86771   0.35391   0.53405   0.00000  Uiso   1.00
C599   C     0.83192   0.62406   0.49956   0.00000  Uiso   1.00
C600   C     0.83475   0.37594   0.50044   0.00000  Uiso   1.00
C601   C     0.86773   0.52428   0.36152   0.00000  Uiso   1.00
C602   C     0.79894   0.47572   0.63848   0.00000  Uiso   1.00
C603   C     0.86771   0.52427   0.64690   0.00000  Uiso   1.00
C604   C     0.79896   0.47573   0.35310   0.00000  Uiso   1.00
H605   H     0.77519   0.37345   0.44134   0.00000  Uiso   1.00
H606   H     0.89147   0.62655   0.55866   0.00000  Uiso   1.00
H607   H     0.89524   0.54369   0.38303   0.00000  Uiso   1.00
H608   H     0.77143   0.45631   0.61697   0.00000  Uiso   1.00
H609   H     0.89520   0.54369   0.63211   0.00000  Uiso   1.00
H610   H     0.77147   0.45631   0.36789   0.00000  Uiso   1.00
N611   N     0.83332   0.49999   0.61907   0.00000  Uiso   1.00
N612   N     0.83335   0.50001   0.38093   0.00000  Uiso   1.00
O613   O     0.83333   0.43892   0.53821   0.00000  Uiso   1.00
O614   O     0.83334   0.56108   0.46179   0.00000  Uiso   1.00
O615   O     0.83333   0.43893   0.46176   0.00000  Uiso   1.00
O616   O     0.83334   0.56107   0.53824   0.00000  Uiso   1.00
O617   O     0.75725   0.50000   0.52928   0.00000  Uiso   1.00
O618   O     0.90942   0.50000   0.47072   0.00000  Uiso   1.00
O619   O     0.75725   0.50000   0.45284   0.00000  Uiso   1.00
O620   O     0.90942   0.50000   0.54716   0.00000  Uiso   1.00
Zn621  Zn    0.83333   0.49999   0.55104   0.00000  Uiso   1.00
Zn622  Zn    0.83333   0.50001   0.44896   0.00000  Uiso   1.00
C623   C     0.99188   0.46541   0.44618   0.00000  Uiso   1.00
N624   N     0.97504   0.44347   0.41663   0.00000  Uiso   1.00
C625   C     0.67479   0.53459   0.55382   0.00000  Uiso   1.00
N626   N     0.69163   0.55653   0.58337   0.00000  Uiso   1.00
C627   C     0.76189   0.62557   0.43188   0.00000  Uiso   1.00
N628   N     0.73224   0.60914   0.40466   0.00000  Uiso   1.00
C629   C     0.90479   0.37443   0.56811   0.00000  Uiso   1.00
N630   N     0.93446   0.39086   0.59533   0.00000  Uiso   1.00
C631   C     0.16759   0.75342   0.50019   0.00000  Uiso   1.00
C632   C     0.16574   0.91325   0.49981   0.00000  Uiso   1.00
C633   C     0.06730   0.83289   0.48834   0.00000  Uiso   1.00
C634   C     0.26604   0.83378   0.51166   0.00000  Uiso   1.00
C635   C     0.01326   0.82638   0.48340   0.00000  Uiso   1.00
C636   C     0.32008   0.84029   0.51660   0.00000  Uiso   1.00
C637   C     0.13415   0.68902   0.46659   0.00000  Uiso   1.00
C638   C     0.19918   0.97764   0.53341   0.00000  Uiso   1.00
C639   C     0.13229   0.97942   0.46595   0.00000  Uiso   1.00
C640   C     0.20104   0.68725   0.53405   0.00000  Uiso   1.00
C641   C     0.16525   0.95739   0.49956   0.00000  Uiso   1.00
C642   C     0.16808   0.70928   0.50044   0.00000  Uiso   1.00
C643   C     0.20106   0.85761   0.36152   0.00000  Uiso   1.00
C644   C     0.13227   0.80906   0.63848   0.00000  Uiso   1.00
C645   C     0.20104   0.85760   0.64690   0.00000  Uiso   1.00
C646   C     0.13229   0.80906   0.35310   0.00000  Uiso   1.00
H647   H     0.10853   0.70678   0.44134   0.00000  Uiso   1.00
H648   H     0.22481   0.95988   0.55866   0.00000  Uiso   1.00
H649   H     0.22857   0.87702   0.38303   0.00000  Uiso   1.00
H650   H     0.10476   0.78965   0.61697   0.00000  Uiso   1.00
H651   H     0.22853   0.87702   0.63211   0.00000  Uiso   1.00
H652   H     0.10480   0.78964   0.36789   0.00000  Uiso   1.00
N653   N     0.16665   0.83332   0.61907   0.00000  Uiso   1.00
N654   N     0.16668   0.83334   0.38093   0.00000  Uiso   1.00
O655   O     0.16666   0.77225   0.53821   0.00000  Uiso   1.00
O656   O     0.16667   0.89442   0.46179   0.00000  Uiso   1.00
O657   O     0.16666   0.77226   0.46176   0.00000  Uiso   1.00
O658   O     0.16667   0.89441   0.53824   0.00000  Uiso   1.00
O659   O     0.09058   0.83333   0.52928   0.00000  Uiso   1.00
O660   O     0.24275   0.83334   0.47072   0.00000  Uiso   1.00
O661   O     0.09058   0.83334   0.45284   0.00000  Uiso   1.00
O662   O     0.24275   0.83333   0.54716   0.00000  Uiso   1.00
Zn663  Zn    0.16667   0.83333   0.55104   0.00000  Uiso   1.00
Zn664  Zn    0.16667   0.83334   0.44896   0.00000  Uiso   1.00
C665   C     0.32521   0.79875   0.44618   0.00000  Uiso   1.00
N666   N     0.30837   0.77681   0.41663   0.00000  Uiso   1.00
C667   C     0.00812   0.86792   0.55382   0.00000  Uiso   1.00
N668   N     0.02496   0.88986   0.58337   0.00000  Uiso   1.00
C669   C     0.09523   0.95891   0.43188   0.00000  Uiso   1.00
N670   N     0.06557   0.94247   0.40466   0.00000  Uiso   1.00
C671   C     0.23813   0.70776   0.56811   0.00000  Uiso   1.00
N672   N     0.26780   0.72420   0.59533   0.00000  Uiso   1.00
C673   C     0.50093   0.75342   0.50019   0.00000  Uiso   1.00
C674   C     0.49907   0.91325   0.49981   0.00000  Uiso   1.00
C675   C     0.40063   0.83289   0.48834   0.00000  Uiso   1.00
C676   C     0.59937   0.83378   0.51166   0.00000  Uiso   1.00
C677   C     0.34659   0.82638   0.48340   0.00000  Uiso   1.00
C678   C     0.65341   0.84029   0.51660   0.00000  Uiso   1.00
C679   C     0.46748   0.68902   0.46659   0.00000  Uiso   1.00
C680   C     0.53252   0.97764   0.53341   0.00000  Uiso   1.00
C681   C     0.46563   0.97942   0.46595   0.00000  Uiso   1.00
C682   C     0.53438   0.68725   0.53405   0.00000  Uiso   1.00
C683   C     0.49858   0.95739   0.49956   0.00000  Uiso   1.00
C684   C     0.50142   0.70928   0.50044   0.00000  Uiso   1.00
C685   C     0.53439   0.85761   0.36152   0.00000  Uiso   1.00
C686   C     0.46561   0.80906   0.63848   0.00000  Uiso   1.00
C687   C     0.53438   0.85760   0.64690   0.00000  Uiso   1.00
C688   C     0.46562   0.80906   0.35310   0.00000  Uiso   1.00
H689   H     0.44186   0.70678   0.44134   0.00000  Uiso   1.00
H690   H     0.55814   0.95988   0.55866   0.00000  Uiso   1.00
H691   H     0.56190   0.87702   0.38303   0.00000  Uiso   1.00
H692   H     0.43810   0.78965   0.61697   0.00000  Uiso   1.00
H693   H     0.56186   0.87702   0.63211   0.00000  Uiso   1.00
H694   H     0.43814   0.78964   0.36789   0.00000  Uiso   1.00
N695   N     0.49999   0.83332   0.61907   0.00000  Uiso   1.00
N696   N     0.50001   0.83334   0.38093   0.00000  Uiso   1.00
O697   O     0.50000   0.77225   0.53821   0.00000  Uiso   1.00
O698   O     0.50000   0.89442   0.46179   0.00000  Uiso   1.00
O699   O     0.50000   0.77226   0.46176   0.00000  Uiso   1.00
O700   O     0.50000   0.89441   0.53824   0.00000  Uiso   1.00
O701   O     0.42392   0.83333   0.52928   0.00000  Uiso   1.00
O702   O     0.57608   0.83334   0.47072   0.00000  Uiso   1.00
O703   O     0.42392   0.83334   0.45284   0.00000  Uiso   1.00
O704   O     0.57608   0.83333   0.54716   0.00000  Uiso   1.00
Zn705  Zn    0.50000   0.83333   0.55104   0.00000  Uiso   1.00
Zn706  Zn    0.50000   0.83334   0.44896   0.00000  Uiso   1.00
C707   C     0.65854   0.79875   0.44618   0.00000  Uiso   1.00
N708   N     0.64171   0.77681   0.41663   0.00000  Uiso   1.00
C709   C     0.34146   0.86792   0.55382   0.00000  Uiso   1.00
N710   N     0.35829   0.88986   0.58337   0.00000  Uiso   1.00
C711   C     0.42856   0.95891   0.43188   0.00000  Uiso   1.00
N712   N     0.39891   0.94247   0.40466   0.00000  Uiso   1.00
C713   C     0.57146   0.70776   0.56811   0.00000  Uiso   1.00
N714   N     0.60113   0.72420   0.59533   0.00000  Uiso   1.00
C715   C     0.83426   0.75342   0.50019   0.00000  Uiso   1.00
C716   C     0.83240   0.91325   0.49981   0.00000  Uiso   1.00
C717   C     0.73396   0.83289   0.48834   0.00000  Uiso   1.00
C718   C     0.93270   0.83378   0.51166   0.00000  Uiso   1.00
C719   C     0.67992   0.82638   0.48340   0.00000  Uiso   1.00
C720   C     0.98674   0.84029   0.51660   0.00000  Uiso   1.00
C721   C     0.80081   0.68902   0.46659   0.00000  Uiso   1.00
C722   C     0.86585   0.97764   0.53341   0.00000  Uiso   1.00
C723   C     0.79896   0.97942   0.46595   0.00000  Uiso   1.00
C724   C     0.86771   0.68725   0.53405   0.00000  Uiso   1.00
C725   C     0.83192   0.95739   0.49956   0.00000  Uiso   1.00
C726   C     0.83475   0.70928   0.50044   0.00000  Uiso   1.00
C727   C     0.86773   0.85761   0.36152   0.00000  Uiso   1.00
C728   C     0.79894   0.80906   0.63848   0.00000  Uiso   1.00
C729   C     0.86771   0.85760   0.64690   0.00000  Uiso   1.00
C730   C     0.79896   0.80906   0.35310   0.00000  Uiso   1.00
H731   H     0.77519   0.70678   0.44134   0.00000  Uiso   1.00
H732   H     0.89147   0.95988   0.55866   0.00000  Uiso   1.00
H733   H     0.89524   0.87702   0.38303   0.00000  Uiso   1.00
H734   H     0.77143   0.78965   0.61697   0.00000  Uiso   1.00
H735   H     0.89520   0.87702   0.63211   0.00000  Uiso   1.00
H736   H     0.77147   0.78964   0.36789   0.00000  Uiso   1.00
N737   N     0.83332   0.83332   0.61907   0.00000  Uiso   1.00
N738   N     0.83335   0.83334   0.38093   0.00000  Uiso   1.00
O739   O     0.83333   0.77225   0.53821   0.00000  Uiso   1.00
O740   O     0.83334   0.89442   0.46179   0.00000  Uiso   1.00
O741   O     0.83333   0.77226   0.46176   0.00000  Uiso   1.00
O742   O     0.83334   0.89441   0.53824   0.00000  Uiso   1.00
O743   O     0.75725   0.83333   0.52928   0.00000  Uiso   1.00
O744   O     0.90942   0.83334   0.47072   0.00000  Uiso   1.00
O745   O     0.75725   0.83334   0.45284   0.00000  Uiso   1.00
O746   O     0.90942   0.83333   0.54716   0.00000  Uiso   1.00
Zn747  Zn    0.83333   0.83333   0.55104   0.00000  Uiso   1.00
Zn748  Zn    0.83333   0.83334   0.44896   0.00000  Uiso   1.00
C749   C     0.99188   0.79875   0.44618   0.00000  Uiso   1.00
N750   N     0.97504   0.77681   0.41663   0.00000  Uiso   1.00
C751   C     0.67479   0.86792   0.55382   0.00000  Uiso   1.00
N752   N     0.69163   0.88986   0.58337   0.00000  Uiso   1.00
C753   C     0.76189   0.95891   0.43188   0.00000  Uiso   1.00
N754   N     0.73224   0.94247   0.40466   0.00000  Uiso   1.00
C755   C     0.90479   0.70776   0.56811   0.00000  Uiso   1.00
N756   N     0.93446   0.72420   0.59533   0.00000  Uiso   1.00
C757   C     0.16759   0.08675   0.83353   0.00000  Uiso   1.00
C758   C     0.16574   0.24658   0.83314   0.00000  Uiso   1.00
C759   C     0.06730   0.16622   0.82167   0.00000  Uiso   1.00
C760   C     0.26604   0.16711   0.84500   0.00000  Uiso   1.00
C761   C     0.01326   0.15971   0.81673   0.00000  Uiso   1.00
C762   C     0.32008   0.17362   0.84993   0.00000  Uiso   1.00
C763   C     0.13415   0.02236   0.79992   0.00000  Uiso   1.00
C764   C     0.19918   0.31098   0.86675   0.00000  Uiso   1.00
C765   C     0.13229   0.31275   0.79929   0.00000  Uiso   1.00
C766   C     0.20104   0.02058   0.86738   0.00000  Uiso   1.00
C767   C     0.16525   0.29072   0.83290   0.00000  Uiso   1.00
C768   C     0.16808   0.04261   0.83377   0.00000  Uiso   1.00
C769   C     0.20106   0.19094   0.69485   0.00000  Uiso   1.00
C770   C     0.13227   0.14239   0.97182   0.00000  Uiso   1.00
C771   C     0.20104   0.19094   0.98023   0.00000  Uiso   1.00
C772   C     0.13229   0.14240   0.68643   0.00000  Uiso   1.00
H773   H     0.10853   0.04012   0.77467   0.00000  Uiso   1.00
H774   H     0.22481   0.29322   0.89200   0.00000  Uiso   1.00
H775   H     0.22857   0.21036   0.71637   0.00000  Uiso   1.00
H776   H     0.10476   0.12298   0.95030   0.00000  Uiso   1.00
H777   H     0.22853   0.21036   0.96544   0.00000  Uiso   1.00
H778   H     0.10480   0.12298   0.70122   0.00000  Uiso   1.00
N779   N     0.16665   0.16666   0.95240   0.00000  Uiso   1.00
N780   N     0.16668   0.16668   0.71427   0.00000  Uiso   1.00
O781   O     0.16666   0.10558   0.87154   0.00000  Uiso   1.00
O782   O     0.16667   0.22775   0.79513   0.00000  Uiso   1.00
O783   O     0.16666   0.10559   0.79510   0.00000  Uiso   1.00
O784   O     0.16667   0.22774   0.87157   0.00000  Uiso   1.00
O785   O     0.09058   0.16666   0.86261   0.00000  Uiso   1.00
O786   O     0.24275   0.16667   0.80405   0.00000  Uiso   1.00
O787   O     0.09058   0.16667   0.78617   0.00000  Uiso   1.00
O788   O     0.24275   0.16666   0.88050   0.00000  Uiso   1.00
Zn789  Zn    0.16667   0.16666   0.88437   0.00000  Uiso   1.00
Zn790  Zn    0.16667   0.16667   0.78229   0.00000  Uiso   1.00
C791   C     0.32521   0.13208   0.77952   0.00000  Uiso   1.00
N792   N     0.30837   0.11014   0.74996   0.00000  Uiso   1.00
C793   C     0.00812   0.20125   0.88715   0.00000  Uiso   1.00
N794   N     0.02496   0.22320   0.91671   0.00000  Uiso   1.00
C795   C     0.09523   0.29224   0.76522   0.00000  Uiso   1.00
N796   N     0.06557   0.27581   0.73799   0.00000  Uiso   1.00
C797   C     0.23813   0.04109   0.90144   0.00000  Uiso   1.00
N798   N     0.26780   0.05753   0.92866   0.00000  Uiso   1.00
C799   C     0.50093   0.08675   0.83353   0.00000  Uiso   1.00
C800   C     0.49907   0.24658   0.83314   0.00000  Uiso   1.00
C801   C     0.40063   0.16622   0.82167   0.00000  Uiso   1.00
C802   C     0.59937   0.16711   0.84500   0.00000  Uiso   1.00
C803   C     0.34659   0.15971   0.81673   0.00000  Uiso   1.00
C804   C     0.65341   0.17362   0.84993   0.00000  Uiso   1.00
C805   C     0.46748   0.02236   0.79992   0.00000  Uiso   1.00
C806   C     0.53252   0.31098   0.86675   0.00000  Uiso   1.00
C807   C     0.46563   0.31275   0.79929   0.00000  Uiso   1.00
C808   C     0.53438   0.02058   0.86738   0.00000  Uiso   1.00
C809   C     0.49858   0.29072   0.83290   0.00000  Uiso   1.00
C810   C     0.50142   0.04261   0.83377   0.00000  Uiso   1.00
C811   C     0.53439   0.19094   0.69485   0.00000  Uiso   1.00
C812   C     0.46561   0.14239   0.97182   0.00000  Uiso   1.00
C813   C     0.53438   0.19094   0.98023   0.00000  Uiso   1.00
C814   C     0.46562   0.14240   0.68643   0.00000  Uiso   1.00
H815   H     0.44186   0.04012   0.77467   0.00000  Uiso   1.00
H816   H     0.55814   0.29322   0.89200   0.00000  Uiso   1.00
H817   H     0.56190   0.21036   0.71637   0.00000  Uiso   1.00
H818   H     0.43810   0.12298   0.95030   0.00000  Uiso   1.00
H819   H     0.56186   0.21036   0.96544   0.00000  Uiso   1.00
H820   H     0.43814   0.12298   0.70122   0.00000  Uiso   1.00
N821   N     0.49999   0.16666   0.95240   0.00000  Uiso   1.00
N822   N     0.50001   0.16668   0.71427   0.00000  Uiso   1.00
O823   O     0.50000   0.10558   0.87154   0.00000  Uiso   1.00
O824   O     0.50000   0.22775   0.79513   0.00000  Uiso   1.00
O825   O     0.50000   0.10559   0.79510   0.00000  Uiso   1.00
O826   O     0.50000   0.22774   0.87157   0.00000  Uiso   1.00
O827   O     0.42392   0.16666   0.86261   0.00000  Uiso   1.00
O828   O     0.57608   0.16667   0.80405   0.00000  Uiso   1.00
O829   O     0.42392   0.16667   0.78617   0.00000  Uiso   1.00
O830   O     0.57608   0.16666   0.88050   0.00000  Uiso   1.00
Zn831  Zn    0.50000   0.16666   0.88437   0.00000  Uiso   1.00
Zn832  Zn    0.50000   0.16667   0.78229   0.00000  Uiso   1.00
C833   C     0.65854   0.13208   0.77952   0.00000  Uiso   1.00
N834   N     0.64171   0.11014   0.74996   0.00000  Uiso   1.00
C835   C     0.34146   0.20125   0.88715   0.00000  Uiso   1.00
N836   N     0.35829   0.22320   0.91671   0.00000  Uiso   1.00
C837   C     0.42856   0.29224   0.76522   0.00000  Uiso   1.00
N838   N     0.39891   0.27581   0.73799   0.00000  Uiso   1.00
C839   C     0.57146   0.04109   0.90144   0.00000  Uiso   1.00
N840   N     0.60113   0.05753   0.92866   0.00000  Uiso   1.00
C841   C     0.83426   0.08675   0.83353   0.00000  Uiso   1.00
C842   C     0.83240   0.24658   0.83314   0.00000  Uiso   1.00
C843   C     0.73396   0.16622   0.82167   0.00000  Uiso   1.00
C844   C     0.93270   0.16711   0.84500   0.00000  Uiso   1.00
C845   C     0.67992   0.15971   0.81673   0.00000  Uiso   1.00
C846   C     0.98674   0.17362   0.84993   0.00000  Uiso   1.00
C847   C     0.80081   0.02236   0.79992   0.00000  Uiso   1.00
C848   C     0.86585   0.31098   0.86675   0.00000  Uiso   1.00
C849   C     0.79896   0.31275   0.79929   0.00000  Uiso   1.00
C850   C     0.86771   0.02058   0.86738   0.00000  Uiso   1.00
C851   C     0.83192   0.29072   0.83290   0.00000  Uiso   1.00
C852   C     0.83475   0.04261   0.83377   0.00000  Uiso   1.00
C853   C     0.86773   0.19094   0.69485   0.00000  Uiso   1.00
C854   C     0.79894   0.14239   0.97182   0.00000  Uiso   1.00
C855   C     0.86771   0.19094   0.98023   0.00000  Uiso   1.00
C856   C     0.79896   0.14240   0.68643   0.00000  Uiso   1.00
H857   H     0.77519   0.04012   0.77467   0.00000  Uiso   1.00
H858   H     0.89147   0.29322   0.89200   0.00000  Uiso   1.00
H859   H     0.89524   0.21036   0.71637   0.00000  Uiso   1.00
H860   H     0.77143   0.12298   0.95030   0.00000  Uiso   1.00
H861   H     0.89520   0.21036   0.96544   0.00000  Uiso   1.00
H862   H     0.77147   0.12298   0.70122   0.00000  Uiso   1.00
N863   N     0.83332   0.16666   0.95240   0.00000  Uiso   1.00
N864   N     0.83335   0.16668   0.71427   0.00000  Uiso   1.00
O865   O     0.83333   0.10558   0.87154   0.00000  Uiso   1.00
O866   O     0.83334   0.22775   0.79513   0.00000  Uiso   1.00
O867   O     0.83333   0.10559   0.79510   0.00000  Uiso   1.00
O868   O     0.83334   0.22774   0.87157   0.00000  Uiso   1.00
O869   O     0.75725   0.16666   0.86261   0.00000  Uiso   1.00
O870   O     0.90942   0.16667   0.80405   0.00000  Uiso   1.00
O871   O     0.75725   0.16667   0.78617   0.00000  Uiso   1.00
O872   O     0.90942   0.16666   0.88050   0.00000  Uiso   1.00
Zn873  Zn    0.83333   0.16666   0.88437   0.00000  Uiso   1.00
Zn874  Zn    0.83333   0.16667   0.78229   0.00000  Uiso   1.00
C875   C     0.99188   0.13208   0.77952   0.00000  Uiso   1.00
N876   N     0.97504   0.11014   0.74996   0.00000  Uiso   1.00
C877   C     0.67479   0.20125   0.88715   0.00000  Uiso   1.00
N878   N     0.69163   0.22320   0.91671   0.00000  Uiso   1.00
C879   C     0.76189   0.29224   0.76522   0.00000  Uiso   1.00
N880   N     0.73224   0.27581   0.73799   0.00000  Uiso   1.00
C881   C     0.90479   0.04109   0.90144   0.00000  Uiso   1.00
N882   N     0.93446   0.05753   0.92866   0.00000  Uiso   1.00
C883   C     0.16759   0.42009   0.83353   0.00000  Uiso   1.00
C884   C     0.16574   0.57991   0.83314   0.00000  Uiso   1.00
C885   C     0.06730   0.49956   0.82167   0.00000  Uiso   1.00
C886   C     0.26604   0.50044   0.84500   0.00000  Uiso   1.00
C887   C     0.01326   0.49304   0.81673   0.00000  Uiso   1.00
C888   C     0.32008   0.50696   0.84993   0.00000  Uiso   1.00
C889   C     0.13415   0.35569   0.79992   0.00000  Uiso   1.00
C890   C     0.19918   0.64431   0.86675   0.00000  Uiso   1.00
C891   C     0.13229   0.64609   0.79929   0.00000  Uiso   1.00
C892   C     0.20104   0.35391   0.86738   0.00000  Uiso   1.00
C893   C     0.16525   0.62406   0.83290   0.00000  Uiso   1.00
C894   C     0.16808   0.37594   0.83377   0.00000  Uiso   1.00
C895   C     0.20106   0.52428   0.69485   0.00000  Uiso   1.00
C896   C     0.13227   0.47572   0.97182   0.00000  Uiso   1.00
C897   C     0.20104   0.52427   0.98023   0.00000  Uiso   1.00
C898   C     0.13229   0.47573   0.68643   0.00000  Uiso   1.00
H899   H     0.10853   0.37345   0.77467   0.00000  Uiso   1.00
H900   H     0.22481   0.62655   0.89200   0.00000  Uiso   1.00
H901   H     0.22857   0.54369   0.71637   0.00000  Uiso   1.00
H902   H     0.10476   0.45631   0.95030   0.00000  Uiso   1.00
H903   H     0.22853   0.54369   0.96544   0.00000  Uiso   1.00
H904   H     0.10480   0.45631   0.70122   0.00000  Uiso   1.00
N905   N     0.16665   0.49999   0.95240   0.00000  Uiso   1.00
N906   N     0.16668   0.50001   0.71427   0.00000  Uiso   1.00
O907   O     0.16666   0.43892   0.87154   0.00000  Uiso   1.00
O908   O     0.16667   0.56108   0.79513   0.00000  Uiso   1.00
O909   O     0.16666   0.43893   0.79510   0.00000  Uiso   1.00
O910   O     0.16667   0.56107   0.87157   0.00000  Uiso   1.00
O911   O     0.09058   0.50000   0.86261   0.00000  Uiso   1.00
O912   O     0.24275   0.50000   0.80405   0.00000  Uiso   1.00
O913   O     0.09058   0.50000   0.78617   0.00000  Uiso   1.00
O914   O     0.24275   0.50000   0.88050   0.00000  Uiso   1.00
Zn915  Zn    0.16667   0.49999   0.88437   0.00000  Uiso   1.00
Zn916  Zn    0.16667   0.50001   0.78229   0.00000  Uiso   1.00
C917   C     0.32521   0.46541   0.77952   0.00000  Uiso   1.00
N918   N     0.30837   0.44347   0.74996   0.00000  Uiso   1.00
C919   C     0.00812   0.53459   0.88715   0.00000  Uiso   1.00
N920   N     0.02496   0.55653   0.91671   0.00000  Uiso   1.00
C921   C     0.09523   0.62557   0.76522   0.00000  Uiso   1.00
N922   N     0.06557   0.60914   0.73799   0.00000  Uiso   1.00
C923   C     0.23813   0.37443   0.90144   0.00000  Uiso   1.00
N924   N     0.26780   0.39086   0.92866   0.00000  Uiso   1.00
C925   C     0.50093   0.42009   0.83353   0.00000  Uiso   1.00
C926   C     0.49907   0.57991   0.83314   0.00000  Uiso   1.00
C927   C     0.40063   0.49956   0.82167   0.00000  Uiso   1.00
C928   C     0.59937   0.50044   0.84500   0.00000  Uiso   1.00
C929   C     0.34659   0.49304   0.81673   0.00000  Uiso   1.00
C930   C     0.65341   0.50696   0.84993   0.00000  Uiso   1.00
C931   C     0.46748   0.35569   0.79992   0.00000  Uiso   1.00
C932   C     0.53252   0.64431   0.86675   0.00000  Uiso   1.00
C933   C     0.46563   0.64609   0.79929   0.00000  Uiso   1.00
C934   C     0.53438   0.35391   0.86738   0.00000  Uiso   1.00
C935   C     0.49858   0.62406   0.83290   0.00000  Uiso   1.00
C936   C     0.50142   0.37594   0.83377   0.00000  Uiso   1.00
C937   C     0.53439   0.52428   0.69485   0.00000  Uiso   1.00
C938   C     0.46561   0.47572   0.97182   0.00000  Uiso   1.00
C939   C     0.53438   0.52427   0.98023   0.00000  Uiso   1.00
C940   C     0.46562   0.47573   0.68643   0.00000  Uiso   1.00
H941   H     0.44186   0.37345   0.77467   0.00000  Uiso   1.00
H942   H     0.55814   0.62655   0.89200   0.00000  Uiso   1.00
H943   H     0.56190   0.54369   0.71637   0.00000  Uiso   1.00
H944   H     0.43810   0.45631   0.95030   0.00000  Uiso   1.00
H945   H     0.56186   0.54369   0.96544   0.00000  Uiso   1.00
H946   H     0.43814   0.45631   0.70122   0.00000  Uiso   1.00
N947   N     0.49999   0.49999   0.95240   0.00000  Uiso   1.00
N948   N     0.50001   0.50001   0.71427   0.00000  Uiso   1.00
O949   O     0.50000   0.43892   0.87154   0.00000  Uiso   1.00
O950   O     0.50000   0.56108   0.79513   0.00000  Uiso   1.00
O951   O     0.50000   0.43893   0.79510   0.00000  Uiso   1.00
O952   O     0.50000   0.56107   0.87157   0.00000  Uiso   1.00
O953   O     0.42392   0.50000   0.86261   0.00000  Uiso   1.00
O954   O     0.57608   0.50000   0.80405   0.00000  Uiso   1.00
O955   O     0.42392   0.50000   0.78617   0.00000  Uiso   1.00
O956   O     0.57608   0.50000   0.88050   0.00000  Uiso   1.00
Zn957  Zn    0.50000   0.49999   0.88437   0.00000  Uiso   1.00
Zn958  Zn    0.50000   0.50001   0.78229   0.00000  Uiso   1.00
C959   C     0.65854   0.46541   0.77952   0.00000  Uiso   1.00
N960   N     0.64171   0.44347   0.74996   0.00000  Uiso   1.00
C961   C     0.34146   0.53459   0.88715   0.00000  Uiso   1.00
N962   N     0.35829   0.55653   0.91671   0.00000  Uiso   1.00
C963   C     0.42856   0.62557   0.76522   0.00000  Uiso   1.00
N964   N     0.39891   0.60914   0.73799   0.00000  Uiso   1.00
C965   C     0.57146   0.37443   0.90144   0.00000  Uiso   1.00
N966   N     0.60113   0.39086   0.92866   0.00000  Uiso   1.00
C967   C     0.83426   0.42009   0.83353   0.00000  Uiso   1.00
C968   C     0.83240   0.57991   0.83314   0.00000  Uiso   1.00
C969   C     0.73396   0.49956   0.82167   0.00000  Uiso   1.00
C970   C     0.93270   0.50044   0.84500   0.00000  Uiso   1.00
C971   C     0.67992   0.49304   0.81673   0.00000  Uiso   1.00
C972   C     0.98674   0.50696   0.84993   0.00000  Uiso   1.00
C973   C     0.80081   0.35569   0.79992   0.00000  Uiso   1.00
C974   C     0.86585   0.64431   0.86675   0.00000  Uiso   1.00
C975   C     0.79896   0.64609   0.79929   0.00000  Uiso   1.00
C976   C     0.86771   0.35391   0.86738   0.00000  Uiso   1.00
C977   C     0.83192   0.62406   0.83290   0.00000  Uiso   1.00
C978   C     0.83475   0.37594   0.83377   0.00000  Uiso   1.00
C979   C     0.86773   0.52428   0.69485   0.00000  Uiso   1.00
C980   C     0.79894   0.47572   0.97182   0.00000  Uiso   1.00
C981   C     0.86771   0.52427   0.98023   0.00000  Uiso   1.00
C982   C     0.79896   0.47573   0.68643   0.00000  Uiso   1.00
H983   H     0.77519   0.37345   0.77467   0.00000  Uiso   1.00
H984   H     0.89147   0.62655   0.89200   0.00000  Uiso   1.00
H985   H     0.89524   0.54369   0.71637   0.00000  Uiso   1.00
H986   H     0.77143   0.45631   0.95030   0.00000  Uiso   1.00
H987   H     0.89520   0.54369   0.96544   0.00000  Uiso   1.00
H988   H     0.77147   0.45631   0.70122   0.00000  Uiso   1.00
N989   N     0.83332   0.49999   0.95240   0.00000  Uiso   1.00
N990   N     0.83335   0.50001   0.71427   0.00000  Uiso   1.00
O991   O     0.83333   0.43892   0.87154   0.00000  Uiso   1.00
O992   O     0.83334   0.56108   0.79513   0.00000  Uiso   1.00
O993   O     0.83333   0.43893   0.79510   0.00000  Uiso   1.00
O994   O     0.83334   0.56107   0.87157   0.00000  Uiso   1.00
O995   O     0.75725   0.50000   0.86261   0.00000  Uiso   1.00
O996   O     0.90942   0.50000   0.80405   0.00000  Uiso   1.00
O997   O     0.75725   0.50000   0.78617   0.00000  Uiso   1.00
O998   O     0.90942   0.50000   0.88050   0.00000  Uiso   1.00
Zn999  Zn    0.83333   0.49999   0.88437   0.00000  Uiso   1.00
Zn1000 Zn    0.83333   0.50001   0.78229   0.00000  Uiso   1.00
C1001  C     0.99188   0.46541   0.77952   0.00000  Uiso   1.00
N1002  N     0.97504   0.44347   0.74996   0.00000  Uiso   1.00
C1003  C     0.67479   0.53459   0.88715   0.00000  Uiso   1.00
N1004  N     0.69163   0.55653   0.91671   0.00000  Uiso   1.00
C1005  C     0.76189   0.62557   0.76522   0.00000  Uiso   1.00
N1006  N     0.73224   0.60914   0.73799   0.00000  Uiso   1.00
C1007  C     0.90479   0.37443   0.90144   0.00000  Uiso   1.00
N1008  N     0.93446   0.39086   0.92866   0.00000  Uiso   1.00
C1009  C     0.16759   0.75342   0.83353   0.00000  Uiso   1.00
C1010  C     0.16574   0.91325   0.83314   0.00000  Uiso   1.00
C1011  C     0.06730   0.83289   0.82167   0.00000  Uiso   1.00
C1012  C     0.26604   0.83378   0.84500   0.00000  Uiso   1.00
C1013  C     0.01326   0.82638   0.81673   0.00000  Uiso   1.00
C1014  C     0.32008   0.84029   0.84993   0.00000  Uiso   1.00
C1015  C     0.13415   0.68902   0.79992   0.00000  Uiso   1.00
C1016  C     0.19918   0.97764   0.86675   0.00000  Uiso   1.00
C1017  C     0.13229   0.97942   0.79929   0.00000  Uiso   1.00
C1018  C     0.20104   0.68725   0.86738   0.00000  Uiso   1.00
C1019  C     0.16525   0.95739   0.83290   0.00000  Uiso   1.00
C1020  C     0.16808   0.70928   0.83377   0.00000  Uiso   1.00
C1021  C     0.20106   0.85761   0.69485   0.00000  Uiso   1.00
C1022  C     0.13227   0.80906   0.97182   0.00000  Uiso   1.00
C1023  C     0.20104   0.85760   0.98023   0.00000  Uiso   1.00
C1024  C     0.13229   0.80906   0.68643   0.00000  Uiso   1.00
H1025  H     0.10853   0.70678   0.77467   0.00000  Uiso   1.00
H1026  H     0.22481   0.95988   0.89200   0.00000  Uiso   1.00
H1027  H     0.22857   0.87702   0.71637   0.00000  Uiso   1.00
H1028  H     0.10476   0.78965   0.95030   0.00000  Uiso   1.00
H1029  H     0.22853   0.87702   0.96544   0.00000  Uiso   1.00
H1030  H     0.10480   0.78964   0.70122   0.00000  Uiso   1.00
N1031  N     0.16665   0.83332   0.95240   0.00000  Uiso   1.00
N1032  N     0.16668   0.83334   0.71427   0.00000  Uiso   1.00
O1033  O     0.16666   0.77225   0.87154   0.00000  Uiso   1.00
O1034  O     0.16667   0.89442   0.79513   0.00000  Uiso   1.00
O1035  O     0.16666   0.77226   0.79510   0.00000  Uiso   1.00
O1036  O     0.16667   0.89441   0.87157   0.00000  Uiso   1.00
O1037  O     0.09058   0.83333   0.86261   0.00000  Uiso   1.00
O1038  O     0.24275   0.83334   0.80405   0.00000  Uiso   1.00
O1039  O     0.09058   0.83334   0.78617   0.00000  Uiso   1.00
O1040  O     0.24275   0.83333   0.88050   0.00000  Uiso   1.00
Zn1041 Zn    0.16667   0.83333   0.88437   0.00000  Uiso   1.00
Zn1042 Zn    0.16667   0.83334   0.78229   0.00000  Uiso   1.00
C1043  C     0.32521   0.79875   0.77952   0.00000  Uiso   1.00
N1044  N     0.30837   0.77681   0.74996   0.00000  Uiso   1.00
C1045  C     0.00812   0.86792   0.88715   0.00000  Uiso   1.00
N1046  N     0.02496   0.88986   0.91671   0.00000  Uiso   1.00
C1047  C     0.09523   0.95891   0.76522   0.00000  Uiso   1.00
N1048  N     0.06557   0.94247   0.73799   0.00000  Uiso   1.00
C1049  C     0.23813   0.70776   0.90144   0.00000  Uiso   1.00
N1050  N     0.26780   0.72420   0.92866   0.00000  Uiso   1.00
C1051  C     0.50093   0.75342   0.83353   0.00000  Uiso   1.00
C1052  C     0.49907   0.91325   0.83314   0.00000  Uiso   1.00
C1053  C     0.40063   0.83289   0.82167   0.00000  Uiso   1.00
C1054  C     0.59937   0.83378   0.84500   0.00000  Uiso   1.00
C1055  C     0.34659   0.82638   0.81673   0.00000  Uiso   1.00
C1056  C     0.65341   0.84029   0.84993   0.00000  Uiso   1.00
C1057  C     0.46748   0.68902   0.79992   0.00000  Uiso   1.00
C1058  C     0.53252   0.97764   0.86675   0.00000  Uiso   1.00
C1059  C     0.46563   0.97942   0.79929   0.00000  Uiso   1.00
C1060  C     0.53438   0.68725   0.86738   0.00000  Uiso   1.00
C1061  C     0.49858   0.95739   0.83290   0.00000  Uiso   1.00
C1062  C     0.50142   0.70928   0.83377   0.00000  Uiso   1.00
C1063  C     0.53439   0.85761   0.69485   0.00000  Uiso   1.00
C1064  C     0.46561   0.80906   0.97182   0.00000  Uiso   1.00
C1065  C     0.53438   0.85760   0.98023   0.00000  Uiso   1.00
C1066  C     0.46562   0.80906   0.68643   0.00000  Uiso   1.00
H1067  H     0.44186   0.70678   0.77467   0.00000  Uiso   1.00
H1068  H     0.55814   0.95988   0.89200   0.00000  Uiso   1.00
H1069  H     0.56190   0.87702   0.71637   0.00000  Uiso   1.00
H1070  H     0.43810   0.78965   0.95030   0.00000  Uiso   1.00
H1071  H     0.56186   0.87702   0.96544   0.00000  Uiso   1.00
H1072  H     0.43814   0.78964   0.70122   0.00000  Uiso   1.00
N1073  N     0.49999   0.83332   0.95240   0.00000  Uiso   1.00
N1074  N     0.50001   0.83334   0.71427   0.00000  Uiso   1.00
O1075  O     0.50000   0.77225   0.87154   0.00000  Uiso   1.00
O1076  O     0.50000   0.89442   0.79513   0.00000  Uiso   1.00
O1077  O     0.50000   0.77226   0.79510   0.00000  Uiso   1.00
O1078  O     0.50000   0.89441   0.87157   0.00000  Uiso   1.00
O1079  O     0.42392   0.83333   0.86261   0.00000  Uiso   1.00
O1080  O     0.57608   0.83334   0.80405   0.00000  Uiso   1.00
O1081  O     0.42392   0.83334   0.78617   0.00000  Uiso   1.00
O1082  O     0.57608   0.83333   0.88050   0.00000  Uiso   1.00
Zn1083 Zn    0.50000   0.83333   0.88437   0.00000  Uiso   1.00
Zn1084 Zn    0.50000   0.83334   0.78229   0.00000  Uiso   1.00
C1085  C     0.65854   0.79875   0.77952   0.00000  Uiso   1.00
N1086  N     0.64171   0.77681   0.74996   0.00000  Uiso   1.00
C1087  C     0.34146   0.86792   0.88715   0.00000  Uiso   1.00
N1088  N     0.35829   0.88986   0.91671   0.00000  Uiso   1.00
C1089  C     0.42856   0.95891   0.76522   0.00000  Uiso   1.00
N1090  N     0.39891   0.94247   0.73799   0.00000  Uiso   1.00
C1091  C     0.57146   0.70776   0.90144   0.00000  Uiso   1.00
N1092  N     0.60113   0.72420   0.92866   0.00000  Uiso   1.00
C1093  C     0.83426   0.75342   0.83353   0.00000  Uiso   1.00
C1094  C     0.83240   0.91325   0.83314   0.00000  Uiso   1.00
C1095  C     0.73396   0.83289   0.82167   0.00000  Uiso   1.00
C1096  C     0.93270   0.83378   0.84500   0.00000  Uiso   1.00
C1097  C     0.67992   0.82638   0.81673   0.00000  Uiso   1.00
C1098  C     0.98674   0.84029   0.84993   0.00000  Uiso   1.00
C1099  C     0.80081   0.68902   0.79992   0.00000  Uiso   1.00
C1100  C     0.86585   0.97764   0.86675   0.00000  Uiso   1.00
C1101  C     0.79896   0.97942   0.79929   0.00000  Uiso   1.00
C1102  C     0.86771   0.68725   0.86738   0.00000  Uiso   1.00
C1103  C     0.83192   0.95739   0.83290   0.00000  Uiso   1.00
C1104  C     0.83475   0.70928   0.83377   0.00000  Uiso   1.00
C1105  C     0.86773   0.85761   0.69485   0.00000  Uiso   1.00
C1106  C     0.79894   0.80906   0.97182   0.00000  Uiso   1.00
C1107  C     0.86771   0.85760   0.98023   0.00000  Uiso   1.00
C1108  C     0.79896   0.80906   0.68643   0.00000  Uiso   1.00
H1109  H     0.77519   0.70678   0.77467   0.00000  Uiso   1.00
H1110  H     0.89147   0.95988   0.89200   0.00000  Uiso   1.00
H1111  H     0.89524   0.87702   0.71637   0.00000  Uiso   1.00
H1112  H     0.77143   0.78965   0.95030   0.00000  Uiso   1.00
H1113  H     0.89520   0.87702   0.96544   0.00000  Uiso   1.00
H1114  H     0.77147   0.78964   0.70122   0.00000  Uiso   1.00
N1115  N     0.83332   0.83332   0.95240   0.00000  Uiso   1.00
N1116  N     0.83335   0.83334   0.71427   0.00000  Uiso   1.00
O1117  O     0.83333   0.77225   0.87154   0.00000  Uiso   1.00
O1118  O     0.83334   0.89442   0.79513   0.00000  Uiso   1.00
O1119  O     0.83333   0.77226   0.79510   0.00000  Uiso   1.00
O1120  O     0.83334   0.89441   0.87157   0.00000  Uiso   1.00
O1121  O     0.75725   0.83333   0.86261   0.00000  Uiso   1.00
O1122  O     0.90942   0.83334   0.80405   0.00000  Uiso   1.00
O1123  O     0.75725   0.83334   0.78617   0.00000  Uiso   1.00
O1124  O     0.90942   0.83333   0.88050   0.00000  Uiso   1.00
Zn1125 Zn    0.83333   0.83333   0.88437   0.00000  Uiso   1.00
Zn1126 Zn    0.83333   0.83334   0.78229   0.00000  Uiso   1.00
C1127  C     0.99188   0.79875   0.77952   0.00000  Uiso   1.00
N1128  N     0.97504   0.77681   0.74996   0.00000  Uiso   1.00
C1129  C     0.67479   0.86792   0.88715   0.00000  Uiso   1.00
N1130  N     0.69163   0.88986   0.91671   0.00000  Uiso   1.00
C1131  C     0.76189   0.95891   0.76522   0.00000  Uiso   1.00
N1132  N     0.73224   0.94247   0.73799   0.00000  Uiso   1.00
C1133  C     0.90479   0.70776   0.90144   0.00000  Uiso   1.00
N1134  N     0.93446   0.72420   0.92866   0.00000  Uiso   1.00
loop_
_geom_bond_atom_site_label_1
_geom_bond_atom_site_label_2
_geom_bond_distance
_geom_bond_site_symmetry_2
_ccdc_geom_bond_type
C1     O25     1.280   .     A
C1     C12     1.412   .     S
C1     O27     1.281   .     A
C2     O28     1.281   .     A
C2     O26     1.280   .     A
C2     C11     1.412   .     S
C3     O31     1.283   .     A
C3     O29     1.273   .     A
C3     C5      1.404   .     S
C4     O30     1.273   .     A
C4     O32     1.283   .     A
C4     C6      1.404   .     S
C5     C90     1.353   1_455 S
C5     C119    1.459   1_455 S
C6     C47     1.353   .     S
C6     C79     1.459   .     S
C7     C12     1.395   .     A
C7     H17     1.086   .     S
C7     C261    1.374   1_545 S
C8     C11     1.395   .     A
C8     H18     1.086   .     S
C8     C136    1.374   .     S
C9     C11     1.404   .     A
C9     C39     1.447   .     S
C9     C133    1.374   .     S
C10    C41     1.447   .     S
C10    C12     1.404   .     A
C10    C260    1.374   1_545 S
C13    H19     1.082   .     S
C13    N24     1.366   .     A
C13    C771    1.417   1_554 S
C14    N23     1.366   .     A
C14    H20     1.082   .     S
C14    C394    1.417   .     S
C15    H21     1.082   .     S
C15    N23     1.366   .     A
C15    C391    1.417   .     S
C16    N24     1.366   .     A
C16    H22     1.082   .     S
C16    C770    1.417   1_554 S
N23    Zn33    2.010   .     S
N24    Zn34    2.010   .     S
O25    Zn33    1.992   .     S
O26    Zn34    1.992   .     S
O27    Zn34    1.989   .     S
O28    Zn33    1.989   .     S
O29    Zn33    1.988   .     S
O30    Zn34    1.988   .     S
O31    Zn34    1.995   .     S
O32    Zn33    1.995   .     S
C35    N36     1.158   .     T
C35    C47     1.459   .     S
C37    N38     1.158   .     T
C37    C90     1.459   1_455 S
C39    N40     1.157   .     T
C41    N42     1.158   .     T
C43    O67     1.280   .     A
C43    C54     1.412   .     S
C43    O69     1.281   .     A
C44    O70     1.281   .     A
C44    O68     1.280   .     A
C44    C53     1.412   .     S
C45    O73     1.283   .     A
C45    O71     1.273   .     A
C45    C47     1.404   .     S
C46    O72     1.273   .     A
C46    O74     1.283   .     A
C46    C48     1.404   .     S
C48    C89     1.353   .     S
C48    C121    1.459   .     S
C49    C54     1.395   .     A
C49    H59     1.086   .     S
C49    C303    1.374   1_545 S
C50    C53     1.395   .     A
C50    H60     1.086   .     S
C50    C178    1.374   .     S
C51    C53     1.404   .     A
C51    C81     1.447   .     S
C51    C175    1.374   .     S
C52    C83     1.447   .     S
C52    C54     1.404   .     A
C52    C302    1.374   1_545 S
C55    H61     1.082   .     S
C55    N66     1.366   .     A
C55    C813    1.417   1_554 S
C56    N65     1.366   .     A
C56    H62     1.082   .     S
C56    C436    1.417   .     S
C57    H63     1.082   .     S
C57    N65     1.366   .     A
C57    C433    1.417   .     S
C58    N66     1.366   .     A
C58    H64     1.082   .     S
C58    C812    1.417   1_554 S
N65    Zn75    2.010   .     S
N66    Zn76    2.010   .     S
O67    Zn75    1.992   .     S
O68    Zn76    1.992   .     S
O69    Zn76    1.989   .     S
O70    Zn75    1.989   .     S
O71    Zn75    1.988   .     S
O72    Zn76    1.988   .     S
O73    Zn76    1.995   .     S
O74    Zn75    1.995   .     S
C77    N78     1.158   .     T
C77    C89     1.459   .     S
C79    N80     1.158   .     T
C81    N82     1.157   .     T
C83    N84     1.158   .     T
C85    O109    1.280   .     A
C85    C96     1.412   .     S
C85    O111    1.281   .     A
C86    O112    1.281   .     A
C86    O110    1.280   .     A
C86    C95     1.412   .     S
C87    O115    1.283   .     A
C87    O113    1.273   .     A
C87    C89     1.404   .     S
C88    O114    1.273   .     A
C88    O116    1.283   .     A
C88    C90     1.404   .     S
C90    C5      1.353   1_655 S
C90    C37     1.459   1_655 S
C91    C96     1.395   .     A
C91    H101    1.086   .     S
C91    C345    1.374   1_545 S
C92    C95     1.395   .     A
C92    H102    1.086   .     S
C92    C220    1.374   .     S
C93    C95     1.404   .     A
C93    C123    1.447   .     S
C93    C217    1.374   .     S
C94    C125    1.447   .     S
C94    C96     1.404   .     A
C94    C344    1.374   1_545 S
C97    H103    1.082   .     S
C97    N108    1.366   .     A
C97    C855    1.417   1_554 S
C98    N107    1.366   .     A
C98    H104    1.082   .     S
C98    C478    1.417   .     S
C99    H105    1.082   .     S
C99    N107    1.366   .     A
C99    C475    1.417   .     S
C100   N108    1.366   .     A
C100   H106    1.082   .     S
C100   C854    1.417   1_554 S
N107   Zn117   2.010   .     S
N108   Zn118   2.010   .     S
O109   Zn117   1.992   .     S
O110   Zn118   1.992   .     S
O111   Zn118   1.989   .     S
O112   Zn117   1.989   .     S
O113   Zn117   1.988   .     S
O114   Zn118   1.988   .     S
O115   Zn118   1.995   .     S
O116   Zn117   1.995   .     S
C119   N120    1.158   .     T
C119   C5      1.459   1_655 S
C121   N122    1.158   .     T
C123   N124    1.157   .     T
C125   N126    1.158   .     T
C127   O151    1.280   .     A
C127   C138    1.412   .     S
C127   O153    1.281   .     A
C128   O154    1.281   .     A
C128   O152    1.280   .     A
C128   C137    1.412   .     S
C129   O157    1.283   .     A
C129   O155    1.273   .     A
C129   C131    1.404   .     S
C130   O156    1.273   .     A
C130   O158    1.283   .     A
C130   C132    1.404   .     S
C131   C216    1.353   1_455 S
C131   C245    1.459   1_455 S
C132   C173    1.353   .     S
C132   C205    1.459   .     S
C133   C138    1.395   .     A
C133   H143    1.086   .     S
C134   C137    1.395   .     A
C134   H144    1.086   .     S
C134   C262    1.374   .     S
C135   C137    1.404   .     A
C135   C165    1.447   .     S
C135   C259    1.374   .     S
C136   C167    1.447   .     S
C136   C138    1.404   .     A
C139   H145    1.082   .     S
C139   N150    1.366   .     A
C139   C897    1.417   1_554 S
C140   N149    1.366   .     A
C140   H146    1.082   .     S
C140   C520    1.417   .     S
C141   H147    1.082   .     S
C141   N149    1.366   .     A
C141   C517    1.417   .     S
C142   N150    1.366   .     A
C142   H148    1.082   .     S
C142   C896    1.417   1_554 S
N149   Zn159   2.010   .     S
N150   Zn160   2.010   .     S
O151   Zn159   1.992   .     S
O152   Zn160   1.992   .     S
O153   Zn160   1.989   .     S
O154   Zn159   1.989   .     S
O155   Zn159   1.988   .     S
O156   Zn160   1.988   .     S
O157   Zn160   1.995   .     S
O158   Zn159   1.995   .     S
C161   N162    1.158   .     T
C161   C173    1.459   .     S
C163   N164    1.158   .     T
C163   C216    1.459   1_455 S
C165   N166    1.157   .     T
C167   N168    1.158   .     T
C169   O193    1.280   .     A
C169   C180    1.412   .     S
C169   O195    1.281   .     A
C170   O196    1.281   .     A
C170   O194    1.280   .     A
C170   C179    1.412   .     S
C171   O199    1.283   .     A
C171   O197    1.273   .     A
C171   C173    1.404   .     S
C172   O198    1.273   .     A
C172   O200    1.283   .     A
C172   C174    1.404   .     S
C174   C215    1.353   .     S
C174   C247    1.459   .     S
C175   C180    1.395   .     A
C175   H185    1.086   .     S
C176   C179    1.395   .     A
C176   H186    1.086   .     S
C176   C304    1.374   .     S
C177   C179    1.404   .     A
C177   C207    1.447   .     S
C177   C301    1.374   .     S
C178   C209    1.447   .     S
C178   C180    1.404   .     A
C181   H187    1.082   .     S
C181   N192    1.366   .     A
C181   C939    1.417   1_554 S
C182   N191    1.366   .     A
C182   H188    1.082   .     S
C182   C562    1.417   .     S
C183   H189    1.082   .     S
C183   N191    1.366   .     A
C183   C559    1.417   .     S
C184   N192    1.366   .     A
C184   H190    1.082   .     S
C184   C938    1.417   1_554 S
N191   Zn201   2.010   .     S
N192   Zn202   2.010   .     S
O193   Zn201   1.992   .     S
O194   Zn202   1.992   .     S
O195   Zn202   1.989   .     S
O196   Zn201   1.989   .     S
O197   Zn201   1.988   .     S
O198   Zn202   1.988   .     S
O199   Zn202   1.995   .     S
O200   Zn201   1.995   .     S
C203   N204    1.158   .     T
C203   C215    1.459   .     S
C205   N206    1.158   .     T
C207   N208    1.157   .     T
C209   N210    1.158   .     T
C211   O235    1.280   .     A
C211   C222    1.412   .     S
C211   O237    1.281   .     A
C212   O238    1.281   .     A
C212   O236    1.280   .     A
C212   C221    1.412   .     S
C213   O241    1.283   .     A
C213   O239    1.273   .     A
C213   C215    1.404   .     S
C214   O240    1.273   .     A
C214   O242    1.283   .     A
C214   C216    1.404   .     S
C216   C131    1.353   1_655 S
C216   C163    1.459   1_655 S
C217   C222    1.395   .     A
C217   H227    1.086   .     S
C218   C221    1.395   .     A
C218   H228    1.086   .     S
C218   C346    1.374   .     S
C219   C221    1.404   .     A
C219   C249    1.447   .     S
C219   C343    1.374   .     S
C220   C251    1.447   .     S
C220   C222    1.404   .     A
C223   H229    1.082   .     S
C223   N234    1.366   .     A
C223   C981    1.417   1_554 S
C224   N233    1.366   .     A
C224   H230    1.082   .     S
C224   C604    1.417   .     S
C225   H231    1.082   .     S
C225   N233    1.366   .     A
C225   C601    1.417   .     S
C226   N234    1.366   .     A
C226   H232    1.082   .     S
C226   C980    1.417   1_554 S
N233   Zn243   2.010   .     S
N234   Zn244   2.010   .     S
O235   Zn243   1.992   .     S
O236   Zn244   1.992   .     S
O237   Zn244   1.989   .     S
O238   Zn243   1.989   .     S
O239   Zn243   1.988   .     S
O240   Zn244   1.988   .     S
O241   Zn244   1.995   .     S
O242   Zn243   1.995   .     S
C245   N246    1.158   .     T
C245   C131    1.459   1_655 S
C247   N248    1.158   .     T
C249   N250    1.157   .     T
C251   N252    1.158   .     T
C253   O277    1.280   .     A
C253   C264    1.412   .     S
C253   O279    1.281   .     A
C254   O280    1.281   .     A
C254   O278    1.280   .     A
C254   C263    1.412   .     S
C255   O283    1.283   .     A
C255   O281    1.273   .     A
C255   C257    1.404   .     S
C256   O282    1.273   .     A
C256   O284    1.283   .     A
C256   C258    1.404   .     S
C257   C342    1.353   1_455 S
C257   C371    1.459   1_455 S
C258   C299    1.353   .     S
C258   C331    1.459   .     S
C259   C264    1.395   .     A
C259   H269    1.086   .     S
C260   C263    1.395   .     A
C260   H270    1.086   .     S
C260   C10     1.374   1_565 S
C261   C263    1.404   .     A
C261   C291    1.447   .     S
C261   C7      1.374   1_565 S
C262   C293    1.447   .     S
C262   C264    1.404   .     A
C265   H271    1.082   .     S
C265   N276    1.366   .     A
C265   C1023   1.417   1_554 S
C266   N275    1.366   .     A
C266   H272    1.082   .     S
C266   C646    1.417   .     S
C267   H273    1.082   .     S
C267   N275    1.366   .     A
C267   C643    1.417   .     S
C268   N276    1.366   .     A
C268   H274    1.082   .     S
C268   C1022   1.417   1_554 S
N275   Zn285   2.010   .     S
N276   Zn286   2.010   .     S
O277   Zn285   1.992   .     S
O278   Zn286   1.992   .     S
O279   Zn286   1.989   .     S
O280   Zn285   1.989   .     S
O281   Zn285   1.988   .     S
O282   Zn286   1.988   .     S
O283   Zn286   1.995   .     S
O284   Zn285   1.995   .     S
C287   N288    1.158   .     T
C287   C299    1.459   .     S
C289   N290    1.158   .     T
C289   C342    1.459   1_455 S
C291   N292    1.157   .     T
C293   N294    1.158   .     T
C295   O319    1.280   .     A
C295   C306    1.412   .     S
C295   O321    1.281   .     A
C296   O322    1.281   .     A
C296   O320    1.280   .     A
C296   C305    1.412   .     S
C297   O325    1.283   .     A
C297   O323    1.273   .     A
C297   C299    1.404   .     S
C298   O324    1.273   .     A
C298   O326    1.283   .     A
C298   C300    1.404   .     S
C300   C341    1.353   .     S
C300   C373    1.459   .     S
C301   C306    1.395   .     A
C301   H311    1.086   .     S
C302   C305    1.395   .     A
C302   H312    1.086   .     S
C302   C52     1.374   1_565 S
C303   C305    1.404   .     A
C303   C333    1.447   .     S
C303   C49     1.374   1_565 S
C304   C335    1.447   .     S
C304   C306    1.404   .     A
C307   H313    1.082   .     S
C307   N318    1.366   .     A
C307   C1065   1.417   1_554 S
C308   N317    1.366   .     A
C308   H314    1.082   .     S
C308   C688    1.417   .     S
C309   H315    1.082   .     S
C309   N317    1.366   .     A
C309   C685    1.417   .     S
C310   N318    1.366   .     A
C310   H316    1.082   .     S
C310   C1064   1.417   1_554 S
N317   Zn327   2.010   .     S
N318   Zn328   2.010   .     S
O319   Zn327   1.992   .     S
O320   Zn328   1.992   .     S
O321   Zn328   1.989   .     S
O322   Zn327   1.989   .     S
O323   Zn327   1.988   .     S
O324   Zn328   1.988   .     S
O325   Zn328   1.995   .     S
O326   Zn327   1.995   .     S
C329   N330    1.158   .     T
C329   C341    1.459   .     S
C331   N332    1.158   .     T
C333   N334    1.157   .     T
C335   N336    1.158   .     T
C337   O361    1.280   .     A
C337   C348    1.412   .     S
C337   O363    1.281   .     A
C338   O364    1.281   .     A
C338   O362    1.280   .     A
C338   C347    1.412   .     S
C339   O367    1.283   .     A
C339   O365    1.273   .     A
C339   C341    1.404   .     S
C340   O366    1.273   .     A
C340   O368    1.283   .     A
C340   C342    1.404   .     S
C342   C257    1.353   1_655 S
C342   C289    1.459   1_655 S
C343   C348    1.395   .     A
C343   H353    1.086   .     S
C344   C347    1.395   .     A
C344   H354    1.086   .     S
C344   C94     1.374   1_565 S
C345   C347    1.404   .     A
C345   C375    1.447   .     S
C345   C91     1.374   1_565 S
C346   C377    1.447   .     S
C346   C348    1.404   .     A
C349   H355    1.082   .     S
C349   N360    1.366   .     A
C349   C1107   1.417   1_554 S
C350   N359    1.366   .     A
C350   H356    1.082   .     S
C350   C730    1.417   .     S
C351   H357    1.082   .     S
C351   N359    1.366   .     A
C351   C727    1.417   .     S
C352   N360    1.366   .     A
C352   H358    1.082   .     S
C352   C1106   1.417   1_554 S
N359   Zn369   2.010   .     S
N360   Zn370   2.010   .     S
O361   Zn369   1.992   .     S
O362   Zn370   1.992   .     S
O363   Zn370   1.989   .     S
O364   Zn369   1.989   .     S
O365   Zn369   1.988   .     S
O366   Zn370   1.988   .     S
O367   Zn370   1.995   .     S
O368   Zn369   1.995   .     S
C371   N372    1.158   .     T
C371   C257    1.459   1_655 S
C373   N374    1.158   .     T
C375   N376    1.157   .     T
C377   N378    1.158   .     T
C379   O403    1.280   .     A
C379   C390    1.412   .     S
C379   O405    1.281   .     A
C380   O406    1.281   .     A
C380   O404    1.280   .     A
C380   C389    1.412   .     S
C381   O409    1.283   .     A
C381   O407    1.273   .     A
C381   C383    1.404   .     S
C382   O408    1.273   .     A
C382   O410    1.283   .     A
C382   C384    1.404   .     S
C383   C468    1.353   1_455 S
C383   C497    1.459   1_455 S
C384   C425    1.353   .     S
C384   C457    1.459   .     S
C385   C390    1.395   .     A
C385   H395    1.086   .     S
C385   C639    1.374   1_545 S
C386   C389    1.395   .     A
C386   H396    1.086   .     S
C386   C514    1.374   .     S
C387   C389    1.404   .     A
C387   C417    1.447   .     S
C387   C511    1.374   .     S
C388   C419    1.447   .     S
C388   C390    1.404   .     A
C388   C638    1.374   1_545 S
C391   H397    1.082   .     S
C391   N402    1.366   .     A
C392   N401    1.366   .     A
C392   H398    1.082   .     S
C392   C772    1.417   .     S
C393   H399    1.082   .     S
C393   N401    1.366   .     A
C393   C769    1.417   .     S
C394   N402    1.366   .     A
C394   H400    1.082   .     S
N401   Zn411   2.010   .     S
N402   Zn412   2.010   .     S
O403   Zn411   1.992   .     S
O404   Zn412   1.992   .     S
O405   Zn412   1.989   .     S
O406   Zn411   1.989   .     S
O407   Zn411   1.988   .     S
O408   Zn412   1.988   .     S
O409   Zn412   1.995   .     S
O410   Zn411   1.995   .     S
C413   N414    1.158   .     T
C413   C425    1.459   .     S
C415   N416    1.158   .     T
C415   C468    1.459   1_455 S
C417   N418    1.157   .     T
C419   N420    1.158   .     T
C421   O445    1.280   .     A
C421   C432    1.412   .     S
C421   O447    1.281   .     A
C422   O448    1.281   .     A
C422   O446    1.280   .     A
C422   C431    1.412   .     S
C423   O451    1.283   .     A
C423   O449    1.273   .     A
C423   C425    1.404   .     S
C424   O450    1.273   .     A
C424   O452    1.283   .     A
C424   C426    1.404   .     S
C426   C467    1.353   .     S
C426   C499    1.459   .     S
C427   C432    1.395   .     A
C427   H437    1.086   .     S
C427   C681    1.374   1_545 S
C428   C431    1.395   .     A
C428   H438    1.086   .     S
C428   C556    1.374   .     S
C429   C431    1.404   .     A
C429   C459    1.447   .     S
C429   C553    1.374   .     S
C430   C461    1.447   .     S
C430   C432    1.404   .     A
C430   C680    1.374   1_545 S
C433   H439    1.082   .     S
C433   N444    1.366   .     A
C434   N443    1.366   .     A
C434   H440    1.082   .     S
C434   C814    1.417   .     S
C435   H441    1.082   .     S
C435   N443    1.366   .     A
C435   C811    1.417   .     S
C436   N444    1.366   .     A
C436   H442    1.082   .     S
N443   Zn453   2.010   .     S
N444   Zn454   2.010   .     S
O445   Zn453   1.992   .     S
O446   Zn454   1.992   .     S
O447   Zn454   1.989   .     S
O448   Zn453   1.989   .     S
O449   Zn453   1.988   .     S
O450   Zn454   1.988   .     S
O451   Zn454   1.995   .     S
O452   Zn453   1.995   .     S
C455   N456    1.158   .     T
C455   C467    1.459   .     S
C457   N458    1.158   .     T
C459   N460    1.157   .     T
C461   N462    1.158   .     T
C463   O487    1.280   .     A
C463   C474    1.412   .     S
C463   O489    1.281   .     A
C464   O490    1.281   .     A
C464   O488    1.280   .     A
C464   C473    1.412   .     S
C465   O493    1.283   .     A
C465   O491    1.273   .     A
C465   C467    1.404   .     S
C466   O492    1.273   .     A
C466   O494    1.283   .     A
C466   C468    1.404   .     S
C468   C383    1.353   1_655 S
C468   C415    1.459   1_655 S
C469   C474    1.395   .     A
C469   H479    1.086   .     S
C469   C723    1.374   1_545 S
C470   C473    1.395   .     A
C470   H480    1.086   .     S
C470   C598    1.374   .     S
C471   C473    1.404   .     A
C471   C501    1.447   .     S
C471   C595    1.374   .     S
C472   C503    1.447   .     S
C472   C474    1.404   .     A
C472   C722    1.374   1_545 S
C475   H481    1.082   .     S
C475   N486    1.366   .     A
C476   N485    1.366   .     A
C476   H482    1.082   .     S
C476   C856    1.417   .     S
C477   H483    1.082   .     S
C477   N485    1.366   .     A
C477   C853    1.417   .     S
C478   N486    1.366   .     A
C478   H484    1.082   .     S
N485   Zn495   2.010   .     S
N486   Zn496   2.010   .     S
O487   Zn495   1.992   .     S
O488   Zn496   1.992   .     S
O489   Zn496   1.989   .     S
O490   Zn495   1.989   .     S
O491   Zn495   1.988   .     S
O492   Zn496   1.988   .     S
O493   Zn496   1.995   .     S
O494   Zn495   1.995   .     S
C497   N498    1.158   .     T
C497   C383    1.459   1_655 S
C499   N500    1.158   .     T
C501   N502    1.157   .     T
C503   N504    1.158   .     T
C505   O529    1.280   .     A
C505   C516    1.412   .     S
C505   O531    1.281   .     A
C506   O532    1.281   .     A
C506   O530    1.280   .     A
C506   C515    1.412   .     S
C507   O535    1.283   .     A
C507   O533    1.273   .     A
C507   C509    1.404   .     S
C508   O534    1.273   .     A
C508   O536    1.283   .     A
C508   C510    1.404   .     S
C509   C594    1.353   1_455 S
C509   C623    1.459   1_455 S
C510   C551    1.353   .     S
C510   C583    1.459   .     S
C511   C516    1.395   .     A
C511   H521    1.086   .     S
C512   C515    1.395   .     A
C512   H522    1.086   .     S
C512   C640    1.374   .     S
C513   C515    1.404   .     A
C513   C543    1.447   .     S
C513   C637    1.374   .     S
C514   C545    1.447   .     S
C514   C516    1.404   .     A
C517   H523    1.082   .     S
C517   N528    1.366   .     A
C518   N527    1.366   .     A
C518   H524    1.082   .     S
C518   C898    1.417   .     S
C519   H525    1.082   .     S
C519   N527    1.366   .     A
C519   C895    1.417   .     S
C520   N528    1.366   .     A
C520   H526    1.082   .     S
N527   Zn537   2.010   .     S
N528   Zn538   2.010   .     S
O529   Zn537   1.992   .     S
O530   Zn538   1.992   .     S
O531   Zn538   1.989   .     S
O532   Zn537   1.989   .     S
O533   Zn537   1.988   .     S
O534   Zn538   1.988   .     S
O535   Zn538   1.995   .     S
O536   Zn537   1.995   .     S
C539   N540    1.158   .     T
C539   C551    1.459   .     S
C541   N542    1.158   .     T
C541   C594    1.459   1_455 S
C543   N544    1.157   .     T
C545   N546    1.158   .     T
C547   O571    1.280   .     A
C547   C558    1.412   .     S
C547   O573    1.281   .     A
C548   O574    1.281   .     A
C548   O572    1.280   .     A
C548   C557    1.412   .     S
C549   O577    1.283   .     A
C549   O575    1.273   .     A
C549   C551    1.404   .     S
C550   O576    1.273   .     A
C550   O578    1.283   .     A
C550   C552    1.404   .     S
C552   C593    1.353   .     S
C552   C625    1.459   .     S
C553   C558    1.395   .     A
C553   H563    1.086   .     S
C554   C557    1.395   .     A
C554   H564    1.086   .     S
C554   C682    1.374   .     S
C555   C557    1.404   .     A
C555   C585    1.447   .     S
C555   C679    1.374   .     S
C556   C587    1.447   .     S
C556   C558    1.404   .     A
C559   H565    1.082   .     S
C559   N570    1.366   .     A
C560   N569    1.366   .     A
C560   H566    1.082   .     S
C560   C940    1.417   .     S
C561   H567    1.082   .     S
C561   N569    1.366   .     A
C561   C937    1.417   .     S
C562   N570    1.366   .     A
C562   H568    1.082   .     S
N569   Zn579   2.010   .     S
N570   Zn580   2.010   .     S
O571   Zn579   1.992   .     S
O572   Zn580   1.992   .     S
O573   Zn580   1.989   .     S
O574   Zn579   1.989   .     S
O575   Zn579   1.988   .     S
O576   Zn580   1.988   .     S
O577   Zn580   1.995   .     S
O578   Zn579   1.995   .     S
C581   N582    1.158   .     T
C581   C593    1.459   .     S
C583   N584    1.158   .     T
C585   N586    1.157   .     T
C587   N588    1.158   .     T
C589   O613    1.280   .     A
C589   C600    1.412   .     S
C589   O615    1.281   .     A
C590   O616    1.281   .     A
C590   O614    1.280   .     A
C590   C599    1.412   .     S
C591   O619    1.283   .     A
C591   O617    1.273   .     A
C591   C593    1.404   .     S
C592   O618    1.273   .     A
C592   O620    1.283   .     A
C592   C594    1.404   .     S
C594   C509    1.353   1_655 S
C594   C541    1.459   1_655 S
C595   C600    1.395   .     A
C595   H605    1.086   .     S
C596   C599    1.395   .     A
C596   H606    1.086   .     S
C596   C724    1.374   .     S
C597   C599    1.404   .     A
C597   C627    1.447   .     S
C597   C721    1.374   .     S
C598   C629    1.447   .     S
C598   C600    1.404   .     A
C601   H607    1.082   .     S
C601   N612    1.366   .     A
C602   N611    1.366   .     A
C602   H608    1.082   .     S
C602   C982    1.417   .     S
C603   H609    1.082   .     S
C603   N611    1.366   .     A
C603   C979    1.417   .     S
C604   N612    1.366   .     A
C604   H610    1.082   .     S
N611   Zn621   2.010   .     S
N612   Zn622   2.010   .     S
O613   Zn621   1.992   .     S
O614   Zn622   1.992   .     S
O615   Zn622   1.989   .     S
O616   Zn621   1.989   .     S
O617   Zn621   1.988   .     S
O618   Zn622   1.988   .     S
O619   Zn622   1.995   .     S
O620   Zn621   1.995   .     S
C623   N624    1.158   .     T
C623   C509    1.459   1_655 S
C625   N626    1.158   .     T
C627   N628    1.157   .     T
C629   N630    1.158   .     T
C631   O655    1.280   .     A
C631   C642    1.412   .     S
C631   O657    1.281   .     A
C632   O658    1.281   .     A
C632   O656    1.280   .     A
C632   C641    1.412   .     S
C633   O661    1.283   .     A
C633   O659    1.273   .     A
C633   C635    1.404   .     S
C634   O660    1.273   .     A
C634   O662    1.283   .     A
C634   C636    1.404   .     S
C635   C720    1.353   1_455 S
C635   C749    1.459   1_455 S
C636   C677    1.353   .     S
C636   C709    1.459   .     S
C637   C642    1.395   .     A
C637   H647    1.086   .     S
C638   C641    1.395   .     A
C638   H648    1.086   .     S
C638   C388    1.374   1_565 S
C639   C641    1.404   .     A
C639   C669    1.447   .     S
C639   C385    1.374   1_565 S
C640   C671    1.447   .     S
C640   C642    1.404   .     A
C643   H649    1.082   .     S
C643   N654    1.366   .     A
C644   N653    1.366   .     A
C644   H650    1.082   .     S
C644   C1024   1.417   .     S
C645   H651    1.082   .     S
C645   N653    1.366   .     A
C645   C1021   1.417   .     S
C646   N654    1.366   .     A
C646   H652    1.082   .     S
N653   Zn663   2.010   .     S
N654   Zn664   2.010   .     S
O655   Zn663   1.992   .     S
O656   Zn664   1.992   .     S
O657   Zn664   1.989   .     S
O658   Zn663   1.989   .     S
O659   Zn663   1.988   .     S
O660   Zn664   1.988   .     S
O661   Zn664   1.995   .     S
O662   Zn663   1.995   .     S
C665   N666    1.158   .     T
C665   C677    1.459   .     S
C667   N668    1.158   .     T
C667   C720    1.459   1_455 S
C669   N670    1.157   .     T
C671   N672    1.158   .     T
C673   O697    1.280   .     A
C673   C684    1.412   .     S
C673   O699    1.281   .     A
C674   O700    1.281   .     A
C674   O698    1.280   .     A
C674   C683    1.412   .     S
C675   O703    1.283   .     A
C675   O701    1.273   .     A
C675   C677    1.404   .     S
C676   O702    1.273   .     A
C676   O704    1.283   .     A
C676   C678    1.404   .     S
C678   C719    1.353   .     S
C678   C751    1.459   .     S
C679   C684    1.395   .     A
C679   H689    1.086   .     S
C680   C683    1.395   .     A
C680   H690    1.086   .     S
C680   C430    1.374   1_565 S
C681   C683    1.404   .     A
C681   C711    1.447   .     S
C681   C427    1.374   1_565 S
C682   C713    1.447   .     S
C682   C684    1.404   .     A
C685   H691    1.082   .     S
C685   N696    1.366   .     A
C686   N695    1.366   .     A
C686   H692    1.082   .     S
C686   C1066   1.417   .     S
C687   H693    1.082   .     S
C687   N695    1.366   .     A
C687   C1063   1.417   .     S
C688   N696    1.366   .     A
C688   H694    1.082   .     S
N695   Zn705   2.010   .     S
N696   Zn706   2.010   .     S
O697   Zn705   1.992   .     S
O698   Zn706   1.992   .     S
O699   Zn706   1.989   .     S
O700   Zn705   1.989   .     S
O701   Zn705   1.988   .     S
O702   Zn706   1.988   .     S
O703   Zn706   1.995   .     S
O704   Zn705   1.995   .     S
C707   N708    1.158   .     T
C707   C719    1.459   .     S
C709   N710    1.158   .     T
C711   N712    1.157   .     T
C713   N714    1.158   .     T
C715   O739    1.280   .     A
C715   C726    1.412   .     S
C715   O741    1.281   .     A
C716   O742    1.281   .     A
C716   O740    1.280   .     A
C716   C725    1.412   .     S
C717   O745    1.283   .     A
C717   O743    1.273   .     A
C717   C719    1.404   .     S
C718   O744    1.273   .     A
C718   O746    1.283   .     A
C718   C720    1.404   .     S
C720   C635    1.353   1_655 S
C720   C667    1.459   1_655 S
C721   C726    1.395   .     A
C721   H731    1.086   .     S
C722   C725    1.395   .     A
C722   H732    1.086   .     S
C722   C472    1.374   1_565 S
C723   C725    1.404   .     A
C723   C753    1.447   .     S
C723   C469    1.374   1_565 S
C724   C755    1.447   .     S
C724   C726    1.404   .     A
C727   H733    1.082   .     S
C727   N738    1.366   .     A
C728   N737    1.366   .     A
C728   H734    1.082   .     S
C728   C1108   1.417   .     S
C729   H735    1.082   .     S
C729   N737    1.366   .     A
C729   C1105   1.417   .     S
C730   N738    1.366   .     A
C730   H736    1.082   .     S
N737   Zn747   2.010   .     S
N738   Zn748   2.010   .     S
O739   Zn747   1.992   .     S
O740   Zn748   1.992   .     S
O741   Zn748   1.989   .     S
O742   Zn747   1.989   .     S
O743   Zn747   1.988   .     S
O744   Zn748   1.988   .     S
O745   Zn748   1.995   .     S
O746   Zn747   1.995   .     S
C749   N750    1.158   .     T
C749   C635    1.459   1_655 S
C751   N752    1.158   .     T
C753   N754    1.157   .     T
C755   N756    1.158   .     T
C757   O781    1.280   .     A
C757   C768    1.412   .     S
C757   O783    1.281   .     A
C758   O784    1.281   .     A
C758   O782    1.280   .     A
C758   C767    1.412   .     S
C759   O787    1.283   .     A
C759   O785    1.273   .     A
C759   C761    1.404   .     S
C760   O786    1.273   .     A
C760   O788    1.283   .     A
C760   C762    1.404   .     S
C761   C846    1.353   1_455 S
C761   C875    1.459   1_455 S
C762   C803    1.353   .     S
C762   C835    1.459   .     S
C763   C768    1.395   .     A
C763   H773    1.086   .     S
C763   C1017   1.374   1_545 S
C764   C767    1.395   .     A
C764   H774    1.086   .     S
C764   C892    1.374   .     S
C765   C767    1.404   .     A
C765   C795    1.447   .     S
C765   C889    1.374   .     S
C766   C797    1.447   .     S
C766   C768    1.404   .     A
C766   C1016   1.374   1_545 S
C769   H775    1.082   .     S
C769   N780    1.366   .     A
C770   N779    1.366   .     A
C770   H776    1.082   .     S
C770   C16     1.417   1_556 S
C771   H777    1.082   .     S
C771   N779    1.366   .     A
C771   C13     1.417   1_556 S
C772   N780    1.366   .     A
C772   H778    1.082   .     S
N779   Zn789   2.010   .     S
N780   Zn790   2.010   .     S
O781   Zn789   1.992   .     S
O782   Zn790   1.992   .     S
O783   Zn790   1.989   .     S
O784   Zn789   1.989   .     S
O785   Zn789   1.988   .     S
O786   Zn790   1.988   .     S
O787   Zn790   1.995   .     S
O788   Zn789   1.995   .     S
C791   N792    1.158   .     T
C791   C803    1.459   .     S
C793   N794    1.158   .     T
C793   C846    1.459   1_455 S
C795   N796    1.157   .     T
C797   N798    1.158   .     T
C799   O823    1.280   .     A
C799   C810    1.412   .     S
C799   O825    1.281   .     A
C800   O826    1.281   .     A
C800   O824    1.280   .     A
C800   C809    1.412   .     S
C801   O829    1.283   .     A
C801   O827    1.273   .     A
C801   C803    1.404   .     S
C802   O828    1.273   .     A
C802   O830    1.283   .     A
C802   C804    1.404   .     S
C804   C845    1.353   .     S
C804   C877    1.459   .     S
C805   C810    1.395   .     A
C805   H815    1.086   .     S
C805   C1059   1.374   1_545 S
C806   C809    1.395   .     A
C806   H816    1.086   .     S
C806   C934    1.374   .     S
C807   C809    1.404   .     A
C807   C837    1.447   .     S
C807   C931    1.374   .     S
C808   C839    1.447   .     S
C808   C810    1.404   .     A
C808   C1058   1.374   1_545 S
C811   H817    1.082   .     S
C811   N822    1.366   .     A
C812   N821    1.366   .     A
C812   H818    1.082   .     S
C812   C58     1.417   1_556 S
C813   H819    1.082   .     S
C813   N821    1.366   .     A
C813   C55     1.417   1_556 S
C814   N822    1.366   .     A
C814   H820    1.082   .     S
N821   Zn831   2.010   .     S
N822   Zn832   2.010   .     S
O823   Zn831   1.992   .     S
O824   Zn832   1.992   .     S
O825   Zn832   1.989   .     S
O826   Zn831   1.989   .     S
O827   Zn831   1.988   .     S
O828   Zn832   1.988   .     S
O829   Zn832   1.995   .     S
O830   Zn831   1.995   .     S
C833   N834    1.158   .     T
C833   C845    1.459   .     S
C835   N836    1.158   .     T
C837   N838    1.157   .     T
C839   N840    1.158   .     T
C841   O865    1.280   .     A
C841   C852    1.412   .     S
C841   O867    1.281   .     A
C842   O868    1.281   .     A
C842   O866    1.280   .     A
C842   C851    1.412   .     S
C843   O871    1.283   .     A
C843   O869    1.273   .     A
C843   C845    1.404   .     S
C844   O870    1.273   .     A
C844   O872    1.283   .     A
C844   C846    1.404   .     S
C846   C761    1.353   1_655 S
C846   C793    1.459   1_655 S
C847   C852    1.395   .     A
C847   H857    1.086   .     S
C847   C1101   1.374   1_545 S
C848   C851    1.395   .     A
C848   H858    1.086   .     S
C848   C976    1.374   .     S
C849   C851    1.404   .     A
C849   C879    1.447   .     S
C849   C973    1.374   .     S
C850   C881    1.447   .     S
C850   C852    1.404   .     A
C850   C1100   1.374   1_545 S
C853   H859    1.082   .     S
C853   N864    1.366   .     A
C854   N863    1.366   .     A
C854   H860    1.082   .     S
C854   C100    1.417   1_556 S
C855   H861    1.082   .     S
C855   N863    1.366   .     A
C855   C97     1.417   1_556 S
C856   N864    1.366   .     A
C856   H862    1.082   .     S
N863   Zn873   2.010   .     S
N864   Zn874   2.010   .     S
O865   Zn873   1.992   .     S
O866   Zn874   1.992   .     S
O867   Zn874   1.989   .     S
O868   Zn873   1.989   .     S
O869   Zn873   1.988   .     S
O870   Zn874   1.988   .     S
O871   Zn874   1.995   .     S
O872   Zn873   1.995   .     S
C875   N876    1.158   .     T
C875   C761    1.459   1_655 S
C877   N878    1.158   .     T
C879   N880    1.157   .     T
C881   N882    1.158   .     T
C883   O907    1.280   .     A
C883   C894    1.412   .     S
C883   O909    1.281   .     A
C884   O910    1.281   .     A
C884   O908    1.280   .     A
C884   C893    1.412   .     S
C885   O913    1.283   .     A
C885   O911    1.273   .     A
C885   C887    1.404   .     S
C886   O912    1.273   .     A
C886   O914    1.283   .     A
C886   C888    1.404   .     S
C887   C972    1.353   1_455 S
C887   C1001   1.459   1_455 S
C888   C929    1.353   .     S
C888   C961    1.459   .     S
C889   C894    1.395   .     A
C889   H899    1.086   .     S
C890   C893    1.395   .     A
C890   H900    1.086   .     S
C890   C1018   1.374   .     S
C891   C893    1.404   .     A
C891   C921    1.447   .     S
C891   C1015   1.374   .     S
C892   C923    1.447   .     S
C892   C894    1.404   .     A
C895   H901    1.082   .     S
C895   N906    1.366   .     A
C896   N905    1.366   .     A
C896   H902    1.082   .     S
C896   C142    1.417   1_556 S
C897   H903    1.082   .     S
C897   N905    1.366   .     A
C897   C139    1.417   1_556 S
C898   N906    1.366   .     A
C898   H904    1.082   .     S
N905   Zn915   2.010   .     S
N906   Zn916   2.010   .     S
O907   Zn915   1.992   .     S
O908   Zn916   1.992   .     S
O909   Zn916   1.989   .     S
O910   Zn915   1.989   .     S
O911   Zn915   1.988   .     S
O912   Zn916   1.988   .     S
O913   Zn916   1.995   .     S
O914   Zn915   1.995   .     S
C917   N918    1.158   .     T
C917   C929    1.459   .     S
C919   N920    1.158   .     T
C919   C972    1.459   1_455 S
C921   N922    1.157   .     T
C923   N924    1.158   .     T
C925   O949    1.280   .     A
C925   C936    1.412   .     S
C925   O951    1.281   .     A
C926   O952    1.281   .     A
C926   O950    1.280   .     A
C926   C935    1.412   .     S
C927   O955    1.283   .     A
C927   O953    1.273   .     A
C927   C929    1.404   .     S
C928   O954    1.273   .     A
C928   O956    1.283   .     A
C928   C930    1.404   .     S
C930   C971    1.353   .     S
C930   C1003   1.459   .     S
C931   C936    1.395   .     A
C931   H941    1.086   .     S
C932   C935    1.395   .     A
C932   H942    1.086   .     S
C932   C1060   1.374   .     S
C933   C935    1.404   .     A
C933   C963    1.447   .     S
C933   C1057   1.374   .     S
C934   C965    1.447   .     S
C934   C936    1.404   .     A
C937   H943    1.082   .     S
C937   N948    1.366   .     A
C938   N947    1.366   .     A
C938   H944    1.082   .     S
C938   C184    1.417   1_556 S
C939   H945    1.082   .     S
C939   N947    1.366   .     A
C939   C181    1.417   1_556 S
C940   N948    1.366   .     A
C940   H946    1.082   .     S
N947   Zn957   2.010   .     S
N948   Zn958   2.010   .     S
O949   Zn957   1.992   .     S
O950   Zn958   1.992   .     S
O951   Zn958   1.989   .     S
O952   Zn957   1.989   .     S
O953   Zn957   1.988   .     S
O954   Zn958   1.988   .     S
O955   Zn958   1.995   .     S
O956   Zn957   1.995   .     S
C959   N960    1.158   .     T
C959   C971    1.459   .     S
C961   N962    1.158   .     T
C963   N964    1.157   .     T
C965   N966    1.158   .     T
C967   O991    1.280   .     A
C967   C978    1.412   .     S
C967   O993    1.281   .     A
C968   O994    1.281   .     A
C968   O992    1.280   .     A
C968   C977    1.412   .     S
C969   O997    1.283   .     A
C969   O995    1.273   .     A
C969   C971    1.404   .     S
C970   O996    1.273   .     A
C970   O998    1.283   .     A
C970   C972    1.404   .     S
C972   C887    1.353   1_655 S
C972   C919    1.459   1_655 S
C973   C978    1.395   .     A
C973   H983    1.086   .     S
C974   C977    1.395   .     A
C974   H984    1.086   .     S
C974   C1102   1.374   .     S
C975   C977    1.404   .     A
C975   C1005   1.447   .     S
C975   C1099   1.374   .     S
C976   C1007   1.447   .     S
C976   C978    1.404   .     A
C979   H985    1.082   .     S
C979   N990    1.366   .     A
C980   N989    1.366   .     A
C980   H986    1.082   .     S
C980   C226    1.417   1_556 S
C981   H987    1.082   .     S
C981   N989    1.366   .     A
C981   C223    1.417   1_556 S
C982   N990    1.366   .     A
C982   H988    1.082   .     S
N989   Zn999   2.010   .     S
N990   Zn1000  2.010   .     S
O991   Zn999   1.992   .     S
O992   Zn1000  1.992   .     S
O993   Zn1000  1.989   .     S
O994   Zn999   1.989   .     S
O995   Zn999   1.988   .     S
O996   Zn1000  1.988   .     S
O997   Zn1000  1.995   .     S
O998   Zn999   1.995   .     S
C1001  N1002   1.158   .     T
C1001  C887    1.459   1_655 S
C1003  N1004   1.158   .     T
C1005  N1006   1.157   .     T
C1007  N1008   1.158   .     T
C1009  O1033   1.280   .     A
C1009  C1020   1.412   .     S
C1009  O1035   1.281   .     A
C1010  O1036   1.281   .     A
C1010  O1034   1.280   .     A
C1010  C1019   1.412   .     S
C1011  O1039   1.283   .     A
C1011  O1037   1.273   .     A
C1011  C1013   1.404   .     S
C1012  O1038   1.273   .     A
C1012  O1040   1.283   .     A
C1012  C1014   1.404   .     S
C1013  C1098   1.353   1_455 S
C1013  C1127   1.459   1_455 S
C1014  C1055   1.353   .     S
C1014  C1087   1.459   .     S
C1015  C1020   1.395   .     A
C1015  H1025   1.086   .     S
C1016  C1019   1.395   .     A
C1016  H1026   1.086   .     S
C1016  C766    1.374   1_565 S
C1017  C1019   1.404   .     A
C1017  C1047   1.447   .     S
C1017  C763    1.374   1_565 S
C1018  C1049   1.447   .     S
C1018  C1020   1.404   .     A
C1021  H1027   1.082   .     S
C1021  N1032   1.366   .     A
C1022  N1031   1.366   .     A
C1022  H1028   1.082   .     S
C1022  C268    1.417   1_556 S
C1023  H1029   1.082   .     S
C1023  N1031   1.366   .     A
C1023  C265    1.417   1_556 S
C1024  N1032   1.366   .     A
C1024  H1030   1.082   .     S
N1031  Zn1041  2.010   .     S
N1032  Zn1042  2.010   .     S
O1033  Zn1041  1.992   .     S
O1034  Zn1042  1.992   .     S
O1035  Zn1042  1.989   .     S
O1036  Zn1041  1.989   .     S
O1037  Zn1041  1.988   .     S
O1038  Zn1042  1.988   .     S
O1039  Zn1042  1.995   .     S
O1040  Zn1041  1.995   .     S
C1043  N1044   1.158   .     T
C1043  C1055   1.459   .     S
C1045  N1046   1.158   .     T
C1045  C1098   1.459   1_455 S
C1047  N1048   1.157   .     T
C1049  N1050   1.158   .     T
C1051  O1075   1.280   .     A
C1051  C1062   1.412   .     S
C1051  O1077   1.281   .     A
C1052  O1078   1.281   .     A
C1052  O1076   1.280   .     A
C1052  C1061   1.412   .     S
C1053  O1081   1.283   .     A
C1053  O1079   1.273   .     A
C1053  C1055   1.404   .     S
C1054  O1080   1.273   .     A
C1054  O1082   1.283   .     A
C1054  C1056   1.404   .     S
C1056  C1097   1.353   .     S
C1056  C1129   1.459   .     S
C1057  C1062   1.395   .     A
C1057  H1067   1.086   .     S
C1058  C1061   1.395   .     A
C1058  H1068   1.086   .     S
C1058  C808    1.374   1_565 S
C1059  C1061   1.404   .     A
C1059  C1089   1.447   .     S
C1059  C805    1.374   1_565 S
C1060  C1091   1.447   .     S
C1060  C1062   1.404   .     A
C1063  H1069   1.082   .     S
C1063  N1074   1.366   .     A
C1064  N1073   1.366   .     A
C1064  H1070   1.082   .     S
C1064  C310    1.417   1_556 S
C1065  H1071   1.082   .     S
C1065  N1073   1.366   .     A
C1065  C307    1.417   1_556 S
C1066  N1074   1.366   .     A
C1066  H1072   1.082   .     S
N1073  Zn1083  2.010   .     S
N1074  Zn1084  2.010   .     S
O1075  Zn1083  1.992   .     S
O1076  Zn1084  1.992   .     S
O1077  Zn1084  1.989   .     S
O1078  Zn1083  1.989   .     S
O1079  Zn1083  1.988   .     S
O1080  Zn1084  1.988   .     S
O1081  Zn1084  1.995   .     S
O1082  Zn1083  1.995   .     S
C1085  N1086   1.158   .     T
C1085  C1097   1.459   .     S
C1087  N1088   1.158   .     T
C1089  N1090   1.157   .     T
C1091  N1092   1.158   .     T
C1093  O1117   1.280   .     A
C1093  C1104   1.412   .     S
C1093  O1119   1.281   .     A
C1094  O1120   1.281   .     A
C1094  O1118   1.280   .     A
C1094  C1103   1.412   .     S
C1095  O1123   1.283   .     A
C1095  O1121   1.273   .     A
C1095  C1097   1.404   .     S
C1096  O1122   1.273   .     A
C1096  O1124   1.283   .     A
C1096  C1098   1.404   .     S
C1098  C1013   1.353   1_655 S
C1098  C1045   1.459   1_655 S
C1099  C1104   1.395   .     A
C1099  H1109   1.086   .     S
C1100  C1103   1.395   .     A
C1100  H1110   1.086   .     S
C1100  C850    1.374   1_565 S
C1101  C1103   1.404   .     A
C1101  C1131   1.447   .     S
C1101  C847    1.374   1_565 S
C1102  C1133   1.447   .     S
C1102  C1104   1.404   .     A
C1105  H1111   1.082   .     S
C1105  N1116   1.366   .     A
C1106  N1115   1.366   .     A
C1106  H1112   1.082   .     S
C1106  C352    1.417   1_556 S
C1107  H1113   1.082   .     S
C1107  N1115   1.366   .     A
C1107  C349    1.417   1_556 S
C1108  N1116   1.366   .     A
C1108  H1114   1.082   .     S
N1115  Zn1125  2.010   .     S
N1116  Zn1126  2.010   .     S
O1117  Zn1125  1.992   .     S
O1118  Zn1126  1.992   .     S
O1119  Zn1126  1.989   .     S
O1120  Zn1125  1.989   .     S
O1121  Zn1125  1.988   .     S
O1122  Zn1126  1.988   .     S
O1123  Zn1126  1.995   .     S
O1124  Zn1125  1.995   .     S
C1127  N1128   1.158   .     T
C1127  C1013   1.459   1_655 S
C1129  N1130   1.158   .     T
C1131  N1132   1.157   .     T
C1133  N1134   1.158   .     T
