data_str_m3_o10_o18_pcu_sym.119
_audit_creation_date              2020-01-03
_audit_creation_method            'Materials Studio'
_symmetry_space_group_name_H-M    'P1'
_symmetry_Int_Tables_number       1
_symmetry_cell_setting            triclinic
loop_
_symmetry_equiv_pos_as_xyz
  x,y,z
_cell_length_a                    23.5541
_cell_length_b                    25.5535
_cell_length_c                    27.4922
_cell_angle_alpha                 93.3255
_cell_angle_beta                  92.8977
_cell_angle_gamma                 94.3779
loop_
_atom_site_label
_atom_site_type_symbol
_atom_site_fract_x
_atom_site_fract_y
_atom_site_fract_z
_atom_site_U_iso_or_equiv
_atom_site_adp_type
_atom_site_occupancy
O1     O     0.29719   0.24631   0.25309   0.00000  Uiso   1.00
O2     O     0.03614   0.08702   0.24691   0.00000  Uiso   1.00
O3     O     0.05822   0.23702   0.24502   0.00000  Uiso   1.00
O4     O     0.27512   0.09632   0.25498   0.00000  Uiso   1.00
C5     C     0.01602   0.26497   0.25396   0.00000  Uiso   1.00
C6     C     0.31960   0.06904   0.25703   0.00000  Uiso   1.00
O7     O     0.30328   0.17397   0.32247   0.00000  Uiso   1.00
O8     O     0.03005   0.15937   0.17753   0.00000  Uiso   1.00
O9     O     0.06431   0.16467   0.31439   0.00000  Uiso   1.00
O10    O     0.26902   0.16866   0.18561   0.00000  Uiso   1.00
C11    C     0.02097   0.17072   0.34099   0.00000  Uiso   1.00
C12    C     0.31227   0.16216   0.15899   0.00000  Uiso   1.00
Zn13   Zn    0.27033   0.17287   0.25539   0.00000  Uiso   1.00
Zn14   Zn    0.06300   0.16046   0.24461   0.00000  Uiso   1.00
C15    C     0.03173   0.17687   0.39334   0.00000  Uiso   1.00
C16    C     0.30103   0.15319   0.10678   0.00000  Uiso   1.00
C17    C     0.02042   0.22160   0.47135   0.00000  Uiso   1.00
C18    C     0.31333   0.10544   0.03023   0.00000  Uiso   1.00
C19    C     0.00199   0.21067   0.42265   0.00000  Uiso   1.00
C20    C     0.33174   0.11899   0.07863   0.00000  Uiso   1.00
C21    C     0.07823   0.15350   0.41268   0.00000  Uiso   1.00
C22    C     0.25276   0.17321   0.08677   0.00000  Uiso   1.00
C23    C     0.10272   0.17026   0.45858   0.00000  Uiso   1.00
C24    C     0.22848   0.15308   0.04174   0.00000  Uiso   1.00
C25    C     0.07071   0.20166   0.48948   0.00000  Uiso   1.00
C26    C     0.26188   0.12271   0.01151   0.00000  Uiso   1.00
C27    C     0.15703   0.15550   0.47500   0.00000  Uiso   1.00
C28    C     0.17321   0.16470   0.02542   0.00000  Uiso   1.00
C29    C     0.13368   0.18601   0.05765   0.00000  Uiso   1.00
C30    C     0.19643   0.13370   0.44290   0.00000  Uiso   1.00
C31    C     0.08686   0.20939   0.03872   0.00000  Uiso   1.00
C32    C     0.24552   0.11316   0.46245   0.00000  Uiso   1.00
H33    H     0.05962   0.22887   0.06348   0.00000  Uiso   1.00
H34    H     0.27363   0.09365   0.43851   0.00000  Uiso   1.00
H35    H     0.23365   0.20370   0.10770   0.00000  Uiso   1.00
H36    H     0.09447   0.12214   0.39086   0.00000  Uiso   1.00
H37    H     0.03613   0.10294   0.09392   0.00000  Uiso   1.00
H38    H     0.29851   0.22862   0.40795   0.00000  Uiso   1.00
H39    H     0.32928   0.24599   0.49459   0.00000  Uiso   1.00
H40    H     0.00547   0.08126   0.00772   0.00000  Uiso   1.00
C41    C     0.02720   0.31992   0.26538   0.00000  Uiso   1.00
C42    C     0.31594   0.01623   0.27279   0.00000  Uiso   1.00
N43    N     0.14695   0.15216   0.23739   0.00000  Uiso   1.00
N44    N     0.18638   0.18117   0.26260   0.00000  Uiso   1.00
H45    H     0.16225   0.12450   0.21380   0.00000  Uiso   1.00
H46    H     0.17109   0.20880   0.28624   0.00000  Uiso   1.00
O47    O     0.13624   0.18090   0.10734   0.00000  Uiso   1.00
H48    H     0.15186   0.14677   0.11336   0.00000  Uiso   1.00
O49    O     0.18946   0.13667   0.39291   0.00000  Uiso   1.00
H50    H     0.22073   0.12004   0.37657   0.00000  Uiso   1.00
N51    N     0.08546   0.00829   0.26607   0.00000  Uiso   1.00
O52    O     0.10726   0.03748   0.30383   0.00000  Uiso   1.00
O53    O     0.11665   0.33181   0.22937   0.00000  Uiso   1.00
N54    N     0.26664   0.33031   0.29749   0.00000  Uiso   1.00
O55    O     0.21704   0.01392   0.28751   0.00000  Uiso   1.00
O56    O     0.27299   0.30199   0.33498   0.00000  Uiso   1.00
O57    O     0.63052   0.24631   0.25309   0.00000  Uiso   1.00
O58    O     0.36948   0.08702   0.24691   0.00000  Uiso   1.00
O59    O     0.39155   0.23702   0.24502   0.00000  Uiso   1.00
O60    O     0.60845   0.09632   0.25498   0.00000  Uiso   1.00
C61    C     0.34936   0.26497   0.25396   0.00000  Uiso   1.00
C62    C     0.65293   0.06904   0.25703   0.00000  Uiso   1.00
O63    O     0.63662   0.17397   0.32247   0.00000  Uiso   1.00
O64    O     0.36338   0.15937   0.17753   0.00000  Uiso   1.00
O65    O     0.39764   0.16467   0.31439   0.00000  Uiso   1.00
O66    O     0.60236   0.16866   0.18561   0.00000  Uiso   1.00
C67    C     0.35430   0.17072   0.34099   0.00000  Uiso   1.00
C68    C     0.64561   0.16216   0.15899   0.00000  Uiso   1.00
Zn69   Zn    0.60366   0.17287   0.25539   0.00000  Uiso   1.00
Zn70   Zn    0.39634   0.16046   0.24461   0.00000  Uiso   1.00
C71    C     0.36506   0.17687   0.39334   0.00000  Uiso   1.00
C72    C     0.63437   0.15319   0.10678   0.00000  Uiso   1.00
C73    C     0.35375   0.22160   0.47135   0.00000  Uiso   1.00
C74    C     0.64667   0.10544   0.03023   0.00000  Uiso   1.00
C75    C     0.33533   0.21067   0.42265   0.00000  Uiso   1.00
C76    C     0.66507   0.11899   0.07863   0.00000  Uiso   1.00
C77    C     0.41156   0.15350   0.41268   0.00000  Uiso   1.00
C78    C     0.58610   0.17321   0.08677   0.00000  Uiso   1.00
C79    C     0.43606   0.17026   0.45858   0.00000  Uiso   1.00
C80    C     0.56182   0.15308   0.04174   0.00000  Uiso   1.00
C81    C     0.40404   0.20166   0.48948   0.00000  Uiso   1.00
C82    C     0.59521   0.12271   0.01151   0.00000  Uiso   1.00
C83    C     0.49036   0.15550   0.47500   0.00000  Uiso   1.00
C84    C     0.50655   0.16470   0.02542   0.00000  Uiso   1.00
C85    C     0.46701   0.18601   0.05765   0.00000  Uiso   1.00
C86    C     0.52976   0.13370   0.44290   0.00000  Uiso   1.00
C87    C     0.42020   0.20939   0.03872   0.00000  Uiso   1.00
C88    C     0.57885   0.11316   0.46245   0.00000  Uiso   1.00
H89    H     0.39295   0.22887   0.06348   0.00000  Uiso   1.00
H90    H     0.60696   0.09365   0.43851   0.00000  Uiso   1.00
H91    H     0.56698   0.20370   0.10770   0.00000  Uiso   1.00
H92    H     0.42780   0.12214   0.39086   0.00000  Uiso   1.00
H93    H     0.36947   0.10294   0.09392   0.00000  Uiso   1.00
H94    H     0.63184   0.22862   0.40795   0.00000  Uiso   1.00
H95    H     0.66261   0.24599   0.49459   0.00000  Uiso   1.00
H96    H     0.33880   0.08126   0.00772   0.00000  Uiso   1.00
C97    C     0.36053   0.31992   0.26538   0.00000  Uiso   1.00
C98    C     0.64927   0.01623   0.27279   0.00000  Uiso   1.00
N99    N     0.48029   0.15216   0.23739   0.00000  Uiso   1.00
N100   N     0.51971   0.18117   0.26260   0.00000  Uiso   1.00
H101   H     0.49558   0.12450   0.21380   0.00000  Uiso   1.00
H102   H     0.50442   0.20880   0.28624   0.00000  Uiso   1.00
O103   O     0.46958   0.18090   0.10734   0.00000  Uiso   1.00
H104   H     0.48519   0.14677   0.11336   0.00000  Uiso   1.00
O105   O     0.52279   0.13667   0.39291   0.00000  Uiso   1.00
H106   H     0.55407   0.12004   0.37657   0.00000  Uiso   1.00
N107   N     0.41880   0.00829   0.26607   0.00000  Uiso   1.00
O108   O     0.44060   0.03748   0.30383   0.00000  Uiso   1.00
O109   O     0.44998   0.33181   0.22937   0.00000  Uiso   1.00
N110   N     0.59997   0.33031   0.29749   0.00000  Uiso   1.00
O111   O     0.55037   0.01392   0.28751   0.00000  Uiso   1.00
O112   O     0.60632   0.30199   0.33498   0.00000  Uiso   1.00
O113   O     0.96386   0.24631   0.25309   0.00000  Uiso   1.00
O114   O     0.70281   0.08702   0.24691   0.00000  Uiso   1.00
O115   O     0.72488   0.23702   0.24502   0.00000  Uiso   1.00
O116   O     0.94178   0.09632   0.25498   0.00000  Uiso   1.00
C117   C     0.68269   0.26497   0.25396   0.00000  Uiso   1.00
C118   C     0.98627   0.06904   0.25703   0.00000  Uiso   1.00
O119   O     0.96995   0.17397   0.32247   0.00000  Uiso   1.00
O120   O     0.69672   0.15937   0.17753   0.00000  Uiso   1.00
O121   O     0.73098   0.16467   0.31439   0.00000  Uiso   1.00
O122   O     0.93569   0.16866   0.18561   0.00000  Uiso   1.00
C123   C     0.68764   0.17072   0.34099   0.00000  Uiso   1.00
C124   C     0.97894   0.16216   0.15899   0.00000  Uiso   1.00
Zn125  Zn    0.93700   0.17287   0.25539   0.00000  Uiso   1.00
Zn126  Zn    0.72967   0.16046   0.24461   0.00000  Uiso   1.00
C127   C     0.69840   0.17687   0.39334   0.00000  Uiso   1.00
C128   C     0.96770   0.15319   0.10678   0.00000  Uiso   1.00
C129   C     0.68708   0.22160   0.47135   0.00000  Uiso   1.00
C130   C     0.98000   0.10544   0.03023   0.00000  Uiso   1.00
C131   C     0.66866   0.21067   0.42265   0.00000  Uiso   1.00
C132   C     0.99840   0.11899   0.07863   0.00000  Uiso   1.00
C133   C     0.74490   0.15350   0.41268   0.00000  Uiso   1.00
C134   C     0.91943   0.17321   0.08677   0.00000  Uiso   1.00
C135   C     0.76939   0.17026   0.45858   0.00000  Uiso   1.00
C136   C     0.89515   0.15308   0.04174   0.00000  Uiso   1.00
C137   C     0.73738   0.20166   0.48948   0.00000  Uiso   1.00
C138   C     0.92854   0.12271   0.01151   0.00000  Uiso   1.00
C139   C     0.82369   0.15550   0.47500   0.00000  Uiso   1.00
C140   C     0.83988   0.16470   0.02542   0.00000  Uiso   1.00
C141   C     0.80034   0.18601   0.05765   0.00000  Uiso   1.00
C142   C     0.86310   0.13370   0.44290   0.00000  Uiso   1.00
C143   C     0.75353   0.20939   0.03872   0.00000  Uiso   1.00
C144   C     0.91218   0.11316   0.46245   0.00000  Uiso   1.00
H145   H     0.72629   0.22887   0.06348   0.00000  Uiso   1.00
H146   H     0.94029   0.09365   0.43851   0.00000  Uiso   1.00
H147   H     0.90031   0.20370   0.10770   0.00000  Uiso   1.00
H148   H     0.76113   0.12214   0.39086   0.00000  Uiso   1.00
H149   H     0.70280   0.10294   0.09392   0.00000  Uiso   1.00
H150   H     0.96518   0.22862   0.40795   0.00000  Uiso   1.00
H151   H     0.99594   0.24599   0.49459   0.00000  Uiso   1.00
H152   H     0.67213   0.08126   0.00772   0.00000  Uiso   1.00
C153   C     0.69387   0.31992   0.26538   0.00000  Uiso   1.00
C154   C     0.98261   0.01623   0.27279   0.00000  Uiso   1.00
N155   N     0.81362   0.15216   0.23739   0.00000  Uiso   1.00
N156   N     0.85305   0.18117   0.26260   0.00000  Uiso   1.00
H157   H     0.82892   0.12450   0.21380   0.00000  Uiso   1.00
H158   H     0.83775   0.20880   0.28624   0.00000  Uiso   1.00
O159   O     0.80291   0.18090   0.10734   0.00000  Uiso   1.00
H160   H     0.81852   0.14677   0.11336   0.00000  Uiso   1.00
O161   O     0.85613   0.13667   0.39291   0.00000  Uiso   1.00
H162   H     0.88740   0.12004   0.37657   0.00000  Uiso   1.00
N163   N     0.75213   0.00829   0.26607   0.00000  Uiso   1.00
O164   O     0.77393   0.03748   0.30383   0.00000  Uiso   1.00
O165   O     0.78331   0.33181   0.22937   0.00000  Uiso   1.00
N166   N     0.93331   0.33031   0.29749   0.00000  Uiso   1.00
O167   O     0.88370   0.01392   0.28751   0.00000  Uiso   1.00
O168   O     0.93965   0.30199   0.33498   0.00000  Uiso   1.00
O169   O     0.29719   0.57964   0.25309   0.00000  Uiso   1.00
O170   O     0.03614   0.42036   0.24691   0.00000  Uiso   1.00
O171   O     0.05822   0.57035   0.24502   0.00000  Uiso   1.00
O172   O     0.27512   0.42965   0.25498   0.00000  Uiso   1.00
C173   C     0.01602   0.59830   0.25396   0.00000  Uiso   1.00
C174   C     0.31960   0.40237   0.25703   0.00000  Uiso   1.00
O175   O     0.30328   0.50730   0.32247   0.00000  Uiso   1.00
O176   O     0.03005   0.49270   0.17753   0.00000  Uiso   1.00
O177   O     0.06431   0.49801   0.31439   0.00000  Uiso   1.00
O178   O     0.26902   0.50199   0.18561   0.00000  Uiso   1.00
C179   C     0.02097   0.50405   0.34099   0.00000  Uiso   1.00
C180   C     0.31227   0.49550   0.15899   0.00000  Uiso   1.00
Zn181  Zn    0.27033   0.50621   0.25539   0.00000  Uiso   1.00
Zn182  Zn    0.06300   0.49379   0.24461   0.00000  Uiso   1.00
C183   C     0.03173   0.51020   0.39334   0.00000  Uiso   1.00
C184   C     0.30103   0.48652   0.10678   0.00000  Uiso   1.00
C185   C     0.02042   0.55493   0.47135   0.00000  Uiso   1.00
C186   C     0.31333   0.43878   0.03023   0.00000  Uiso   1.00
C187   C     0.00199   0.54400   0.42265   0.00000  Uiso   1.00
C188   C     0.33174   0.45233   0.07863   0.00000  Uiso   1.00
C189   C     0.07823   0.48684   0.41268   0.00000  Uiso   1.00
C190   C     0.25276   0.50655   0.08677   0.00000  Uiso   1.00
C191   C     0.10272   0.50360   0.45858   0.00000  Uiso   1.00
C192   C     0.22848   0.48642   0.04174   0.00000  Uiso   1.00
C193   C     0.07071   0.53499   0.48948   0.00000  Uiso   1.00
C194   C     0.26188   0.45604   0.01151   0.00000  Uiso   1.00
C195   C     0.15703   0.48883   0.47500   0.00000  Uiso   1.00
C196   C     0.17321   0.49804   0.02542   0.00000  Uiso   1.00
C197   C     0.13368   0.51934   0.05765   0.00000  Uiso   1.00
C198   C     0.19643   0.46704   0.44290   0.00000  Uiso   1.00
C199   C     0.08686   0.54272   0.03872   0.00000  Uiso   1.00
C200   C     0.24552   0.44649   0.46245   0.00000  Uiso   1.00
H201   H     0.05962   0.56221   0.06348   0.00000  Uiso   1.00
H202   H     0.27363   0.42698   0.43851   0.00000  Uiso   1.00
H203   H     0.23365   0.53703   0.10770   0.00000  Uiso   1.00
H204   H     0.09447   0.45547   0.39086   0.00000  Uiso   1.00
H205   H     0.03613   0.43627   0.09392   0.00000  Uiso   1.00
H206   H     0.29851   0.56196   0.40795   0.00000  Uiso   1.00
H207   H     0.32928   0.57932   0.49459   0.00000  Uiso   1.00
H208   H     0.00547   0.41459   0.00772   0.00000  Uiso   1.00
C209   C     0.02720   0.65325   0.26538   0.00000  Uiso   1.00
C210   C     0.31594   0.34956   0.27279   0.00000  Uiso   1.00
N211   N     0.14695   0.48550   0.23739   0.00000  Uiso   1.00
N212   N     0.18638   0.51450   0.26260   0.00000  Uiso   1.00
H213   H     0.16225   0.45784   0.21380   0.00000  Uiso   1.00
H214   H     0.17109   0.54213   0.28624   0.00000  Uiso   1.00
O215   O     0.13624   0.51424   0.10734   0.00000  Uiso   1.00
H216   H     0.15186   0.48010   0.11336   0.00000  Uiso   1.00
O217   O     0.18946   0.47000   0.39291   0.00000  Uiso   1.00
H218   H     0.22073   0.45338   0.37657   0.00000  Uiso   1.00
N219   N     0.08546   0.34162   0.26607   0.00000  Uiso   1.00
O220   O     0.10726   0.37082   0.30383   0.00000  Uiso   1.00
O221   O     0.11665   0.66515   0.22937   0.00000  Uiso   1.00
N222   N     0.26664   0.66365   0.29749   0.00000  Uiso   1.00
O223   O     0.21704   0.34725   0.28751   0.00000  Uiso   1.00
O224   O     0.27299   0.63532   0.33498   0.00000  Uiso   1.00
O225   O     0.63052   0.57964   0.25309   0.00000  Uiso   1.00
O226   O     0.36948   0.42036   0.24691   0.00000  Uiso   1.00
O227   O     0.39155   0.57035   0.24502   0.00000  Uiso   1.00
O228   O     0.60845   0.42965   0.25498   0.00000  Uiso   1.00
C229   C     0.34936   0.59830   0.25396   0.00000  Uiso   1.00
C230   C     0.65293   0.40237   0.25703   0.00000  Uiso   1.00
O231   O     0.63662   0.50730   0.32247   0.00000  Uiso   1.00
O232   O     0.36338   0.49270   0.17753   0.00000  Uiso   1.00
O233   O     0.39764   0.49801   0.31439   0.00000  Uiso   1.00
O234   O     0.60236   0.50199   0.18561   0.00000  Uiso   1.00
C235   C     0.35430   0.50405   0.34099   0.00000  Uiso   1.00
C236   C     0.64561   0.49550   0.15899   0.00000  Uiso   1.00
Zn237  Zn    0.60366   0.50621   0.25539   0.00000  Uiso   1.00
Zn238  Zn    0.39634   0.49379   0.24461   0.00000  Uiso   1.00
C239   C     0.36506   0.51020   0.39334   0.00000  Uiso   1.00
C240   C     0.63437   0.48652   0.10678   0.00000  Uiso   1.00
C241   C     0.35375   0.55493   0.47135   0.00000  Uiso   1.00
C242   C     0.64667   0.43878   0.03023   0.00000  Uiso   1.00
C243   C     0.33533   0.54400   0.42265   0.00000  Uiso   1.00
C244   C     0.66507   0.45233   0.07863   0.00000  Uiso   1.00
C245   C     0.41156   0.48684   0.41268   0.00000  Uiso   1.00
C246   C     0.58610   0.50655   0.08677   0.00000  Uiso   1.00
C247   C     0.43606   0.50360   0.45858   0.00000  Uiso   1.00
C248   C     0.56182   0.48642   0.04174   0.00000  Uiso   1.00
C249   C     0.40404   0.53499   0.48948   0.00000  Uiso   1.00
C250   C     0.59521   0.45604   0.01151   0.00000  Uiso   1.00
C251   C     0.49036   0.48883   0.47500   0.00000  Uiso   1.00
C252   C     0.50655   0.49804   0.02542   0.00000  Uiso   1.00
C253   C     0.46701   0.51934   0.05765   0.00000  Uiso   1.00
C254   C     0.52976   0.46704   0.44290   0.00000  Uiso   1.00
C255   C     0.42020   0.54272   0.03872   0.00000  Uiso   1.00
C256   C     0.57885   0.44649   0.46245   0.00000  Uiso   1.00
H257   H     0.39295   0.56221   0.06348   0.00000  Uiso   1.00
H258   H     0.60696   0.42698   0.43851   0.00000  Uiso   1.00
H259   H     0.56698   0.53703   0.10770   0.00000  Uiso   1.00
H260   H     0.42780   0.45547   0.39086   0.00000  Uiso   1.00
H261   H     0.36947   0.43627   0.09392   0.00000  Uiso   1.00
H262   H     0.63184   0.56196   0.40795   0.00000  Uiso   1.00
H263   H     0.66261   0.57932   0.49459   0.00000  Uiso   1.00
H264   H     0.33880   0.41459   0.00772   0.00000  Uiso   1.00
C265   C     0.36053   0.65325   0.26538   0.00000  Uiso   1.00
C266   C     0.64927   0.34956   0.27279   0.00000  Uiso   1.00
N267   N     0.48029   0.48550   0.23739   0.00000  Uiso   1.00
N268   N     0.51971   0.51450   0.26260   0.00000  Uiso   1.00
H269   H     0.49558   0.45784   0.21380   0.00000  Uiso   1.00
H270   H     0.50442   0.54213   0.28624   0.00000  Uiso   1.00
O271   O     0.46958   0.51424   0.10734   0.00000  Uiso   1.00
H272   H     0.48519   0.48010   0.11336   0.00000  Uiso   1.00
O273   O     0.52279   0.47000   0.39291   0.00000  Uiso   1.00
H274   H     0.55407   0.45338   0.37657   0.00000  Uiso   1.00
N275   N     0.41880   0.34162   0.26607   0.00000  Uiso   1.00
O276   O     0.44060   0.37082   0.30383   0.00000  Uiso   1.00
O277   O     0.44998   0.66515   0.22937   0.00000  Uiso   1.00
N278   N     0.59997   0.66365   0.29749   0.00000  Uiso   1.00
O279   O     0.55037   0.34725   0.28751   0.00000  Uiso   1.00
O280   O     0.60632   0.63532   0.33498   0.00000  Uiso   1.00
O281   O     0.96386   0.57964   0.25309   0.00000  Uiso   1.00
O282   O     0.70281   0.42036   0.24691   0.00000  Uiso   1.00
O283   O     0.72488   0.57035   0.24502   0.00000  Uiso   1.00
O284   O     0.94178   0.42965   0.25498   0.00000  Uiso   1.00
C285   C     0.68269   0.59830   0.25396   0.00000  Uiso   1.00
C286   C     0.98627   0.40237   0.25703   0.00000  Uiso   1.00
O287   O     0.96995   0.50730   0.32247   0.00000  Uiso   1.00
O288   O     0.69672   0.49270   0.17753   0.00000  Uiso   1.00
O289   O     0.73098   0.49801   0.31439   0.00000  Uiso   1.00
O290   O     0.93569   0.50199   0.18561   0.00000  Uiso   1.00
C291   C     0.68764   0.50405   0.34099   0.00000  Uiso   1.00
C292   C     0.97894   0.49550   0.15899   0.00000  Uiso   1.00
Zn293  Zn    0.93700   0.50621   0.25539   0.00000  Uiso   1.00
Zn294  Zn    0.72967   0.49379   0.24461   0.00000  Uiso   1.00
C295   C     0.69840   0.51020   0.39334   0.00000  Uiso   1.00
C296   C     0.96770   0.48652   0.10678   0.00000  Uiso   1.00
C297   C     0.68708   0.55493   0.47135   0.00000  Uiso   1.00
C298   C     0.98000   0.43878   0.03023   0.00000  Uiso   1.00
C299   C     0.66866   0.54400   0.42265   0.00000  Uiso   1.00
C300   C     0.99840   0.45233   0.07863   0.00000  Uiso   1.00
C301   C     0.74490   0.48684   0.41268   0.00000  Uiso   1.00
C302   C     0.91943   0.50655   0.08677   0.00000  Uiso   1.00
C303   C     0.76939   0.50360   0.45858   0.00000  Uiso   1.00
C304   C     0.89515   0.48642   0.04174   0.00000  Uiso   1.00
C305   C     0.73738   0.53499   0.48948   0.00000  Uiso   1.00
C306   C     0.92854   0.45604   0.01151   0.00000  Uiso   1.00
C307   C     0.82369   0.48883   0.47500   0.00000  Uiso   1.00
C308   C     0.83988   0.49804   0.02542   0.00000  Uiso   1.00
C309   C     0.80034   0.51934   0.05765   0.00000  Uiso   1.00
C310   C     0.86310   0.46704   0.44290   0.00000  Uiso   1.00
C311   C     0.75353   0.54272   0.03872   0.00000  Uiso   1.00
C312   C     0.91218   0.44649   0.46245   0.00000  Uiso   1.00
H313   H     0.72629   0.56221   0.06348   0.00000  Uiso   1.00
H314   H     0.94029   0.42698   0.43851   0.00000  Uiso   1.00
H315   H     0.90031   0.53703   0.10770   0.00000  Uiso   1.00
H316   H     0.76113   0.45547   0.39086   0.00000  Uiso   1.00
H317   H     0.70280   0.43627   0.09392   0.00000  Uiso   1.00
H318   H     0.96518   0.56196   0.40795   0.00000  Uiso   1.00
H319   H     0.99594   0.57932   0.49459   0.00000  Uiso   1.00
H320   H     0.67213   0.41459   0.00772   0.00000  Uiso   1.00
C321   C     0.69387   0.65325   0.26538   0.00000  Uiso   1.00
C322   C     0.98261   0.34956   0.27279   0.00000  Uiso   1.00
N323   N     0.81362   0.48550   0.23739   0.00000  Uiso   1.00
N324   N     0.85305   0.51450   0.26260   0.00000  Uiso   1.00
H325   H     0.82892   0.45784   0.21380   0.00000  Uiso   1.00
H326   H     0.83775   0.54213   0.28624   0.00000  Uiso   1.00
O327   O     0.80291   0.51424   0.10734   0.00000  Uiso   1.00
H328   H     0.81852   0.48010   0.11336   0.00000  Uiso   1.00
O329   O     0.85613   0.47000   0.39291   0.00000  Uiso   1.00
H330   H     0.88740   0.45338   0.37657   0.00000  Uiso   1.00
N331   N     0.75213   0.34162   0.26607   0.00000  Uiso   1.00
O332   O     0.77393   0.37082   0.30383   0.00000  Uiso   1.00
O333   O     0.78331   0.66515   0.22937   0.00000  Uiso   1.00
N334   N     0.93331   0.66365   0.29749   0.00000  Uiso   1.00
O335   O     0.88370   0.34725   0.28751   0.00000  Uiso   1.00
O336   O     0.93965   0.63532   0.33498   0.00000  Uiso   1.00
O337   O     0.29719   0.91298   0.25309   0.00000  Uiso   1.00
O338   O     0.03614   0.75369   0.24691   0.00000  Uiso   1.00
O339   O     0.05822   0.90368   0.24502   0.00000  Uiso   1.00
O340   O     0.27512   0.76298   0.25498   0.00000  Uiso   1.00
C341   C     0.01602   0.93164   0.25396   0.00000  Uiso   1.00
C342   C     0.31960   0.73570   0.25703   0.00000  Uiso   1.00
O343   O     0.30328   0.84063   0.32247   0.00000  Uiso   1.00
O344   O     0.03005   0.82603   0.17753   0.00000  Uiso   1.00
O345   O     0.06431   0.83134   0.31439   0.00000  Uiso   1.00
O346   O     0.26902   0.83533   0.18561   0.00000  Uiso   1.00
C347   C     0.02097   0.83739   0.34099   0.00000  Uiso   1.00
C348   C     0.31227   0.82883   0.15899   0.00000  Uiso   1.00
Zn349  Zn    0.27033   0.83954   0.25539   0.00000  Uiso   1.00
Zn350  Zn    0.06300   0.82713   0.24461   0.00000  Uiso   1.00
C351   C     0.03173   0.84354   0.39334   0.00000  Uiso   1.00
C352   C     0.30103   0.81986   0.10678   0.00000  Uiso   1.00
C353   C     0.02042   0.88827   0.47135   0.00000  Uiso   1.00
C354   C     0.31333   0.77211   0.03023   0.00000  Uiso   1.00
C355   C     0.00199   0.87734   0.42265   0.00000  Uiso   1.00
C356   C     0.33174   0.78566   0.07863   0.00000  Uiso   1.00
C357   C     0.07823   0.82017   0.41268   0.00000  Uiso   1.00
C358   C     0.25276   0.83988   0.08677   0.00000  Uiso   1.00
C359   C     0.10272   0.83693   0.45858   0.00000  Uiso   1.00
C360   C     0.22848   0.81975   0.04174   0.00000  Uiso   1.00
C361   C     0.07071   0.86833   0.48948   0.00000  Uiso   1.00
C362   C     0.26188   0.78938   0.01151   0.00000  Uiso   1.00
C363   C     0.15703   0.82217   0.47500   0.00000  Uiso   1.00
C364   C     0.17321   0.83137   0.02542   0.00000  Uiso   1.00
C365   C     0.13368   0.85268   0.05765   0.00000  Uiso   1.00
C366   C     0.19643   0.80037   0.44290   0.00000  Uiso   1.00
C367   C     0.08686   0.87606   0.03872   0.00000  Uiso   1.00
C368   C     0.24552   0.77982   0.46245   0.00000  Uiso   1.00
H369   H     0.05962   0.89554   0.06348   0.00000  Uiso   1.00
H370   H     0.27363   0.76031   0.43851   0.00000  Uiso   1.00
H371   H     0.23365   0.87036   0.10770   0.00000  Uiso   1.00
H372   H     0.09447   0.78881   0.39086   0.00000  Uiso   1.00
H373   H     0.03613   0.76960   0.09392   0.00000  Uiso   1.00
H374   H     0.29851   0.89529   0.40795   0.00000  Uiso   1.00
H375   H     0.32928   0.91265   0.49459   0.00000  Uiso   1.00
H376   H     0.00547   0.74792   0.00772   0.00000  Uiso   1.00
C377   C     0.02720   0.98658   0.26538   0.00000  Uiso   1.00
C378   C     0.31594   0.68289   0.27279   0.00000  Uiso   1.00
N379   N     0.14695   0.81883   0.23739   0.00000  Uiso   1.00
N380   N     0.18638   0.84784   0.26260   0.00000  Uiso   1.00
H381   H     0.16225   0.79117   0.21380   0.00000  Uiso   1.00
H382   H     0.17109   0.87546   0.28624   0.00000  Uiso   1.00
O383   O     0.13624   0.84757   0.10734   0.00000  Uiso   1.00
H384   H     0.15186   0.81343   0.11336   0.00000  Uiso   1.00
O385   O     0.18946   0.80333   0.39291   0.00000  Uiso   1.00
H386   H     0.22073   0.78671   0.37657   0.00000  Uiso   1.00
N387   N     0.08546   0.67496   0.26607   0.00000  Uiso   1.00
O388   O     0.10726   0.70415   0.30383   0.00000  Uiso   1.00
O389   O     0.11665   0.99848   0.22937   0.00000  Uiso   1.00
N390   N     0.26664   0.99698   0.29749   0.00000  Uiso   1.00
O391   O     0.21704   0.68059   0.28751   0.00000  Uiso   1.00
O392   O     0.27299   0.96866   0.33498   0.00000  Uiso   1.00
O393   O     0.63052   0.91298   0.25309   0.00000  Uiso   1.00
O394   O     0.36948   0.75369   0.24691   0.00000  Uiso   1.00
O395   O     0.39155   0.90368   0.24502   0.00000  Uiso   1.00
O396   O     0.60845   0.76298   0.25498   0.00000  Uiso   1.00
C397   C     0.34936   0.93164   0.25396   0.00000  Uiso   1.00
C398   C     0.65293   0.73570   0.25703   0.00000  Uiso   1.00
O399   O     0.63662   0.84063   0.32247   0.00000  Uiso   1.00
O400   O     0.36338   0.82603   0.17753   0.00000  Uiso   1.00
O401   O     0.39764   0.83134   0.31439   0.00000  Uiso   1.00
O402   O     0.60236   0.83533   0.18561   0.00000  Uiso   1.00
C403   C     0.35430   0.83739   0.34099   0.00000  Uiso   1.00
C404   C     0.64561   0.82883   0.15899   0.00000  Uiso   1.00
Zn405  Zn    0.60366   0.83954   0.25539   0.00000  Uiso   1.00
Zn406  Zn    0.39634   0.82713   0.24461   0.00000  Uiso   1.00
C407   C     0.36506   0.84354   0.39334   0.00000  Uiso   1.00
C408   C     0.63437   0.81986   0.10678   0.00000  Uiso   1.00
C409   C     0.35375   0.88827   0.47135   0.00000  Uiso   1.00
C410   C     0.64667   0.77211   0.03023   0.00000  Uiso   1.00
C411   C     0.33533   0.87734   0.42265   0.00000  Uiso   1.00
C412   C     0.66507   0.78566   0.07863   0.00000  Uiso   1.00
C413   C     0.41156   0.82017   0.41268   0.00000  Uiso   1.00
C414   C     0.58610   0.83988   0.08677   0.00000  Uiso   1.00
C415   C     0.43606   0.83693   0.45858   0.00000  Uiso   1.00
C416   C     0.56182   0.81975   0.04174   0.00000  Uiso   1.00
C417   C     0.40404   0.86833   0.48948   0.00000  Uiso   1.00
C418   C     0.59521   0.78938   0.01151   0.00000  Uiso   1.00
C419   C     0.49036   0.82217   0.47500   0.00000  Uiso   1.00
C420   C     0.50655   0.83137   0.02542   0.00000  Uiso   1.00
C421   C     0.46701   0.85268   0.05765   0.00000  Uiso   1.00
C422   C     0.52976   0.80037   0.44290   0.00000  Uiso   1.00
C423   C     0.42020   0.87606   0.03872   0.00000  Uiso   1.00
C424   C     0.57885   0.77982   0.46245   0.00000  Uiso   1.00
H425   H     0.39295   0.89554   0.06348   0.00000  Uiso   1.00
H426   H     0.60696   0.76031   0.43851   0.00000  Uiso   1.00
H427   H     0.56698   0.87036   0.10770   0.00000  Uiso   1.00
H428   H     0.42780   0.78881   0.39086   0.00000  Uiso   1.00
H429   H     0.36947   0.76960   0.09392   0.00000  Uiso   1.00
H430   H     0.63184   0.89529   0.40795   0.00000  Uiso   1.00
H431   H     0.66261   0.91265   0.49459   0.00000  Uiso   1.00
H432   H     0.33880   0.74792   0.00772   0.00000  Uiso   1.00
C433   C     0.36053   0.98658   0.26538   0.00000  Uiso   1.00
C434   C     0.64927   0.68289   0.27279   0.00000  Uiso   1.00
N435   N     0.48029   0.81883   0.23739   0.00000  Uiso   1.00
N436   N     0.51971   0.84784   0.26260   0.00000  Uiso   1.00
H437   H     0.49558   0.79117   0.21380   0.00000  Uiso   1.00
H438   H     0.50442   0.87546   0.28624   0.00000  Uiso   1.00
O439   O     0.46958   0.84757   0.10734   0.00000  Uiso   1.00
H440   H     0.48519   0.81343   0.11336   0.00000  Uiso   1.00
O441   O     0.52279   0.80333   0.39291   0.00000  Uiso   1.00
H442   H     0.55407   0.78671   0.37657   0.00000  Uiso   1.00
N443   N     0.41880   0.67496   0.26607   0.00000  Uiso   1.00
O444   O     0.44060   0.70415   0.30383   0.00000  Uiso   1.00
O445   O     0.44998   0.99848   0.22937   0.00000  Uiso   1.00
N446   N     0.59997   0.99698   0.29749   0.00000  Uiso   1.00
O447   O     0.55037   0.68059   0.28751   0.00000  Uiso   1.00
O448   O     0.60632   0.96866   0.33498   0.00000  Uiso   1.00
O449   O     0.96386   0.91298   0.25309   0.00000  Uiso   1.00
O450   O     0.70281   0.75369   0.24691   0.00000  Uiso   1.00
O451   O     0.72488   0.90368   0.24502   0.00000  Uiso   1.00
O452   O     0.94178   0.76298   0.25498   0.00000  Uiso   1.00
C453   C     0.68269   0.93164   0.25396   0.00000  Uiso   1.00
C454   C     0.98627   0.73570   0.25703   0.00000  Uiso   1.00
O455   O     0.96995   0.84063   0.32247   0.00000  Uiso   1.00
O456   O     0.69672   0.82603   0.17753   0.00000  Uiso   1.00
O457   O     0.73098   0.83134   0.31439   0.00000  Uiso   1.00
O458   O     0.93569   0.83533   0.18561   0.00000  Uiso   1.00
C459   C     0.68764   0.83739   0.34099   0.00000  Uiso   1.00
C460   C     0.97894   0.82883   0.15899   0.00000  Uiso   1.00
Zn461  Zn    0.93700   0.83954   0.25539   0.00000  Uiso   1.00
Zn462  Zn    0.72967   0.82713   0.24461   0.00000  Uiso   1.00
C463   C     0.69840   0.84354   0.39334   0.00000  Uiso   1.00
C464   C     0.96770   0.81986   0.10678   0.00000  Uiso   1.00
C465   C     0.68708   0.88827   0.47135   0.00000  Uiso   1.00
C466   C     0.98000   0.77211   0.03023   0.00000  Uiso   1.00
C467   C     0.66866   0.87734   0.42265   0.00000  Uiso   1.00
C468   C     0.99840   0.78566   0.07863   0.00000  Uiso   1.00
C469   C     0.74490   0.82017   0.41268   0.00000  Uiso   1.00
C470   C     0.91943   0.83988   0.08677   0.00000  Uiso   1.00
C471   C     0.76939   0.83693   0.45858   0.00000  Uiso   1.00
C472   C     0.89515   0.81975   0.04174   0.00000  Uiso   1.00
C473   C     0.73738   0.86833   0.48948   0.00000  Uiso   1.00
C474   C     0.92854   0.78938   0.01151   0.00000  Uiso   1.00
C475   C     0.82369   0.82217   0.47500   0.00000  Uiso   1.00
C476   C     0.83988   0.83137   0.02542   0.00000  Uiso   1.00
C477   C     0.80034   0.85268   0.05765   0.00000  Uiso   1.00
C478   C     0.86310   0.80037   0.44290   0.00000  Uiso   1.00
C479   C     0.75353   0.87606   0.03872   0.00000  Uiso   1.00
C480   C     0.91218   0.77982   0.46245   0.00000  Uiso   1.00
H481   H     0.72629   0.89554   0.06348   0.00000  Uiso   1.00
H482   H     0.94029   0.76031   0.43851   0.00000  Uiso   1.00
H483   H     0.90031   0.87036   0.10770   0.00000  Uiso   1.00
H484   H     0.76113   0.78881   0.39086   0.00000  Uiso   1.00
H485   H     0.70280   0.76960   0.09392   0.00000  Uiso   1.00
H486   H     0.96518   0.89529   0.40795   0.00000  Uiso   1.00
H487   H     0.99594   0.91265   0.49459   0.00000  Uiso   1.00
H488   H     0.67213   0.74792   0.00772   0.00000  Uiso   1.00
C489   C     0.69387   0.98658   0.26538   0.00000  Uiso   1.00
C490   C     0.98261   0.68289   0.27279   0.00000  Uiso   1.00
N491   N     0.81362   0.81883   0.23739   0.00000  Uiso   1.00
N492   N     0.85305   0.84784   0.26260   0.00000  Uiso   1.00
H493   H     0.82892   0.79117   0.21380   0.00000  Uiso   1.00
H494   H     0.83775   0.87546   0.28624   0.00000  Uiso   1.00
O495   O     0.80291   0.84757   0.10734   0.00000  Uiso   1.00
H496   H     0.81852   0.81343   0.11336   0.00000  Uiso   1.00
O497   O     0.85613   0.80333   0.39291   0.00000  Uiso   1.00
H498   H     0.88740   0.78671   0.37657   0.00000  Uiso   1.00
N499   N     0.75213   0.67496   0.26607   0.00000  Uiso   1.00
O500   O     0.77393   0.70415   0.30383   0.00000  Uiso   1.00
O501   O     0.78331   0.99848   0.22937   0.00000  Uiso   1.00
N502   N     0.93331   0.99698   0.29749   0.00000  Uiso   1.00
O503   O     0.88370   0.68059   0.28751   0.00000  Uiso   1.00
O504   O     0.93965   0.96866   0.33498   0.00000  Uiso   1.00
O505   O     0.29719   0.24631   0.75309   0.00000  Uiso   1.00
O506   O     0.03614   0.08702   0.74691   0.00000  Uiso   1.00
O507   O     0.05822   0.23702   0.74502   0.00000  Uiso   1.00
O508   O     0.27512   0.09632   0.75498   0.00000  Uiso   1.00
C509   C     0.01602   0.26497   0.75396   0.00000  Uiso   1.00
C510   C     0.31960   0.06904   0.75703   0.00000  Uiso   1.00
O511   O     0.30328   0.17397   0.82247   0.00000  Uiso   1.00
O512   O     0.03005   0.15937   0.67753   0.00000  Uiso   1.00
O513   O     0.06431   0.16467   0.81439   0.00000  Uiso   1.00
O514   O     0.26902   0.16866   0.68561   0.00000  Uiso   1.00
C515   C     0.02097   0.17072   0.84099   0.00000  Uiso   1.00
C516   C     0.31227   0.16216   0.65899   0.00000  Uiso   1.00
Zn517  Zn    0.27033   0.17287   0.75539   0.00000  Uiso   1.00
Zn518  Zn    0.06300   0.16046   0.74461   0.00000  Uiso   1.00
C519   C     0.03173   0.17687   0.89334   0.00000  Uiso   1.00
C520   C     0.30103   0.15319   0.60678   0.00000  Uiso   1.00
C521   C     0.02042   0.22160   0.97135   0.00000  Uiso   1.00
C522   C     0.31333   0.10544   0.53023   0.00000  Uiso   1.00
C523   C     0.00199   0.21067   0.92265   0.00000  Uiso   1.00
C524   C     0.33174   0.11899   0.57863   0.00000  Uiso   1.00
C525   C     0.07823   0.15350   0.91268   0.00000  Uiso   1.00
C526   C     0.25276   0.17321   0.58677   0.00000  Uiso   1.00
C527   C     0.10272   0.17026   0.95858   0.00000  Uiso   1.00
C528   C     0.22848   0.15308   0.54174   0.00000  Uiso   1.00
C529   C     0.07071   0.20166   0.98948   0.00000  Uiso   1.00
C530   C     0.26188   0.12271   0.51151   0.00000  Uiso   1.00
C531   C     0.15703   0.15550   0.97500   0.00000  Uiso   1.00
C532   C     0.17321   0.16470   0.52542   0.00000  Uiso   1.00
C533   C     0.13368   0.18601   0.55765   0.00000  Uiso   1.00
C534   C     0.19643   0.13370   0.94290   0.00000  Uiso   1.00
C535   C     0.08686   0.20939   0.53872   0.00000  Uiso   1.00
C536   C     0.24552   0.11316   0.96245   0.00000  Uiso   1.00
H537   H     0.05962   0.22887   0.56348   0.00000  Uiso   1.00
H538   H     0.27363   0.09365   0.93851   0.00000  Uiso   1.00
H539   H     0.23365   0.20370   0.60770   0.00000  Uiso   1.00
H540   H     0.09447   0.12214   0.89086   0.00000  Uiso   1.00
H541   H     0.03613   0.10294   0.59392   0.00000  Uiso   1.00
H542   H     0.29851   0.22862   0.90795   0.00000  Uiso   1.00
H543   H     0.32928   0.24599   0.99459   0.00000  Uiso   1.00
H544   H     0.00547   0.08126   0.50772   0.00000  Uiso   1.00
C545   C     0.02720   0.31992   0.76538   0.00000  Uiso   1.00
C546   C     0.31594   0.01623   0.77279   0.00000  Uiso   1.00
N547   N     0.14695   0.15216   0.73739   0.00000  Uiso   1.00
N548   N     0.18638   0.18117   0.76260   0.00000  Uiso   1.00
H549   H     0.16225   0.12450   0.71380   0.00000  Uiso   1.00
H550   H     0.17109   0.20880   0.78624   0.00000  Uiso   1.00
O551   O     0.13624   0.18090   0.60734   0.00000  Uiso   1.00
H552   H     0.15186   0.14677   0.61336   0.00000  Uiso   1.00
O553   O     0.18946   0.13667   0.89291   0.00000  Uiso   1.00
H554   H     0.22073   0.12004   0.87657   0.00000  Uiso   1.00
N555   N     0.08546   0.00829   0.76607   0.00000  Uiso   1.00
O556   O     0.10726   0.03748   0.80383   0.00000  Uiso   1.00
O557   O     0.11665   0.33181   0.72937   0.00000  Uiso   1.00
N558   N     0.26664   0.33031   0.79749   0.00000  Uiso   1.00
O559   O     0.21704   0.01392   0.78751   0.00000  Uiso   1.00
O560   O     0.27299   0.30199   0.83498   0.00000  Uiso   1.00
O561   O     0.63052   0.24631   0.75309   0.00000  Uiso   1.00
O562   O     0.36948   0.08702   0.74691   0.00000  Uiso   1.00
O563   O     0.39155   0.23702   0.74502   0.00000  Uiso   1.00
O564   O     0.60845   0.09632   0.75498   0.00000  Uiso   1.00
C565   C     0.34936   0.26497   0.75396   0.00000  Uiso   1.00
C566   C     0.65293   0.06904   0.75703   0.00000  Uiso   1.00
O567   O     0.63662   0.17397   0.82247   0.00000  Uiso   1.00
O568   O     0.36338   0.15937   0.67753   0.00000  Uiso   1.00
O569   O     0.39764   0.16467   0.81439   0.00000  Uiso   1.00
O570   O     0.60236   0.16866   0.68561   0.00000  Uiso   1.00
C571   C     0.35430   0.17072   0.84099   0.00000  Uiso   1.00
C572   C     0.64561   0.16216   0.65899   0.00000  Uiso   1.00
Zn573  Zn    0.60366   0.17287   0.75539   0.00000  Uiso   1.00
Zn574  Zn    0.39634   0.16046   0.74461   0.00000  Uiso   1.00
C575   C     0.36506   0.17687   0.89334   0.00000  Uiso   1.00
C576   C     0.63437   0.15319   0.60678   0.00000  Uiso   1.00
C577   C     0.35375   0.22160   0.97135   0.00000  Uiso   1.00
C578   C     0.64667   0.10544   0.53023   0.00000  Uiso   1.00
C579   C     0.33533   0.21067   0.92265   0.00000  Uiso   1.00
C580   C     0.66507   0.11899   0.57863   0.00000  Uiso   1.00
C581   C     0.41156   0.15350   0.91268   0.00000  Uiso   1.00
C582   C     0.58610   0.17321   0.58677   0.00000  Uiso   1.00
C583   C     0.43606   0.17026   0.95858   0.00000  Uiso   1.00
C584   C     0.56182   0.15308   0.54174   0.00000  Uiso   1.00
C585   C     0.40404   0.20166   0.98948   0.00000  Uiso   1.00
C586   C     0.59521   0.12271   0.51151   0.00000  Uiso   1.00
C587   C     0.49036   0.15550   0.97500   0.00000  Uiso   1.00
C588   C     0.50655   0.16470   0.52542   0.00000  Uiso   1.00
C589   C     0.46701   0.18601   0.55765   0.00000  Uiso   1.00
C590   C     0.52976   0.13370   0.94290   0.00000  Uiso   1.00
C591   C     0.42020   0.20939   0.53872   0.00000  Uiso   1.00
C592   C     0.57885   0.11316   0.96245   0.00000  Uiso   1.00
H593   H     0.39295   0.22887   0.56348   0.00000  Uiso   1.00
H594   H     0.60696   0.09365   0.93851   0.00000  Uiso   1.00
H595   H     0.56698   0.20370   0.60770   0.00000  Uiso   1.00
H596   H     0.42780   0.12214   0.89086   0.00000  Uiso   1.00
H597   H     0.36947   0.10294   0.59392   0.00000  Uiso   1.00
H598   H     0.63184   0.22862   0.90795   0.00000  Uiso   1.00
H599   H     0.66261   0.24599   0.99459   0.00000  Uiso   1.00
H600   H     0.33880   0.08126   0.50772   0.00000  Uiso   1.00
C601   C     0.36053   0.31992   0.76538   0.00000  Uiso   1.00
C602   C     0.64927   0.01623   0.77279   0.00000  Uiso   1.00
N603   N     0.48029   0.15216   0.73739   0.00000  Uiso   1.00
N604   N     0.51971   0.18117   0.76260   0.00000  Uiso   1.00
H605   H     0.49558   0.12450   0.71380   0.00000  Uiso   1.00
H606   H     0.50442   0.20880   0.78624   0.00000  Uiso   1.00
O607   O     0.46958   0.18090   0.60734   0.00000  Uiso   1.00
H608   H     0.48519   0.14677   0.61336   0.00000  Uiso   1.00
O609   O     0.52279   0.13667   0.89291   0.00000  Uiso   1.00
H610   H     0.55407   0.12004   0.87657   0.00000  Uiso   1.00
N611   N     0.41880   0.00829   0.76607   0.00000  Uiso   1.00
O612   O     0.44060   0.03748   0.80383   0.00000  Uiso   1.00
O613   O     0.44998   0.33181   0.72937   0.00000  Uiso   1.00
N614   N     0.59997   0.33031   0.79749   0.00000  Uiso   1.00
O615   O     0.55037   0.01392   0.78751   0.00000  Uiso   1.00
O616   O     0.60632   0.30199   0.83498   0.00000  Uiso   1.00
O617   O     0.96386   0.24631   0.75309   0.00000  Uiso   1.00
O618   O     0.70281   0.08702   0.74691   0.00000  Uiso   1.00
O619   O     0.72488   0.23702   0.74502   0.00000  Uiso   1.00
O620   O     0.94178   0.09632   0.75498   0.00000  Uiso   1.00
C621   C     0.68269   0.26497   0.75396   0.00000  Uiso   1.00
C622   C     0.98627   0.06904   0.75703   0.00000  Uiso   1.00
O623   O     0.96995   0.17397   0.82247   0.00000  Uiso   1.00
O624   O     0.69672   0.15937   0.67753   0.00000  Uiso   1.00
O625   O     0.73098   0.16467   0.81439   0.00000  Uiso   1.00
O626   O     0.93569   0.16866   0.68561   0.00000  Uiso   1.00
C627   C     0.68764   0.17072   0.84099   0.00000  Uiso   1.00
C628   C     0.97894   0.16216   0.65899   0.00000  Uiso   1.00
Zn629  Zn    0.93700   0.17287   0.75539   0.00000  Uiso   1.00
Zn630  Zn    0.72967   0.16046   0.74461   0.00000  Uiso   1.00
C631   C     0.69840   0.17687   0.89334   0.00000  Uiso   1.00
C632   C     0.96770   0.15319   0.60678   0.00000  Uiso   1.00
C633   C     0.68708   0.22160   0.97135   0.00000  Uiso   1.00
C634   C     0.98000   0.10544   0.53023   0.00000  Uiso   1.00
C635   C     0.66866   0.21067   0.92265   0.00000  Uiso   1.00
C636   C     0.99840   0.11899   0.57863   0.00000  Uiso   1.00
C637   C     0.74490   0.15350   0.91268   0.00000  Uiso   1.00
C638   C     0.91943   0.17321   0.58677   0.00000  Uiso   1.00
C639   C     0.76939   0.17026   0.95858   0.00000  Uiso   1.00
C640   C     0.89515   0.15308   0.54174   0.00000  Uiso   1.00
C641   C     0.73738   0.20166   0.98948   0.00000  Uiso   1.00
C642   C     0.92854   0.12271   0.51151   0.00000  Uiso   1.00
C643   C     0.82369   0.15550   0.97500   0.00000  Uiso   1.00
C644   C     0.83988   0.16470   0.52542   0.00000  Uiso   1.00
C645   C     0.80034   0.18601   0.55765   0.00000  Uiso   1.00
C646   C     0.86310   0.13370   0.94290   0.00000  Uiso   1.00
C647   C     0.75353   0.20939   0.53872   0.00000  Uiso   1.00
C648   C     0.91218   0.11316   0.96245   0.00000  Uiso   1.00
H649   H     0.72629   0.22887   0.56348   0.00000  Uiso   1.00
H650   H     0.94029   0.09365   0.93851   0.00000  Uiso   1.00
H651   H     0.90031   0.20370   0.60770   0.00000  Uiso   1.00
H652   H     0.76113   0.12214   0.89086   0.00000  Uiso   1.00
H653   H     0.70280   0.10294   0.59392   0.00000  Uiso   1.00
H654   H     0.96518   0.22862   0.90795   0.00000  Uiso   1.00
H655   H     0.99594   0.24599   0.99459   0.00000  Uiso   1.00
H656   H     0.67213   0.08126   0.50772   0.00000  Uiso   1.00
C657   C     0.69387   0.31992   0.76538   0.00000  Uiso   1.00
C658   C     0.98261   0.01623   0.77279   0.00000  Uiso   1.00
N659   N     0.81362   0.15216   0.73739   0.00000  Uiso   1.00
N660   N     0.85305   0.18117   0.76260   0.00000  Uiso   1.00
H661   H     0.82892   0.12450   0.71380   0.00000  Uiso   1.00
H662   H     0.83775   0.20880   0.78624   0.00000  Uiso   1.00
O663   O     0.80291   0.18090   0.60734   0.00000  Uiso   1.00
H664   H     0.81852   0.14677   0.61336   0.00000  Uiso   1.00
O665   O     0.85613   0.13667   0.89291   0.00000  Uiso   1.00
H666   H     0.88740   0.12004   0.87657   0.00000  Uiso   1.00
N667   N     0.75213   0.00829   0.76607   0.00000  Uiso   1.00
O668   O     0.77393   0.03748   0.80383   0.00000  Uiso   1.00
O669   O     0.78331   0.33181   0.72937   0.00000  Uiso   1.00
N670   N     0.93331   0.33031   0.79749   0.00000  Uiso   1.00
O671   O     0.88370   0.01392   0.78751   0.00000  Uiso   1.00
O672   O     0.93965   0.30199   0.83498   0.00000  Uiso   1.00
O673   O     0.29719   0.57964   0.75309   0.00000  Uiso   1.00
O674   O     0.03614   0.42036   0.74691   0.00000  Uiso   1.00
O675   O     0.05822   0.57035   0.74502   0.00000  Uiso   1.00
O676   O     0.27512   0.42965   0.75498   0.00000  Uiso   1.00
C677   C     0.01602   0.59830   0.75396   0.00000  Uiso   1.00
C678   C     0.31960   0.40237   0.75703   0.00000  Uiso   1.00
O679   O     0.30328   0.50730   0.82247   0.00000  Uiso   1.00
O680   O     0.03005   0.49270   0.67753   0.00000  Uiso   1.00
O681   O     0.06431   0.49801   0.81439   0.00000  Uiso   1.00
O682   O     0.26902   0.50199   0.68561   0.00000  Uiso   1.00
C683   C     0.02097   0.50405   0.84099   0.00000  Uiso   1.00
C684   C     0.31227   0.49550   0.65899   0.00000  Uiso   1.00
Zn685  Zn    0.27033   0.50621   0.75539   0.00000  Uiso   1.00
Zn686  Zn    0.06300   0.49379   0.74461   0.00000  Uiso   1.00
C687   C     0.03173   0.51020   0.89334   0.00000  Uiso   1.00
C688   C     0.30103   0.48652   0.60678   0.00000  Uiso   1.00
C689   C     0.02042   0.55493   0.97135   0.00000  Uiso   1.00
C690   C     0.31333   0.43878   0.53023   0.00000  Uiso   1.00
C691   C     0.00199   0.54400   0.92265   0.00000  Uiso   1.00
C692   C     0.33174   0.45233   0.57863   0.00000  Uiso   1.00
C693   C     0.07823   0.48684   0.91268   0.00000  Uiso   1.00
C694   C     0.25276   0.50655   0.58677   0.00000  Uiso   1.00
C695   C     0.10272   0.50360   0.95858   0.00000  Uiso   1.00
C696   C     0.22848   0.48642   0.54174   0.00000  Uiso   1.00
C697   C     0.07071   0.53499   0.98948   0.00000  Uiso   1.00
C698   C     0.26188   0.45604   0.51151   0.00000  Uiso   1.00
C699   C     0.15703   0.48883   0.97500   0.00000  Uiso   1.00
C700   C     0.17321   0.49804   0.52542   0.00000  Uiso   1.00
C701   C     0.13368   0.51934   0.55765   0.00000  Uiso   1.00
C702   C     0.19643   0.46704   0.94290   0.00000  Uiso   1.00
C703   C     0.08686   0.54272   0.53872   0.00000  Uiso   1.00
C704   C     0.24552   0.44649   0.96245   0.00000  Uiso   1.00
H705   H     0.05962   0.56221   0.56348   0.00000  Uiso   1.00
H706   H     0.27363   0.42698   0.93851   0.00000  Uiso   1.00
H707   H     0.23365   0.53703   0.60770   0.00000  Uiso   1.00
H708   H     0.09447   0.45547   0.89086   0.00000  Uiso   1.00
H709   H     0.03613   0.43627   0.59392   0.00000  Uiso   1.00
H710   H     0.29851   0.56196   0.90795   0.00000  Uiso   1.00
H711   H     0.32928   0.57932   0.99459   0.00000  Uiso   1.00
H712   H     0.00547   0.41459   0.50772   0.00000  Uiso   1.00
C713   C     0.02720   0.65325   0.76538   0.00000  Uiso   1.00
C714   C     0.31594   0.34956   0.77279   0.00000  Uiso   1.00
N715   N     0.14695   0.48550   0.73739   0.00000  Uiso   1.00
N716   N     0.18638   0.51450   0.76260   0.00000  Uiso   1.00
H717   H     0.16225   0.45784   0.71380   0.00000  Uiso   1.00
H718   H     0.17109   0.54213   0.78624   0.00000  Uiso   1.00
O719   O     0.13624   0.51424   0.60734   0.00000  Uiso   1.00
H720   H     0.15186   0.48010   0.61336   0.00000  Uiso   1.00
O721   O     0.18946   0.47000   0.89291   0.00000  Uiso   1.00
H722   H     0.22073   0.45338   0.87657   0.00000  Uiso   1.00
N723   N     0.08546   0.34162   0.76607   0.00000  Uiso   1.00
O724   O     0.10726   0.37082   0.80383   0.00000  Uiso   1.00
O725   O     0.11665   0.66515   0.72937   0.00000  Uiso   1.00
N726   N     0.26664   0.66365   0.79749   0.00000  Uiso   1.00
O727   O     0.21704   0.34725   0.78751   0.00000  Uiso   1.00
O728   O     0.27299   0.63532   0.83498   0.00000  Uiso   1.00
O729   O     0.63052   0.57964   0.75309   0.00000  Uiso   1.00
O730   O     0.36948   0.42036   0.74691   0.00000  Uiso   1.00
O731   O     0.39155   0.57035   0.74502   0.00000  Uiso   1.00
O732   O     0.60845   0.42965   0.75498   0.00000  Uiso   1.00
C733   C     0.34936   0.59830   0.75396   0.00000  Uiso   1.00
C734   C     0.65293   0.40237   0.75703   0.00000  Uiso   1.00
O735   O     0.63662   0.50730   0.82247   0.00000  Uiso   1.00
O736   O     0.36338   0.49270   0.67753   0.00000  Uiso   1.00
O737   O     0.39764   0.49801   0.81439   0.00000  Uiso   1.00
O738   O     0.60236   0.50199   0.68561   0.00000  Uiso   1.00
C739   C     0.35430   0.50405   0.84099   0.00000  Uiso   1.00
C740   C     0.64561   0.49550   0.65899   0.00000  Uiso   1.00
Zn741  Zn    0.60366   0.50621   0.75539   0.00000  Uiso   1.00
Zn742  Zn    0.39634   0.49379   0.74461   0.00000  Uiso   1.00
C743   C     0.36506   0.51020   0.89334   0.00000  Uiso   1.00
C744   C     0.63437   0.48652   0.60678   0.00000  Uiso   1.00
C745   C     0.35375   0.55493   0.97135   0.00000  Uiso   1.00
C746   C     0.64667   0.43878   0.53023   0.00000  Uiso   1.00
C747   C     0.33533   0.54400   0.92265   0.00000  Uiso   1.00
C748   C     0.66507   0.45233   0.57863   0.00000  Uiso   1.00
C749   C     0.41156   0.48684   0.91268   0.00000  Uiso   1.00
C750   C     0.58610   0.50655   0.58677   0.00000  Uiso   1.00
C751   C     0.43606   0.50360   0.95858   0.00000  Uiso   1.00
C752   C     0.56182   0.48642   0.54174   0.00000  Uiso   1.00
C753   C     0.40404   0.53499   0.98948   0.00000  Uiso   1.00
C754   C     0.59521   0.45604   0.51151   0.00000  Uiso   1.00
C755   C     0.49036   0.48883   0.97500   0.00000  Uiso   1.00
C756   C     0.50655   0.49804   0.52542   0.00000  Uiso   1.00
C757   C     0.46701   0.51934   0.55765   0.00000  Uiso   1.00
C758   C     0.52976   0.46704   0.94290   0.00000  Uiso   1.00
C759   C     0.42020   0.54272   0.53872   0.00000  Uiso   1.00
C760   C     0.57885   0.44649   0.96245   0.00000  Uiso   1.00
H761   H     0.39295   0.56221   0.56348   0.00000  Uiso   1.00
H762   H     0.60696   0.42698   0.93851   0.00000  Uiso   1.00
H763   H     0.56698   0.53703   0.60770   0.00000  Uiso   1.00
H764   H     0.42780   0.45547   0.89086   0.00000  Uiso   1.00
H765   H     0.36947   0.43627   0.59392   0.00000  Uiso   1.00
H766   H     0.63184   0.56196   0.90795   0.00000  Uiso   1.00
H767   H     0.66261   0.57932   0.99459   0.00000  Uiso   1.00
H768   H     0.33880   0.41459   0.50772   0.00000  Uiso   1.00
C769   C     0.36053   0.65325   0.76538   0.00000  Uiso   1.00
C770   C     0.64927   0.34956   0.77279   0.00000  Uiso   1.00
N771   N     0.48029   0.48550   0.73739   0.00000  Uiso   1.00
N772   N     0.51971   0.51450   0.76260   0.00000  Uiso   1.00
H773   H     0.49558   0.45784   0.71380   0.00000  Uiso   1.00
H774   H     0.50442   0.54213   0.78624   0.00000  Uiso   1.00
O775   O     0.46958   0.51424   0.60734   0.00000  Uiso   1.00
H776   H     0.48519   0.48010   0.61336   0.00000  Uiso   1.00
O777   O     0.52279   0.47000   0.89291   0.00000  Uiso   1.00
H778   H     0.55407   0.45338   0.87657   0.00000  Uiso   1.00
N779   N     0.41880   0.34162   0.76607   0.00000  Uiso   1.00
O780   O     0.44060   0.37082   0.80383   0.00000  Uiso   1.00
O781   O     0.44998   0.66515   0.72937   0.00000  Uiso   1.00
N782   N     0.59997   0.66365   0.79749   0.00000  Uiso   1.00
O783   O     0.55037   0.34725   0.78751   0.00000  Uiso   1.00
O784   O     0.60632   0.63532   0.83498   0.00000  Uiso   1.00
O785   O     0.96386   0.57964   0.75309   0.00000  Uiso   1.00
O786   O     0.70281   0.42036   0.74691   0.00000  Uiso   1.00
O787   O     0.72488   0.57035   0.74502   0.00000  Uiso   1.00
O788   O     0.94178   0.42965   0.75498   0.00000  Uiso   1.00
C789   C     0.68269   0.59830   0.75396   0.00000  Uiso   1.00
C790   C     0.98627   0.40237   0.75703   0.00000  Uiso   1.00
O791   O     0.96995   0.50730   0.82247   0.00000  Uiso   1.00
O792   O     0.69672   0.49270   0.67753   0.00000  Uiso   1.00
O793   O     0.73098   0.49801   0.81439   0.00000  Uiso   1.00
O794   O     0.93569   0.50199   0.68561   0.00000  Uiso   1.00
C795   C     0.68764   0.50405   0.84099   0.00000  Uiso   1.00
C796   C     0.97894   0.49550   0.65899   0.00000  Uiso   1.00
Zn797  Zn    0.93700   0.50621   0.75539   0.00000  Uiso   1.00
Zn798  Zn    0.72967   0.49379   0.74461   0.00000  Uiso   1.00
C799   C     0.69840   0.51020   0.89334   0.00000  Uiso   1.00
C800   C     0.96770   0.48652   0.60678   0.00000  Uiso   1.00
C801   C     0.68708   0.55493   0.97135   0.00000  Uiso   1.00
C802   C     0.98000   0.43878   0.53023   0.00000  Uiso   1.00
C803   C     0.66866   0.54400   0.92265   0.00000  Uiso   1.00
C804   C     0.99840   0.45233   0.57863   0.00000  Uiso   1.00
C805   C     0.74490   0.48684   0.91268   0.00000  Uiso   1.00
C806   C     0.91943   0.50655   0.58677   0.00000  Uiso   1.00
C807   C     0.76939   0.50360   0.95858   0.00000  Uiso   1.00
C808   C     0.89515   0.48642   0.54174   0.00000  Uiso   1.00
C809   C     0.73738   0.53499   0.98948   0.00000  Uiso   1.00
C810   C     0.92854   0.45604   0.51151   0.00000  Uiso   1.00
C811   C     0.82369   0.48883   0.97500   0.00000  Uiso   1.00
C812   C     0.83988   0.49804   0.52542   0.00000  Uiso   1.00
C813   C     0.80034   0.51934   0.55765   0.00000  Uiso   1.00
C814   C     0.86310   0.46704   0.94290   0.00000  Uiso   1.00
C815   C     0.75353   0.54272   0.53872   0.00000  Uiso   1.00
C816   C     0.91218   0.44649   0.96245   0.00000  Uiso   1.00
H817   H     0.72629   0.56221   0.56348   0.00000  Uiso   1.00
H818   H     0.94029   0.42698   0.93851   0.00000  Uiso   1.00
H819   H     0.90031   0.53703   0.60770   0.00000  Uiso   1.00
H820   H     0.76113   0.45547   0.89086   0.00000  Uiso   1.00
H821   H     0.70280   0.43627   0.59392   0.00000  Uiso   1.00
H822   H     0.96518   0.56196   0.90795   0.00000  Uiso   1.00
H823   H     0.99594   0.57932   0.99459   0.00000  Uiso   1.00
H824   H     0.67213   0.41459   0.50772   0.00000  Uiso   1.00
C825   C     0.69387   0.65325   0.76538   0.00000  Uiso   1.00
C826   C     0.98261   0.34956   0.77279   0.00000  Uiso   1.00
N827   N     0.81362   0.48550   0.73739   0.00000  Uiso   1.00
N828   N     0.85305   0.51450   0.76260   0.00000  Uiso   1.00
H829   H     0.82892   0.45784   0.71380   0.00000  Uiso   1.00
H830   H     0.83775   0.54213   0.78624   0.00000  Uiso   1.00
O831   O     0.80291   0.51424   0.60734   0.00000  Uiso   1.00
H832   H     0.81852   0.48010   0.61336   0.00000  Uiso   1.00
O833   O     0.85613   0.47000   0.89291   0.00000  Uiso   1.00
H834   H     0.88740   0.45338   0.87657   0.00000  Uiso   1.00
N835   N     0.75213   0.34162   0.76607   0.00000  Uiso   1.00
O836   O     0.77393   0.37082   0.80383   0.00000  Uiso   1.00
O837   O     0.78331   0.66515   0.72937   0.00000  Uiso   1.00
N838   N     0.93331   0.66365   0.79749   0.00000  Uiso   1.00
O839   O     0.88370   0.34725   0.78751   0.00000  Uiso   1.00
O840   O     0.93965   0.63532   0.83498   0.00000  Uiso   1.00
O841   O     0.29719   0.91298   0.75309   0.00000  Uiso   1.00
O842   O     0.03614   0.75369   0.74691   0.00000  Uiso   1.00
O843   O     0.05822   0.90368   0.74502   0.00000  Uiso   1.00
O844   O     0.27512   0.76298   0.75498   0.00000  Uiso   1.00
C845   C     0.01602   0.93164   0.75396   0.00000  Uiso   1.00
C846   C     0.31960   0.73570   0.75703   0.00000  Uiso   1.00
O847   O     0.30328   0.84063   0.82247   0.00000  Uiso   1.00
O848   O     0.03005   0.82603   0.67753   0.00000  Uiso   1.00
O849   O     0.06431   0.83134   0.81439   0.00000  Uiso   1.00
O850   O     0.26902   0.83533   0.68561   0.00000  Uiso   1.00
C851   C     0.02097   0.83739   0.84099   0.00000  Uiso   1.00
C852   C     0.31227   0.82883   0.65899   0.00000  Uiso   1.00
Zn853  Zn    0.27033   0.83954   0.75539   0.00000  Uiso   1.00
Zn854  Zn    0.06300   0.82713   0.74461   0.00000  Uiso   1.00
C855   C     0.03173   0.84354   0.89334   0.00000  Uiso   1.00
C856   C     0.30103   0.81986   0.60678   0.00000  Uiso   1.00
C857   C     0.02042   0.88827   0.97135   0.00000  Uiso   1.00
C858   C     0.31333   0.77211   0.53023   0.00000  Uiso   1.00
C859   C     0.00199   0.87734   0.92265   0.00000  Uiso   1.00
C860   C     0.33174   0.78566   0.57863   0.00000  Uiso   1.00
C861   C     0.07823   0.82017   0.91268   0.00000  Uiso   1.00
C862   C     0.25276   0.83988   0.58677   0.00000  Uiso   1.00
C863   C     0.10272   0.83693   0.95858   0.00000  Uiso   1.00
C864   C     0.22848   0.81975   0.54174   0.00000  Uiso   1.00
C865   C     0.07071   0.86833   0.98948   0.00000  Uiso   1.00
C866   C     0.26188   0.78938   0.51151   0.00000  Uiso   1.00
C867   C     0.15703   0.82217   0.97500   0.00000  Uiso   1.00
C868   C     0.17321   0.83137   0.52542   0.00000  Uiso   1.00
C869   C     0.13368   0.85268   0.55765   0.00000  Uiso   1.00
C870   C     0.19643   0.80037   0.94290   0.00000  Uiso   1.00
C871   C     0.08686   0.87606   0.53872   0.00000  Uiso   1.00
C872   C     0.24552   0.77982   0.96245   0.00000  Uiso   1.00
H873   H     0.05962   0.89554   0.56348   0.00000  Uiso   1.00
H874   H     0.27363   0.76031   0.93851   0.00000  Uiso   1.00
H875   H     0.23365   0.87036   0.60770   0.00000  Uiso   1.00
H876   H     0.09447   0.78881   0.89086   0.00000  Uiso   1.00
H877   H     0.03613   0.76960   0.59392   0.00000  Uiso   1.00
H878   H     0.29851   0.89529   0.90795   0.00000  Uiso   1.00
H879   H     0.32928   0.91265   0.99459   0.00000  Uiso   1.00
H880   H     0.00547   0.74792   0.50772   0.00000  Uiso   1.00
C881   C     0.02720   0.98658   0.76538   0.00000  Uiso   1.00
C882   C     0.31594   0.68289   0.77279   0.00000  Uiso   1.00
N883   N     0.14695   0.81883   0.73739   0.00000  Uiso   1.00
N884   N     0.18638   0.84784   0.76260   0.00000  Uiso   1.00
H885   H     0.16225   0.79117   0.71380   0.00000  Uiso   1.00
H886   H     0.17109   0.87546   0.78624   0.00000  Uiso   1.00
O887   O     0.13624   0.84757   0.60734   0.00000  Uiso   1.00
H888   H     0.15186   0.81343   0.61336   0.00000  Uiso   1.00
O889   O     0.18946   0.80333   0.89291   0.00000  Uiso   1.00
H890   H     0.22073   0.78671   0.87657   0.00000  Uiso   1.00
N891   N     0.08546   0.67496   0.76607   0.00000  Uiso   1.00
O892   O     0.10726   0.70415   0.80383   0.00000  Uiso   1.00
O893   O     0.11665   0.99848   0.72937   0.00000  Uiso   1.00
N894   N     0.26664   0.99698   0.79749   0.00000  Uiso   1.00
O895   O     0.21704   0.68059   0.78751   0.00000  Uiso   1.00
O896   O     0.27299   0.96866   0.83498   0.00000  Uiso   1.00
O897   O     0.63052   0.91298   0.75309   0.00000  Uiso   1.00
O898   O     0.36948   0.75369   0.74691   0.00000  Uiso   1.00
O899   O     0.39155   0.90368   0.74502   0.00000  Uiso   1.00
O900   O     0.60845   0.76298   0.75498   0.00000  Uiso   1.00
C901   C     0.34936   0.93164   0.75396   0.00000  Uiso   1.00
C902   C     0.65293   0.73570   0.75703   0.00000  Uiso   1.00
O903   O     0.63662   0.84063   0.82247   0.00000  Uiso   1.00
O904   O     0.36338   0.82603   0.67753   0.00000  Uiso   1.00
O905   O     0.39764   0.83134   0.81439   0.00000  Uiso   1.00
O906   O     0.60236   0.83533   0.68561   0.00000  Uiso   1.00
C907   C     0.35430   0.83739   0.84099   0.00000  Uiso   1.00
C908   C     0.64561   0.82883   0.65899   0.00000  Uiso   1.00
Zn909  Zn    0.60366   0.83954   0.75539   0.00000  Uiso   1.00
Zn910  Zn    0.39634   0.82713   0.74461   0.00000  Uiso   1.00
C911   C     0.36506   0.84354   0.89334   0.00000  Uiso   1.00
C912   C     0.63437   0.81986   0.60678   0.00000  Uiso   1.00
C913   C     0.35375   0.88827   0.97135   0.00000  Uiso   1.00
C914   C     0.64667   0.77211   0.53023   0.00000  Uiso   1.00
C915   C     0.33533   0.87734   0.92265   0.00000  Uiso   1.00
C916   C     0.66507   0.78566   0.57863   0.00000  Uiso   1.00
C917   C     0.41156   0.82017   0.91268   0.00000  Uiso   1.00
C918   C     0.58610   0.83988   0.58677   0.00000  Uiso   1.00
C919   C     0.43606   0.83693   0.95858   0.00000  Uiso   1.00
C920   C     0.56182   0.81975   0.54174   0.00000  Uiso   1.00
C921   C     0.40404   0.86833   0.98948   0.00000  Uiso   1.00
C922   C     0.59521   0.78938   0.51151   0.00000  Uiso   1.00
C923   C     0.49036   0.82217   0.97500   0.00000  Uiso   1.00
C924   C     0.50655   0.83137   0.52542   0.00000  Uiso   1.00
C925   C     0.46701   0.85268   0.55765   0.00000  Uiso   1.00
C926   C     0.52976   0.80037   0.94290   0.00000  Uiso   1.00
C927   C     0.42020   0.87606   0.53872   0.00000  Uiso   1.00
C928   C     0.57885   0.77982   0.96245   0.00000  Uiso   1.00
H929   H     0.39295   0.89554   0.56348   0.00000  Uiso   1.00
H930   H     0.60696   0.76031   0.93851   0.00000  Uiso   1.00
H931   H     0.56698   0.87036   0.60770   0.00000  Uiso   1.00
H932   H     0.42780   0.78881   0.89086   0.00000  Uiso   1.00
H933   H     0.36947   0.76960   0.59392   0.00000  Uiso   1.00
H934   H     0.63184   0.89529   0.90795   0.00000  Uiso   1.00
H935   H     0.66261   0.91265   0.99459   0.00000  Uiso   1.00
H936   H     0.33880   0.74792   0.50772   0.00000  Uiso   1.00
C937   C     0.36053   0.98658   0.76538   0.00000  Uiso   1.00
C938   C     0.64927   0.68289   0.77279   0.00000  Uiso   1.00
N939   N     0.48029   0.81883   0.73739   0.00000  Uiso   1.00
N940   N     0.51971   0.84784   0.76260   0.00000  Uiso   1.00
H941   H     0.49558   0.79117   0.71380   0.00000  Uiso   1.00
H942   H     0.50442   0.87546   0.78624   0.00000  Uiso   1.00
O943   O     0.46958   0.84757   0.60734   0.00000  Uiso   1.00
H944   H     0.48519   0.81343   0.61336   0.00000  Uiso   1.00
O945   O     0.52279   0.80333   0.89291   0.00000  Uiso   1.00
H946   H     0.55407   0.78671   0.87657   0.00000  Uiso   1.00
N947   N     0.41880   0.67496   0.76607   0.00000  Uiso   1.00
O948   O     0.44060   0.70415   0.80383   0.00000  Uiso   1.00
O949   O     0.44998   0.99848   0.72937   0.00000  Uiso   1.00
N950   N     0.59997   0.99698   0.79749   0.00000  Uiso   1.00
O951   O     0.55037   0.68059   0.78751   0.00000  Uiso   1.00
O952   O     0.60632   0.96866   0.83498   0.00000  Uiso   1.00
O953   O     0.96386   0.91298   0.75309   0.00000  Uiso   1.00
O954   O     0.70281   0.75369   0.74691   0.00000  Uiso   1.00
O955   O     0.72488   0.90368   0.74502   0.00000  Uiso   1.00
O956   O     0.94178   0.76298   0.75498   0.00000  Uiso   1.00
C957   C     0.68269   0.93164   0.75396   0.00000  Uiso   1.00
C958   C     0.98627   0.73570   0.75703   0.00000  Uiso   1.00
O959   O     0.96995   0.84063   0.82247   0.00000  Uiso   1.00
O960   O     0.69672   0.82603   0.67753   0.00000  Uiso   1.00
O961   O     0.73098   0.83134   0.81439   0.00000  Uiso   1.00
O962   O     0.93569   0.83533   0.68561   0.00000  Uiso   1.00
C963   C     0.68764   0.83739   0.84099   0.00000  Uiso   1.00
C964   C     0.97894   0.82883   0.65899   0.00000  Uiso   1.00
Zn965  Zn    0.93700   0.83954   0.75539   0.00000  Uiso   1.00
Zn966  Zn    0.72967   0.82713   0.74461   0.00000  Uiso   1.00
C967   C     0.69840   0.84354   0.89334   0.00000  Uiso   1.00
C968   C     0.96770   0.81986   0.60678   0.00000  Uiso   1.00
C969   C     0.68708   0.88827   0.97135   0.00000  Uiso   1.00
C970   C     0.98000   0.77211   0.53023   0.00000  Uiso   1.00
C971   C     0.66866   0.87734   0.92265   0.00000  Uiso   1.00
C972   C     0.99840   0.78566   0.57863   0.00000  Uiso   1.00
C973   C     0.74490   0.82017   0.91268   0.00000  Uiso   1.00
C974   C     0.91943   0.83988   0.58677   0.00000  Uiso   1.00
C975   C     0.76939   0.83693   0.95858   0.00000  Uiso   1.00
C976   C     0.89515   0.81975   0.54174   0.00000  Uiso   1.00
C977   C     0.73738   0.86833   0.98948   0.00000  Uiso   1.00
C978   C     0.92854   0.78938   0.51151   0.00000  Uiso   1.00
C979   C     0.82369   0.82217   0.97500   0.00000  Uiso   1.00
C980   C     0.83988   0.83137   0.52542   0.00000  Uiso   1.00
C981   C     0.80034   0.85268   0.55765   0.00000  Uiso   1.00
C982   C     0.86310   0.80037   0.94290   0.00000  Uiso   1.00
C983   C     0.75353   0.87606   0.53872   0.00000  Uiso   1.00
C984   C     0.91218   0.77982   0.96245   0.00000  Uiso   1.00
H985   H     0.72629   0.89554   0.56348   0.00000  Uiso   1.00
H986   H     0.94029   0.76031   0.93851   0.00000  Uiso   1.00
H987   H     0.90031   0.87036   0.60770   0.00000  Uiso   1.00
H988   H     0.76113   0.78881   0.89086   0.00000  Uiso   1.00
H989   H     0.70280   0.76960   0.59392   0.00000  Uiso   1.00
H990   H     0.96518   0.89529   0.90795   0.00000  Uiso   1.00
H991   H     0.99594   0.91265   0.99459   0.00000  Uiso   1.00
H992   H     0.67213   0.74792   0.50772   0.00000  Uiso   1.00
C993   C     0.69387   0.98658   0.76538   0.00000  Uiso   1.00
C994   C     0.98261   0.68289   0.77279   0.00000  Uiso   1.00
N995   N     0.81362   0.81883   0.73739   0.00000  Uiso   1.00
N996   N     0.85305   0.84784   0.76260   0.00000  Uiso   1.00
H997   H     0.82892   0.79117   0.71380   0.00000  Uiso   1.00
H998   H     0.83775   0.87546   0.78624   0.00000  Uiso   1.00
O999   O     0.80291   0.84757   0.60734   0.00000  Uiso   1.00
H1000  H     0.81852   0.81343   0.61336   0.00000  Uiso   1.00
O1001  O     0.85613   0.80333   0.89291   0.00000  Uiso   1.00
H1002  H     0.88740   0.78671   0.87657   0.00000  Uiso   1.00
N1003  N     0.75213   0.67496   0.76607   0.00000  Uiso   1.00
O1004  O     0.77393   0.70415   0.80383   0.00000  Uiso   1.00
O1005  O     0.78331   0.99848   0.72937   0.00000  Uiso   1.00
N1006  N     0.93331   0.99698   0.79749   0.00000  Uiso   1.00
O1007  O     0.88370   0.68059   0.78751   0.00000  Uiso   1.00
O1008  O     0.93965   0.96866   0.83498   0.00000  Uiso   1.00
loop_
_geom_bond_atom_site_label_1
_geom_bond_atom_site_label_2
_geom_bond_distance
_geom_bond_site_symmetry_2
_ccdc_geom_bond_type
O1     Zn13    1.940   .     S
O1     C61     1.282   .     S
O2     Zn14    1.940   .     S
O2     C118    1.278   1_455 S
O3     Zn14    1.968   .     S
O3     C5      1.293   .     A
O4     C6      1.303   .     A
O4     Zn13    1.968   .     S
C5     C41     1.423   .     S
C5     O113    1.282   1_455 S
C6     C42     1.439   .     S
C6     O58     1.278   .     S
O7     Zn13    1.962   .     S
O7     C67     1.292   .     S
O8     Zn14    1.962   .     S
O8     C124    1.292   1_455 S
O9     Zn14    1.914   .     S
O9     C11     1.299   .     A
O10    C12     1.299   .     A
O10    Zn13    1.914   .     S
C11    C15     1.446   .     S
C11    O119    1.292   1_455 S
C12    C16     1.448   .     S
C12    O64     1.292   .     S
Zn13   N44     2.023   .     S
Zn14   N43     2.023   .     S
C15    C21     1.384   .     A
C15    C19     1.398   .     A
C16    C20     1.400   .     A
C16    C22     1.384   .     A
C17    C25     1.405   .     A
C17    C19     1.392   .     A
C17    H151    1.084   1_455 S
C18    C26     1.405   .     A
C18    C20     1.394   .     A
C18    H96     1.084   .     S
C19    H150    1.083   1_455 S
C20    H93     1.083   .     S
C21    H36     1.078   .     S
C21    C23     1.391   .     A
C22    H35     1.081   .     S
C22    C24     1.391   .     A
C23    C27     1.420   .     A
C23    C25     1.418   .     A
C24    C26     1.413   .     A
C24    C28     1.414   .     A
C25    C535    1.386   .     S
C26    C536    1.386   1_554 S
C27    C30     1.434   .     A
C27    C532    1.420   .     S
C28    C29     1.433   .     A
C28    C531    1.420   1_554 S
C29    C31     1.386   .     A
C29    O47     1.379   .     S
C30    C32     1.401   .     A
C30    O49     1.383   .     S
C31    H33     1.085   .     S
C31    C529    1.386   1_554 S
C32    H34     1.085   .     S
C32    C530    1.386   .     S
H37    C132    1.083   1_455 S
H38    C75     1.083   .     S
H39    C73     1.084   .     S
H40    C130    1.084   1_455 S
C41    C322    1.358   1_455 S
C41    N219    1.439   .     S
C42    C433    1.358   1_545 S
C42    N390    1.443   1_545 S
N43    H45     1.029   .     S
N43    N44     1.289   .     D
N44    H46     1.029   .     S
O47    H48     0.992   .     S
O49    H50     0.992   .     S
N51    O52     1.302   .     A
N51    C377    1.439   1_545 S
N51    O389    1.302   1_545 S
O53    N219    1.302   .     S
N54    O56     1.302   .     A
N54    C210    1.443   .     S
N54    O223    1.299   .     S
O55    N390    1.299   1_545 S
O57    Zn69    1.940   .     S
O57    C117    1.282   .     S
O58    Zn70    1.940   .     S
O59    Zn70    1.968   .     S
O59    C61     1.293   .     A
O60    C62     1.303   .     A
O60    Zn69    1.968   .     S
C61    C97     1.423   .     S
C62    C98     1.439   .     S
C62    O114    1.278   .     S
O63    Zn69    1.962   .     S
O63    C123    1.292   .     S
O64    Zn70    1.962   .     S
O65    Zn70    1.914   .     S
O65    C67     1.299   .     A
O66    C68     1.299   .     A
O66    Zn69    1.914   .     S
C67    C71     1.446   .     S
C68    C72     1.448   .     S
C68    O120    1.292   .     S
Zn69   N100    2.023   .     S
Zn70   N99     2.023   .     S
C71    C77     1.384   .     A
C71    C75     1.398   .     A
C72    C76     1.400   .     A
C72    C78     1.384   .     A
C73    C81     1.405   .     A
C73    C75     1.392   .     A
C74    C82     1.405   .     A
C74    C76     1.394   .     A
C74    H152    1.084   .     S
C76    H149    1.083   .     S
C77    H92     1.078   .     S
C77    C79     1.391   .     A
C78    H91     1.081   .     S
C78    C80     1.391   .     A
C79    C83     1.420   .     A
C79    C81     1.418   .     A
C80    C82     1.413   .     A
C80    C84     1.414   .     A
C81    C591    1.386   .     S
C82    C592    1.386   1_554 S
C83    C86     1.434   .     A
C83    C588    1.420   .     S
C84    C85     1.433   .     A
C84    C587    1.420   1_554 S
C85    C87     1.386   .     A
C85    O103    1.379   .     S
C86    C88     1.401   .     A
C86    O105    1.383   .     S
C87    H89     1.085   .     S
C87    C585    1.386   1_554 S
C88    H90     1.085   .     S
C88    C586    1.386   .     S
H94    C131    1.083   .     S
H95    C129    1.084   .     S
C97    C210    1.358   .     S
C97    N275    1.439   .     S
C98    C489    1.358   1_545 S
C98    N446    1.443   1_545 S
N99    H101    1.029   .     S
N99    N100    1.289   .     D
N100   H102    1.029   .     S
O103   H104    0.992   .     S
O105   H106    0.992   .     S
N107   O108    1.302   .     A
N107   C433    1.439   1_545 S
N107   O445    1.302   1_545 S
O109   N275    1.302   .     S
N110   O112    1.302   .     A
N110   C266    1.443   .     S
N110   O279    1.299   .     S
O111   N446    1.299   1_545 S
O113   Zn125   1.940   .     S
O113   C5      1.282   1_655 S
O114   Zn126   1.940   .     S
O115   Zn126   1.968   .     S
O115   C117    1.293   .     A
O116   C118    1.303   .     A
O116   Zn125   1.968   .     S
C117   C153    1.423   .     S
C118   C154    1.439   .     S
C118   O2      1.278   1_655 S
O119   Zn125   1.962   .     S
O119   C11     1.292   1_655 S
O120   Zn126   1.962   .     S
O121   Zn126   1.914   .     S
O121   C123    1.299   .     A
O122   C124    1.299   .     A
O122   Zn125   1.914   .     S
C123   C127    1.446   .     S
C124   C128    1.448   .     S
C124   O8      1.292   1_655 S
Zn125  N156    2.023   .     S
Zn126  N155    2.023   .     S
C127   C133    1.384   .     A
C127   C131    1.398   .     A
C128   C132    1.400   .     A
C128   C134    1.384   .     A
C129   C137    1.405   .     A
C129   C131    1.392   .     A
C130   C138    1.405   .     A
C130   C132    1.394   .     A
C130   H40     1.084   1_655 S
C132   H37     1.083   1_655 S
C133   H148    1.078   .     S
C133   C135    1.391   .     A
C134   H147    1.081   .     S
C134   C136    1.391   .     A
C135   C139    1.420   .     A
C135   C137    1.418   .     A
C136   C138    1.413   .     A
C136   C140    1.414   .     A
C137   C647    1.386   .     S
C138   C648    1.386   1_554 S
C139   C142    1.434   .     A
C139   C644    1.420   .     S
C140   C141    1.433   .     A
C140   C643    1.420   1_554 S
C141   C143    1.386   .     A
C141   O159    1.379   .     S
C142   C144    1.401   .     A
C142   O161    1.383   .     S
C143   H145    1.085   .     S
C143   C641    1.386   1_554 S
C144   H146    1.085   .     S
C144   C642    1.386   .     S
H150   C19     1.083   1_655 S
H151   C17     1.084   1_655 S
C153   C266    1.358   .     S
C153   N331    1.439   .     S
C154   C377    1.358   1_645 S
C154   N502    1.443   1_545 S
N155   H157    1.029   .     S
N155   N156    1.289   .     D
N156   H158    1.029   .     S
O159   H160    0.992   .     S
O161   H162    0.992   .     S
N163   O164    1.302   .     A
N163   C489    1.439   1_545 S
N163   O501    1.302   1_545 S
O165   N331    1.302   .     S
N166   O168    1.302   .     A
N166   C322    1.443   .     S
N166   O335    1.299   .     S
O167   N502    1.299   1_545 S
O169   Zn181   1.940   .     S
O169   C229    1.282   .     S
O170   Zn182   1.940   .     S
O170   C286    1.278   1_455 S
O171   Zn182   1.968   .     S
O171   C173    1.293   .     A
O172   C174    1.303   .     A
O172   Zn181   1.968   .     S
C173   C209    1.423   .     S
C173   O281    1.282   1_455 S
C174   C210    1.439   .     S
C174   O226    1.278   .     S
O175   Zn181   1.962   .     S
O175   C235    1.292   .     S
O176   Zn182   1.962   .     S
O176   C292    1.292   1_455 S
O177   Zn182   1.914   .     S
O177   C179    1.299   .     A
O178   C180    1.299   .     A
O178   Zn181   1.914   .     S
C179   C183    1.446   .     S
C179   O287    1.292   1_455 S
C180   C184    1.448   .     S
C180   O232    1.292   .     S
Zn181  N212    2.023   .     S
Zn182  N211    2.023   .     S
C183   C189    1.384   .     A
C183   C187    1.398   .     A
C184   C188    1.400   .     A
C184   C190    1.384   .     A
C185   C193    1.405   .     A
C185   C187    1.392   .     A
C185   H319    1.084   1_455 S
C186   C194    1.405   .     A
C186   C188    1.394   .     A
C186   H264    1.084   .     S
C187   H318    1.083   1_455 S
C188   H261    1.083   .     S
C189   H204    1.078   .     S
C189   C191    1.391   .     A
C190   H203    1.081   .     S
C190   C192    1.391   .     A
C191   C195    1.420   .     A
C191   C193    1.418   .     A
C192   C194    1.413   .     A
C192   C196    1.414   .     A
C193   C703    1.386   .     S
C194   C704    1.386   1_554 S
C195   C198    1.434   .     A
C195   C700    1.420   .     S
C196   C197    1.433   .     A
C196   C699    1.420   1_554 S
C197   C199    1.386   .     A
C197   O215    1.379   .     S
C198   C200    1.401   .     A
C198   O217    1.383   .     S
C199   H201    1.085   .     S
C199   C697    1.386   1_554 S
C200   H202    1.085   .     S
C200   C698    1.386   .     S
H205   C300    1.083   1_455 S
H206   C243    1.083   .     S
H207   C241    1.084   .     S
H208   C298    1.084   1_455 S
C209   C490    1.358   1_455 S
C209   N387    1.439   .     S
N211   H213    1.029   .     S
N211   N212    1.289   .     D
N212   H214    1.029   .     S
O215   H216    0.992   .     S
O217   H218    0.992   .     S
N219   O220    1.302   .     A
O221   N387    1.302   .     S
N222   O224    1.302   .     A
N222   C378    1.443   .     S
N222   O391    1.299   .     S
O225   Zn237   1.940   .     S
O225   C285    1.282   .     S
O226   Zn238   1.940   .     S
O227   Zn238   1.968   .     S
O227   C229    1.293   .     A
O228   C230    1.303   .     A
O228   Zn237   1.968   .     S
C229   C265    1.423   .     S
C230   C266    1.439   .     S
C230   O282    1.278   .     S
O231   Zn237   1.962   .     S
O231   C291    1.292   .     S
O232   Zn238   1.962   .     S
O233   Zn238   1.914   .     S
O233   C235    1.299   .     A
O234   C236    1.299   .     A
O234   Zn237   1.914   .     S
C235   C239    1.446   .     S
C236   C240    1.448   .     S
C236   O288    1.292   .     S
Zn237  N268    2.023   .     S
Zn238  N267    2.023   .     S
C239   C245    1.384   .     A
C239   C243    1.398   .     A
C240   C244    1.400   .     A
C240   C246    1.384   .     A
C241   C249    1.405   .     A
C241   C243    1.392   .     A
C242   C250    1.405   .     A
C242   C244    1.394   .     A
C242   H320    1.084   .     S
C244   H317    1.083   .     S
C245   H260    1.078   .     S
C245   C247    1.391   .     A
C246   H259    1.081   .     S
C246   C248    1.391   .     A
C247   C251    1.420   .     A
C247   C249    1.418   .     A
C248   C250    1.413   .     A
C248   C252    1.414   .     A
C249   C759    1.386   .     S
C250   C760    1.386   1_554 S
C251   C254    1.434   .     A
C251   C756    1.420   .     S
C252   C253    1.433   .     A
C252   C755    1.420   1_554 S
C253   C255    1.386   .     A
C253   O271    1.379   .     S
C254   C256    1.401   .     A
C254   O273    1.383   .     S
C255   H257    1.085   .     S
C255   C753    1.386   1_554 S
C256   H258    1.085   .     S
C256   C754    1.386   .     S
H262   C299    1.083   .     S
H263   C297    1.084   .     S
C265   C378    1.358   .     S
C265   N443    1.439   .     S
N267   H269    1.029   .     S
N267   N268    1.289   .     D
N268   H270    1.029   .     S
O271   H272    0.992   .     S
O273   H274    0.992   .     S
N275   O276    1.302   .     A
O277   N443    1.302   .     S
N278   O280    1.302   .     A
N278   C434    1.443   .     S
N278   O447    1.299   .     S
O281   Zn293   1.940   .     S
O281   C173    1.282   1_655 S
O282   Zn294   1.940   .     S
O283   Zn294   1.968   .     S
O283   C285    1.293   .     A
O284   C286    1.303   .     A
O284   Zn293   1.968   .     S
C285   C321    1.423   .     S
C286   C322    1.439   .     S
C286   O170    1.278   1_655 S
O287   Zn293   1.962   .     S
O287   C179    1.292   1_655 S
O288   Zn294   1.962   .     S
O289   Zn294   1.914   .     S
O289   C291    1.299   .     A
O290   C292    1.299   .     A
O290   Zn293   1.914   .     S
C291   C295    1.446   .     S
C292   C296    1.448   .     S
C292   O176    1.292   1_655 S
Zn293  N324    2.023   .     S
Zn294  N323    2.023   .     S
C295   C301    1.384   .     A
C295   C299    1.398   .     A
C296   C300    1.400   .     A
C296   C302    1.384   .     A
C297   C305    1.405   .     A
C297   C299    1.392   .     A
C298   C306    1.405   .     A
C298   C300    1.394   .     A
C298   H208    1.084   1_655 S
C300   H205    1.083   1_655 S
C301   H316    1.078   .     S
C301   C303    1.391   .     A
C302   H315    1.081   .     S
C302   C304    1.391   .     A
C303   C307    1.420   .     A
C303   C305    1.418   .     A
C304   C306    1.413   .     A
C304   C308    1.414   .     A
C305   C815    1.386   .     S
C306   C816    1.386   1_554 S
C307   C310    1.434   .     A
C307   C812    1.420   .     S
C308   C309    1.433   .     A
C308   C811    1.420   1_554 S
C309   C311    1.386   .     A
C309   O327    1.379   .     S
C310   C312    1.401   .     A
C310   O329    1.383   .     S
C311   H313    1.085   .     S
C311   C809    1.386   1_554 S
C312   H314    1.085   .     S
C312   C810    1.386   .     S
H318   C187    1.083   1_655 S
H319   C185    1.084   1_655 S
C321   C434    1.358   .     S
C321   N499    1.439   .     S
C322   C41     1.358   1_655 S
N323   H325    1.029   .     S
N323   N324    1.289   .     D
N324   H326    1.029   .     S
O327   H328    0.992   .     S
O329   H330    0.992   .     S
N331   O332    1.302   .     A
O333   N499    1.302   .     S
N334   O336    1.302   .     A
N334   C490    1.443   .     S
N334   O503    1.299   .     S
O337   Zn349   1.940   .     S
O337   C397    1.282   .     S
O338   Zn350   1.940   .     S
O338   C454    1.278   1_455 S
O339   Zn350   1.968   .     S
O339   C341    1.293   .     A
O340   C342    1.303   .     A
O340   Zn349   1.968   .     S
C341   C377    1.423   .     S
C341   O449    1.282   1_455 S
C342   C378    1.439   .     S
C342   O394    1.278   .     S
O343   Zn349   1.962   .     S
O343   C403    1.292   .     S
O344   Zn350   1.962   .     S
O344   C460    1.292   1_455 S
O345   Zn350   1.914   .     S
O345   C347    1.299   .     A
O346   C348    1.299   .     A
O346   Zn349   1.914   .     S
C347   C351    1.446   .     S
C347   O455    1.292   1_455 S
C348   C352    1.448   .     S
C348   O400    1.292   .     S
Zn349  N380    2.023   .     S
Zn350  N379    2.023   .     S
C351   C357    1.384   .     A
C351   C355    1.398   .     A
C352   C356    1.400   .     A
C352   C358    1.384   .     A
C353   C361    1.405   .     A
C353   C355    1.392   .     A
C353   H487    1.084   1_455 S
C354   C362    1.405   .     A
C354   C356    1.394   .     A
C354   H432    1.084   .     S
C355   H486    1.083   1_455 S
C356   H429    1.083   .     S
C357   H372    1.078   .     S
C357   C359    1.391   .     A
C358   H371    1.081   .     S
C358   C360    1.391   .     A
C359   C363    1.420   .     A
C359   C361    1.418   .     A
C360   C362    1.413   .     A
C360   C364    1.414   .     A
C361   C871    1.386   .     S
C362   C872    1.386   1_554 S
C363   C366    1.434   .     A
C363   C868    1.420   .     S
C364   C365    1.433   .     A
C364   C867    1.420   1_554 S
C365   C367    1.386   .     A
C365   O383    1.379   .     S
C366   C368    1.401   .     A
C366   O385    1.383   .     S
C367   H369    1.085   .     S
C367   C865    1.386   1_554 S
C368   H370    1.085   .     S
C368   C866    1.386   .     S
H373   C468    1.083   1_455 S
H374   C411    1.083   .     S
H375   C409    1.084   .     S
H376   C466    1.084   1_455 S
C377   C154    1.358   1_465 S
C377   N51     1.439   1_565 S
N379   H381    1.029   .     S
N379   N380    1.289   .     D
N380   H382    1.029   .     S
O383   H384    0.992   .     S
O385   H386    0.992   .     S
N387   O388    1.302   .     A
O389   N51     1.302   1_565 S
N390   O392    1.302   .     A
N390   C42     1.443   1_565 S
N390   O55     1.299   1_565 S
O393   Zn405   1.940   .     S
O393   C453    1.282   .     S
O394   Zn406   1.940   .     S
O395   Zn406   1.968   .     S
O395   C397    1.293   .     A
O396   C398    1.303   .     A
O396   Zn405   1.968   .     S
C397   C433    1.423   .     S
C398   C434    1.439   .     S
C398   O450    1.278   .     S
O399   Zn405   1.962   .     S
O399   C459    1.292   .     S
O400   Zn406   1.962   .     S
O401   Zn406   1.914   .     S
O401   C403    1.299   .     A
O402   C404    1.299   .     A
O402   Zn405   1.914   .     S
C403   C407    1.446   .     S
C404   C408    1.448   .     S
C404   O456    1.292   .     S
Zn405  N436    2.023   .     S
Zn406  N435    2.023   .     S
C407   C413    1.384   .     A
C407   C411    1.398   .     A
C408   C412    1.400   .     A
C408   C414    1.384   .     A
C409   C417    1.405   .     A
C409   C411    1.392   .     A
C410   C418    1.405   .     A
C410   C412    1.394   .     A
C410   H488    1.084   .     S
C412   H485    1.083   .     S
C413   H428    1.078   .     S
C413   C415    1.391   .     A
C414   H427    1.081   .     S
C414   C416    1.391   .     A
C415   C419    1.420   .     A
C415   C417    1.418   .     A
C416   C418    1.413   .     A
C416   C420    1.414   .     A
C417   C927    1.386   .     S
C418   C928    1.386   1_554 S
C419   C422    1.434   .     A
C419   C924    1.420   .     S
C420   C421    1.433   .     A
C420   C923    1.420   1_554 S
C421   C423    1.386   .     A
C421   O439    1.379   .     S
C422   C424    1.401   .     A
C422   O441    1.383   .     S
C423   H425    1.085   .     S
C423   C921    1.386   1_554 S
C424   H426    1.085   .     S
C424   C922    1.386   .     S
H430   C467    1.083   .     S
H431   C465    1.084   .     S
C433   C42     1.358   1_565 S
C433   N107    1.439   1_565 S
N435   H437    1.029   .     S
N435   N436    1.289   .     D
N436   H438    1.029   .     S
O439   H440    0.992   .     S
O441   H442    0.992   .     S
N443   O444    1.302   .     A
O445   N107    1.302   1_565 S
N446   O448    1.302   .     A
N446   C98     1.443   1_565 S
N446   O111    1.299   1_565 S
O449   Zn461   1.940   .     S
O449   C341    1.282   1_655 S
O450   Zn462   1.940   .     S
O451   Zn462   1.968   .     S
O451   C453    1.293   .     A
O452   C454    1.303   .     A
O452   Zn461   1.968   .     S
C453   C489    1.423   .     S
C454   C490    1.439   .     S
C454   O338    1.278   1_655 S
O455   Zn461   1.962   .     S
O455   C347    1.292   1_655 S
O456   Zn462   1.962   .     S
O457   Zn462   1.914   .     S
O457   C459    1.299   .     A
O458   C460    1.299   .     A
O458   Zn461   1.914   .     S
C459   C463    1.446   .     S
C460   C464    1.448   .     S
C460   O344    1.292   1_655 S
Zn461  N492    2.023   .     S
Zn462  N491    2.023   .     S
C463   C469    1.384   .     A
C463   C467    1.398   .     A
C464   C468    1.400   .     A
C464   C470    1.384   .     A
C465   C473    1.405   .     A
C465   C467    1.392   .     A
C466   C474    1.405   .     A
C466   C468    1.394   .     A
C466   H376    1.084   1_655 S
C468   H373    1.083   1_655 S
C469   H484    1.078   .     S
C469   C471    1.391   .     A
C470   H483    1.081   .     S
C470   C472    1.391   .     A
C471   C475    1.420   .     A
C471   C473    1.418   .     A
C472   C474    1.413   .     A
C472   C476    1.414   .     A
C473   C983    1.386   .     S
C474   C984    1.386   1_554 S
C475   C478    1.434   .     A
C475   C980    1.420   .     S
C476   C477    1.433   .     A
C476   C979    1.420   1_554 S
C477   C479    1.386   .     A
C477   O495    1.379   .     S
C478   C480    1.401   .     A
C478   O497    1.383   .     S
C479   H481    1.085   .     S
C479   C977    1.386   1_554 S
C480   H482    1.085   .     S
C480   C978    1.386   .     S
H486   C355    1.083   1_655 S
H487   C353    1.084   1_655 S
C489   C98     1.358   1_565 S
C489   N163    1.439   1_565 S
C490   C209    1.358   1_655 S
N491   H493    1.029   .     S
N491   N492    1.289   .     D
N492   H494    1.029   .     S
O495   H496    0.992   .     S
O497   H498    0.992   .     S
N499   O500    1.302   .     A
O501   N163    1.302   1_565 S
N502   O504    1.302   .     A
N502   C154    1.443   1_565 S
N502   O167    1.299   1_565 S
O505   Zn517   1.940   .     S
O505   C565    1.282   .     S
O506   Zn518   1.940   .     S
O506   C622    1.278   1_455 S
O507   Zn518   1.968   .     S
O507   C509    1.293   .     A
O508   C510    1.303   .     A
O508   Zn517   1.968   .     S
C509   C545    1.423   .     S
C509   O617    1.282   1_455 S
C510   C546    1.439   .     S
C510   O562    1.278   .     S
O511   Zn517   1.962   .     S
O511   C571    1.292   .     S
O512   Zn518   1.962   .     S
O512   C628    1.292   1_455 S
O513   Zn518   1.914   .     S
O513   C515    1.299   .     A
O514   C516    1.299   .     A
O514   Zn517   1.914   .     S
C515   C519    1.446   .     S
C515   O623    1.292   1_455 S
C516   C520    1.448   .     S
C516   O568    1.292   .     S
Zn517  N548    2.023   .     S
Zn518  N547    2.023   .     S
C519   C525    1.384   .     A
C519   C523    1.398   .     A
C520   C524    1.400   .     A
C520   C526    1.384   .     A
C521   C529    1.405   .     A
C521   C523    1.392   .     A
C521   H655    1.084   1_455 S
C522   C530    1.405   .     A
C522   C524    1.394   .     A
C522   H600    1.084   .     S
C523   H654    1.083   1_455 S
C524   H597    1.083   .     S
C525   H540    1.078   .     S
C525   C527    1.391   .     A
C526   H539    1.081   .     S
C526   C528    1.391   .     A
C527   C531    1.420   .     A
C527   C529    1.418   .     A
C528   C530    1.413   .     A
C528   C532    1.414   .     A
C529   C31     1.386   1_556 S
C531   C534    1.434   .     A
C531   C28     1.420   1_556 S
C532   C533    1.433   .     A
C533   C535    1.386   .     A
C533   O551    1.379   .     S
C534   C536    1.401   .     A
C534   O553    1.383   .     S
C535   H537    1.085   .     S
C536   H538    1.085   .     S
C536   C26     1.386   1_556 S
H541   C636    1.083   1_455 S
H542   C579    1.083   .     S
H543   C577    1.084   .     S
H544   C634    1.084   1_455 S
C545   C826    1.358   1_455 S
C545   N723    1.439   .     S
C546   C937    1.358   1_545 S
C546   N894    1.443   1_545 S
N547   H549    1.029   .     S
N547   N548    1.289   .     D
N548   H550    1.029   .     S
O551   H552    0.992   .     S
O553   H554    0.992   .     S
N555   O556    1.302   .     A
N555   C881    1.439   1_545 S
N555   O893    1.302   1_545 S
O557   N723    1.302   .     S
N558   O560    1.302   .     A
N558   C714    1.443   .     S
N558   O727    1.299   .     S
O559   N894    1.299   1_545 S
O561   Zn573   1.940   .     S
O561   C621    1.282   .     S
O562   Zn574   1.940   .     S
O563   Zn574   1.968   .     S
O563   C565    1.293   .     A
O564   C566    1.303   .     A
O564   Zn573   1.968   .     S
C565   C601    1.423   .     S
C566   C602    1.439   .     S
C566   O618    1.278   .     S
O567   Zn573   1.962   .     S
O567   C627    1.292   .     S
O568   Zn574   1.962   .     S
O569   Zn574   1.914   .     S
O569   C571    1.299   .     A
O570   C572    1.299   .     A
O570   Zn573   1.914   .     S
C571   C575    1.446   .     S
C572   C576    1.448   .     S
C572   O624    1.292   .     S
Zn573  N604    2.023   .     S
Zn574  N603    2.023   .     S
C575   C581    1.384   .     A
C575   C579    1.398   .     A
C576   C580    1.400   .     A
C576   C582    1.384   .     A
C577   C585    1.405   .     A
C577   C579    1.392   .     A
C578   C586    1.405   .     A
C578   C580    1.394   .     A
C578   H656    1.084   .     S
C580   H653    1.083   .     S
C581   H596    1.078   .     S
C581   C583    1.391   .     A
C582   H595    1.081   .     S
C582   C584    1.391   .     A
C583   C587    1.420   .     A
C583   C585    1.418   .     A
C584   C586    1.413   .     A
C584   C588    1.414   .     A
C585   C87     1.386   1_556 S
C587   C590    1.434   .     A
C587   C84     1.420   1_556 S
C588   C589    1.433   .     A
C589   C591    1.386   .     A
C589   O607    1.379   .     S
C590   C592    1.401   .     A
C590   O609    1.383   .     S
C591   H593    1.085   .     S
C592   H594    1.085   .     S
C592   C82     1.386   1_556 S
H598   C635    1.083   .     S
H599   C633    1.084   .     S
C601   C714    1.358   .     S
C601   N779    1.439   .     S
C602   C993    1.358   1_545 S
C602   N950    1.443   1_545 S
N603   H605    1.029   .     S
N603   N604    1.289   .     D
N604   H606    1.029   .     S
O607   H608    0.992   .     S
O609   H610    0.992   .     S
N611   O612    1.302   .     A
N611   C937    1.439   1_545 S
N611   O949    1.302   1_545 S
O613   N779    1.302   .     S
N614   O616    1.302   .     A
N614   C770    1.443   .     S
N614   O783    1.299   .     S
O615   N950    1.299   1_545 S
O617   Zn629   1.940   .     S
O617   C509    1.282   1_655 S
O618   Zn630   1.940   .     S
O619   Zn630   1.968   .     S
O619   C621    1.293   .     A
O620   C622    1.303   .     A
O620   Zn629   1.968   .     S
C621   C657    1.423   .     S
C622   C658    1.439   .     S
C622   O506    1.278   1_655 S
O623   Zn629   1.962   .     S
O623   C515    1.292   1_655 S
O624   Zn630   1.962   .     S
O625   Zn630   1.914   .     S
O625   C627    1.299   .     A
O626   C628    1.299   .     A
O626   Zn629   1.914   .     S
C627   C631    1.446   .     S
C628   C632    1.448   .     S
C628   O512    1.292   1_655 S
Zn629  N660    2.023   .     S
Zn630  N659    2.023   .     S
C631   C637    1.384   .     A
C631   C635    1.398   .     A
C632   C636    1.400   .     A
C632   C638    1.384   .     A
C633   C641    1.405   .     A
C633   C635    1.392   .     A
C634   C642    1.405   .     A
C634   C636    1.394   .     A
C634   H544    1.084   1_655 S
C636   H541    1.083   1_655 S
C637   H652    1.078   .     S
C637   C639    1.391   .     A
C638   H651    1.081   .     S
C638   C640    1.391   .     A
C639   C643    1.420   .     A
C639   C641    1.418   .     A
C640   C642    1.413   .     A
C640   C644    1.414   .     A
C641   C143    1.386   1_556 S
C643   C646    1.434   .     A
C643   C140    1.420   1_556 S
C644   C645    1.433   .     A
C645   C647    1.386   .     A
C645   O663    1.379   .     S
C646   C648    1.401   .     A
C646   O665    1.383   .     S
C647   H649    1.085   .     S
C648   H650    1.085   .     S
C648   C138    1.386   1_556 S
H654   C523    1.083   1_655 S
H655   C521    1.084   1_655 S
C657   C770    1.358   .     S
C657   N835    1.439   .     S
C658   C881    1.358   1_645 S
C658   N1006   1.443   1_545 S
N659   H661    1.029   .     S
N659   N660    1.289   .     D
N660   H662    1.029   .     S
O663   H664    0.992   .     S
O665   H666    0.992   .     S
N667   O668    1.302   .     A
N667   C993    1.439   1_545 S
N667   O1005   1.302   1_545 S
O669   N835    1.302   .     S
N670   O672    1.302   .     A
N670   C826    1.443   .     S
N670   O839    1.299   .     S
O671   N1006   1.299   1_545 S
O673   Zn685   1.940   .     S
O673   C733    1.282   .     S
O674   Zn686   1.940   .     S
O674   C790    1.278   1_455 S
O675   Zn686   1.968   .     S
O675   C677    1.293   .     A
O676   C678    1.303   .     A
O676   Zn685   1.968   .     S
C677   C713    1.423   .     S
C677   O785    1.282   1_455 S
C678   C714    1.439   .     S
C678   O730    1.278   .     S
O679   Zn685   1.962   .     S
O679   C739    1.292   .     S
O680   Zn686   1.962   .     S
O680   C796    1.292   1_455 S
O681   Zn686   1.914   .     S
O681   C683    1.299   .     A
O682   C684    1.299   .     A
O682   Zn685   1.914   .     S
C683   C687    1.446   .     S
C683   O791    1.292   1_455 S
C684   C688    1.448   .     S
C684   O736    1.292   .     S
Zn685  N716    2.023   .     S
Zn686  N715    2.023   .     S
C687   C693    1.384   .     A
C687   C691    1.398   .     A
C688   C692    1.400   .     A
C688   C694    1.384   .     A
C689   C697    1.405   .     A
C689   C691    1.392   .     A
C689   H823    1.084   1_455 S
C690   C698    1.405   .     A
C690   C692    1.394   .     A
C690   H768    1.084   .     S
C691   H822    1.083   1_455 S
C692   H765    1.083   .     S
C693   H708    1.078   .     S
C693   C695    1.391   .     A
C694   H707    1.081   .     S
C694   C696    1.391   .     A
C695   C699    1.420   .     A
C695   C697    1.418   .     A
C696   C698    1.413   .     A
C696   C700    1.414   .     A
C697   C199    1.386   1_556 S
C699   C702    1.434   .     A
C699   C196    1.420   1_556 S
C700   C701    1.433   .     A
C701   C703    1.386   .     A
C701   O719    1.379   .     S
C702   C704    1.401   .     A
C702   O721    1.383   .     S
C703   H705    1.085   .     S
C704   H706    1.085   .     S
C704   C194    1.386   1_556 S
H709   C804    1.083   1_455 S
H710   C747    1.083   .     S
H711   C745    1.084   .     S
H712   C802    1.084   1_455 S
C713   C994    1.358   1_455 S
C713   N891    1.439   .     S
N715   H717    1.029   .     S
N715   N716    1.289   .     D
N716   H718    1.029   .     S
O719   H720    0.992   .     S
O721   H722    0.992   .     S
N723   O724    1.302   .     A
O725   N891    1.302   .     S
N726   O728    1.302   .     A
N726   C882    1.443   .     S
N726   O895    1.299   .     S
O729   Zn741   1.940   .     S
O729   C789    1.282   .     S
O730   Zn742   1.940   .     S
O731   Zn742   1.968   .     S
O731   C733    1.293   .     A
O732   C734    1.303   .     A
O732   Zn741   1.968   .     S
C733   C769    1.423   .     S
C734   C770    1.439   .     S
C734   O786    1.278   .     S
O735   Zn741   1.962   .     S
O735   C795    1.292   .     S
O736   Zn742   1.962   .     S
O737   Zn742   1.914   .     S
O737   C739    1.299   .     A
O738   C740    1.299   .     A
O738   Zn741   1.914   .     S
C739   C743    1.446   .     S
C740   C744    1.448   .     S
C740   O792    1.292   .     S
Zn741  N772    2.023   .     S
Zn742  N771    2.023   .     S
C743   C749    1.384   .     A
C743   C747    1.398   .     A
C744   C748    1.400   .     A
C744   C750    1.384   .     A
C745   C753    1.405   .     A
C745   C747    1.392   .     A
C746   C754    1.405   .     A
C746   C748    1.394   .     A
C746   H824    1.084   .     S
C748   H821    1.083   .     S
C749   H764    1.078   .     S
C749   C751    1.391   .     A
C750   H763    1.081   .     S
C750   C752    1.391   .     A
C751   C755    1.420   .     A
C751   C753    1.418   .     A
C752   C754    1.413   .     A
C752   C756    1.414   .     A
C753   C255    1.386   1_556 S
C755   C758    1.434   .     A
C755   C252    1.420   1_556 S
C756   C757    1.433   .     A
C757   C759    1.386   .     A
C757   O775    1.379   .     S
C758   C760    1.401   .     A
C758   O777    1.383   .     S
C759   H761    1.085   .     S
C760   H762    1.085   .     S
C760   C250    1.386   1_556 S
H766   C803    1.083   .     S
H767   C801    1.084   .     S
C769   C882    1.358   .     S
C769   N947    1.439   .     S
N771   H773    1.029   .     S
N771   N772    1.289   .     D
N772   H774    1.029   .     S
O775   H776    0.992   .     S
O777   H778    0.992   .     S
N779   O780    1.302   .     A
O781   N947    1.302   .     S
N782   O784    1.302   .     A
N782   C938    1.443   .     S
N782   O951    1.299   .     S
O785   Zn797   1.940   .     S
O785   C677    1.282   1_655 S
O786   Zn798   1.940   .     S
O787   Zn798   1.968   .     S
O787   C789    1.293   .     A
O788   C790    1.303   .     A
O788   Zn797   1.968   .     S
C789   C825    1.423   .     S
C790   C826    1.439   .     S
C790   O674    1.278   1_655 S
O791   Zn797   1.962   .     S
O791   C683    1.292   1_655 S
O792   Zn798   1.962   .     S
O793   Zn798   1.914   .     S
O793   C795    1.299   .     A
O794   C796    1.299   .     A
O794   Zn797   1.914   .     S
C795   C799    1.446   .     S
C796   C800    1.448   .     S
C796   O680    1.292   1_655 S
Zn797  N828    2.023   .     S
Zn798  N827    2.023   .     S
C799   C805    1.384   .     A
C799   C803    1.398   .     A
C800   C804    1.400   .     A
C800   C806    1.384   .     A
C801   C809    1.405   .     A
C801   C803    1.392   .     A
C802   C810    1.405   .     A
C802   C804    1.394   .     A
C802   H712    1.084   1_655 S
C804   H709    1.083   1_655 S
C805   H820    1.078   .     S
C805   C807    1.391   .     A
C806   H819    1.081   .     S
C806   C808    1.391   .     A
C807   C811    1.420   .     A
C807   C809    1.418   .     A
C808   C810    1.413   .     A
C808   C812    1.414   .     A
C809   C311    1.386   1_556 S
C811   C814    1.434   .     A
C811   C308    1.420   1_556 S
C812   C813    1.433   .     A
C813   C815    1.386   .     A
C813   O831    1.379   .     S
C814   C816    1.401   .     A
C814   O833    1.383   .     S
C815   H817    1.085   .     S
C816   H818    1.085   .     S
C816   C306    1.386   1_556 S
H822   C691    1.083   1_655 S
H823   C689    1.084   1_655 S
C825   C938    1.358   .     S
C825   N1003   1.439   .     S
C826   C545    1.358   1_655 S
N827   H829    1.029   .     S
N827   N828    1.289   .     D
N828   H830    1.029   .     S
O831   H832    0.992   .     S
O833   H834    0.992   .     S
N835   O836    1.302   .     A
O837   N1003   1.302   .     S
N838   O840    1.302   .     A
N838   C994    1.443   .     S
N838   O1007   1.299   .     S
O841   Zn853   1.940   .     S
O841   C901    1.282   .     S
O842   Zn854   1.940   .     S
O842   C958    1.278   1_455 S
O843   Zn854   1.968   .     S
O843   C845    1.293   .     A
O844   C846    1.303   .     A
O844   Zn853   1.968   .     S
C845   C881    1.423   .     S
C845   O953    1.282   1_455 S
C846   C882    1.439   .     S
C846   O898    1.278   .     S
O847   Zn853   1.962   .     S
O847   C907    1.292   .     S
O848   Zn854   1.962   .     S
O848   C964    1.292   1_455 S
O849   Zn854   1.914   .     S
O849   C851    1.299   .     A
O850   C852    1.299   .     A
O850   Zn853   1.914   .     S
C851   C855    1.446   .     S
C851   O959    1.292   1_455 S
C852   C856    1.448   .     S
C852   O904    1.292   .     S
Zn853  N884    2.023   .     S
Zn854  N883    2.023   .     S
C855   C861    1.384   .     A
C855   C859    1.398   .     A
C856   C860    1.400   .     A
C856   C862    1.384   .     A
C857   C865    1.405   .     A
C857   C859    1.392   .     A
C857   H991    1.084   1_455 S
C858   C866    1.405   .     A
C858   C860    1.394   .     A
C858   H936    1.084   .     S
C859   H990    1.083   1_455 S
C860   H933    1.083   .     S
C861   H876    1.078   .     S
C861   C863    1.391   .     A
C862   H875    1.081   .     S
C862   C864    1.391   .     A
C863   C867    1.420   .     A
C863   C865    1.418   .     A
C864   C866    1.413   .     A
C864   C868    1.414   .     A
C865   C367    1.386   1_556 S
C867   C870    1.434   .     A
C867   C364    1.420   1_556 S
C868   C869    1.433   .     A
C869   C871    1.386   .     A
C869   O887    1.379   .     S
C870   C872    1.401   .     A
C870   O889    1.383   .     S
C871   H873    1.085   .     S
C872   H874    1.085   .     S
C872   C362    1.386   1_556 S
H877   C972    1.083   1_455 S
H878   C915    1.083   .     S
H879   C913    1.084   .     S
H880   C970    1.084   1_455 S
C881   C658    1.358   1_465 S
C881   N555    1.439   1_565 S
N883   H885    1.029   .     S
N883   N884    1.289   .     D
N884   H886    1.029   .     S
O887   H888    0.992   .     S
O889   H890    0.992   .     S
N891   O892    1.302   .     A
O893   N555    1.302   1_565 S
N894   O896    1.302   .     A
N894   C546    1.443   1_565 S
N894   O559    1.299   1_565 S
O897   Zn909   1.940   .     S
O897   C957    1.282   .     S
O898   Zn910   1.940   .     S
O899   Zn910   1.968   .     S
O899   C901    1.293   .     A
O900   C902    1.303   .     A
O900   Zn909   1.968   .     S
C901   C937    1.423   .     S
C902   C938    1.439   .     S
C902   O954    1.278   .     S
O903   Zn909   1.962   .     S
O903   C963    1.292   .     S
O904   Zn910   1.962   .     S
O905   Zn910   1.914   .     S
O905   C907    1.299   .     A
O906   C908    1.299   .     A
O906   Zn909   1.914   .     S
C907   C911    1.446   .     S
C908   C912    1.448   .     S
C908   O960    1.292   .     S
Zn909  N940    2.023   .     S
Zn910  N939    2.023   .     S
C911   C917    1.384   .     A
C911   C915    1.398   .     A
C912   C916    1.400   .     A
C912   C918    1.384   .     A
C913   C921    1.405   .     A
C913   C915    1.392   .     A
C914   C922    1.405   .     A
C914   C916    1.394   .     A
C914   H992    1.084   .     S
C916   H989    1.083   .     S
C917   H932    1.078   .     S
C917   C919    1.391   .     A
C918   H931    1.081   .     S
C918   C920    1.391   .     A
C919   C923    1.420   .     A
C919   C921    1.418   .     A
C920   C922    1.413   .     A
C920   C924    1.414   .     A
C921   C423    1.386   1_556 S
C923   C926    1.434   .     A
C923   C420    1.420   1_556 S
C924   C925    1.433   .     A
C925   C927    1.386   .     A
C925   O943    1.379   .     S
C926   C928    1.401   .     A
C926   O945    1.383   .     S
C927   H929    1.085   .     S
C928   H930    1.085   .     S
C928   C418    1.386   1_556 S
H934   C971    1.083   .     S
H935   C969    1.084   .     S
C937   C546    1.358   1_565 S
C937   N611    1.439   1_565 S
N939   H941    1.029   .     S
N939   N940    1.289   .     D
N940   H942    1.029   .     S
O943   H944    0.992   .     S
O945   H946    0.992   .     S
N947   O948    1.302   .     A
O949   N611    1.302   1_565 S
N950   O952    1.302   .     A
N950   C602    1.443   1_565 S
N950   O615    1.299   1_565 S
O953   Zn965   1.940   .     S
O953   C845    1.282   1_655 S
O954   Zn966   1.940   .     S
O955   Zn966   1.968   .     S
O955   C957    1.293   .     A
O956   C958    1.303   .     A
O956   Zn965   1.968   .     S
C957   C993    1.423   .     S
C958   C994    1.439   .     S
C958   O842    1.278   1_655 S
O959   Zn965   1.962   .     S
O959   C851    1.292   1_655 S
O960   Zn966   1.962   .     S
O961   Zn966   1.914   .     S
O961   C963    1.299   .     A
O962   C964    1.299   .     A
O962   Zn965   1.914   .     S
C963   C967    1.446   .     S
C964   C968    1.448   .     S
C964   O848    1.292   1_655 S
Zn965  N996    2.023   .     S
Zn966  N995    2.023   .     S
C967   C973    1.384   .     A
C967   C971    1.398   .     A
C968   C972    1.400   .     A
C968   C974    1.384   .     A
C969   C977    1.405   .     A
C969   C971    1.392   .     A
C970   C978    1.405   .     A
C970   C972    1.394   .     A
C970   H880    1.084   1_655 S
C972   H877    1.083   1_655 S
C973   H988    1.078   .     S
C973   C975    1.391   .     A
C974   H987    1.081   .     S
C974   C976    1.391   .     A
C975   C979    1.420   .     A
C975   C977    1.418   .     A
C976   C978    1.413   .     A
C976   C980    1.414   .     A
C977   C479    1.386   1_556 S
C979   C982    1.434   .     A
C979   C476    1.420   1_556 S
C980   C981    1.433   .     A
C981   C983    1.386   .     A
C981   O999    1.379   .     S
C982   C984    1.401   .     A
C982   O1001   1.383   .     S
C983   H985    1.085   .     S
C984   H986    1.085   .     S
C984   C474    1.386   1_556 S
H990   C859    1.083   1_655 S
H991   C857    1.084   1_655 S
C993   C602    1.358   1_565 S
C993   N667    1.439   1_565 S
C994   C713    1.358   1_655 S
N995   H997    1.029   .     S
N995   N996    1.289   .     D
N996   H998    1.029   .     S
O999   H1000   0.992   .     S
O1001  H1002   0.992   .     S
N1003  O1004   1.302   .     A
O1005  N667    1.302   1_565 S
N1006  O1008   1.302   .     A
N1006  C658    1.443   1_565 S
N1006  O671    1.299   1_565 S
