data_str_m3_o10_o16_pcu_sym.9
_audit_creation_date              2020-01-03
_audit_creation_method            'Materials Studio'
_symmetry_space_group_name_H-M    'P1'
_symmetry_Int_Tables_number       1
_symmetry_cell_setting            triclinic
loop_
_symmetry_equiv_pos_as_xyz
  x,y,z
_cell_length_a                    23.4695
_cell_length_b                    25.7153
_cell_length_c                    24.3914
_cell_angle_alpha                 92.3654
_cell_angle_beta                  101.7204
_cell_angle_gamma                 94.1525
loop_
_atom_site_label
_atom_site_type_symbol
_atom_site_fract_x
_atom_site_fract_y
_atom_site_fract_z
_atom_site_U_iso_or_equiv
_atom_site_adp_type
_atom_site_occupancy
C1     C     0.01488   0.26491   0.24866   0.00000  Uiso   1.00
C2     C     0.05384   0.16987   0.41551   0.00000  Uiso   1.00
C3     C     0.02265   0.31948   0.24799   0.00000  Uiso   1.00
C4     C     0.03570   0.16854   0.35498   0.00000  Uiso   1.00
C5     C     0.31082   0.01388   0.25237   0.00000  Uiso   1.00
C6     C     0.31850   0.06844   0.25145   0.00000  Uiso   1.00
C7     C     0.29727   0.16293   0.14487   0.00000  Uiso   1.00
C8     C     0.26703   0.09100   0.00505   0.00000  Uiso   1.00
C9     C     0.27628   0.15141   0.08528   0.00000  Uiso   1.00
C10    C     0.02665   0.20251   0.44777   0.00000  Uiso   1.00
C11    C     0.04774   0.21005   0.00494   0.00000  Uiso   1.00
C12    C     0.12988   0.15900   0.49631   0.00000  Uiso   1.00
C13    C     0.09854   0.18799   0.03015   0.00000  Uiso   1.00
C14    C     0.11153   0.18947   0.09191   0.00000  Uiso   1.00
C15    C     0.10224   0.14390   0.44072   0.00000  Uiso   1.00
C16    C     0.18779   0.14534   0.01456   0.00000  Uiso   1.00
C17    C     0.21081   0.10656   0.48393   0.00000  Uiso   1.00
C18    C     0.17741   0.08418   0.43316   0.00000  Uiso   1.00
C19    C     0.12379   0.10369   0.41145   0.00000  Uiso   1.00
C20    C     0.22463   0.17143   0.06101   0.00000  Uiso   1.00
C21    C     0.29882   0.11212   0.05667   0.00000  Uiso   1.00
H22    H     0.00604   0.09629   0.07522   0.00000  Uiso   1.00
H23    H     0.06521   0.00331   0.24385   0.00000  Uiso   1.00
H24    H     0.17007   0.03415   0.36936   0.00000  Uiso   1.00
H25    H     0.11820   0.23207   0.16452   0.00000  Uiso   1.00
H26    H     0.26828   0.33005   0.25655   0.00000  Uiso   1.00
H27    H     0.15709   0.12206   0.21247   0.00000  Uiso   1.00
H28    H     0.17656   0.21003   0.28943   0.00000  Uiso   1.00
H29    H     0.28540   0.06103   0.48314   0.00000  Uiso   1.00
H30    H     0.21254   0.20598   0.08109   0.00000  Uiso   1.00
H31    H     0.32222   0.22218   0.42874   0.00000  Uiso   1.00
H32    H     0.02374   0.23259   0.02971   0.00000  Uiso   1.00
H33    H     0.09862   0.08666   0.37181   0.00000  Uiso   1.00
N34    N     0.14493   0.15223   0.23542   0.00000  Uiso   1.00
N35    N     0.18840   0.18110   0.26457   0.00000  Uiso   1.00
O36    O     0.29769   0.24629   0.25357   0.00000  Uiso   1.00
O37    O     0.12663   0.15043   0.11584   0.00000  Uiso   1.00
O38    O     0.10572   0.23519   0.12263   0.00000  Uiso   1.00
O39    O     0.05742   0.23704   0.24423   0.00000  Uiso   1.00
O40    O     0.31490   0.17358   0.33380   0.00000  Uiso   1.00
O41    O     0.07463   0.16433   0.32446   0.00000  Uiso   1.00
O42    O     0.27592   0.09629   0.25576   0.00000  Uiso   1.00
O43    O     0.03565   0.08704   0.24642   0.00000  Uiso   1.00
O44    O     0.25870   0.16901   0.17554   0.00000  Uiso   1.00
O45    O     0.01843   0.15976   0.16620   0.00000  Uiso   1.00
O46    O     0.19875   0.04499   0.40450   0.00000  Uiso   1.00
Zn47   Zn    0.27119   0.17284   0.25623   0.00000  Uiso   1.00
Zn48   Zn    0.06214   0.16049   0.24376   0.00000  Uiso   1.00
C49    C     0.34821   0.26491   0.24866   0.00000  Uiso   1.00
C50    C     0.38718   0.16987   0.41551   0.00000  Uiso   1.00
C51    C     0.35598   0.31948   0.24799   0.00000  Uiso   1.00
C52    C     0.36903   0.16854   0.35498   0.00000  Uiso   1.00
C53    C     0.64416   0.01388   0.25237   0.00000  Uiso   1.00
C54    C     0.65183   0.06844   0.25145   0.00000  Uiso   1.00
C55    C     0.63061   0.16293   0.14487   0.00000  Uiso   1.00
C56    C     0.60036   0.09100   0.00505   0.00000  Uiso   1.00
C57    C     0.60961   0.15141   0.08528   0.00000  Uiso   1.00
C58    C     0.35999   0.20251   0.44777   0.00000  Uiso   1.00
C59    C     0.38108   0.21005   0.00494   0.00000  Uiso   1.00
C60    C     0.46321   0.15900   0.49631   0.00000  Uiso   1.00
C61    C     0.43187   0.18799   0.03015   0.00000  Uiso   1.00
C62    C     0.44486   0.18947   0.09191   0.00000  Uiso   1.00
C63    C     0.43558   0.14390   0.44072   0.00000  Uiso   1.00
C64    C     0.52112   0.14534   0.01456   0.00000  Uiso   1.00
C65    C     0.54415   0.10656   0.48393   0.00000  Uiso   1.00
C66    C     0.51075   0.08418   0.43316   0.00000  Uiso   1.00
C67    C     0.45712   0.10369   0.41145   0.00000  Uiso   1.00
C68    C     0.55797   0.17143   0.06101   0.00000  Uiso   1.00
C69    C     0.63215   0.11212   0.05667   0.00000  Uiso   1.00
H70    H     0.33938   0.09629   0.07522   0.00000  Uiso   1.00
H71    H     0.39854   0.00331   0.24385   0.00000  Uiso   1.00
H72    H     0.50341   0.03415   0.36936   0.00000  Uiso   1.00
H73    H     0.45153   0.23207   0.16452   0.00000  Uiso   1.00
H74    H     0.60162   0.33005   0.25655   0.00000  Uiso   1.00
H75    H     0.49042   0.12206   0.21247   0.00000  Uiso   1.00
H76    H     0.50989   0.21003   0.28943   0.00000  Uiso   1.00
H77    H     0.61873   0.06103   0.48314   0.00000  Uiso   1.00
H78    H     0.54587   0.20598   0.08109   0.00000  Uiso   1.00
H79    H     0.65556   0.22218   0.42874   0.00000  Uiso   1.00
H80    H     0.35707   0.23259   0.02971   0.00000  Uiso   1.00
H81    H     0.43196   0.08666   0.37181   0.00000  Uiso   1.00
N82    N     0.47827   0.15223   0.23542   0.00000  Uiso   1.00
N83    N     0.52173   0.18110   0.26457   0.00000  Uiso   1.00
O84    O     0.63102   0.24629   0.25357   0.00000  Uiso   1.00
O85    O     0.45997   0.15043   0.11584   0.00000  Uiso   1.00
O86    O     0.43905   0.23519   0.12263   0.00000  Uiso   1.00
O87    O     0.39075   0.23704   0.24423   0.00000  Uiso   1.00
O88    O     0.64823   0.17358   0.33380   0.00000  Uiso   1.00
O89    O     0.40796   0.16433   0.32446   0.00000  Uiso   1.00
O90    O     0.60925   0.09629   0.25576   0.00000  Uiso   1.00
O91    O     0.36898   0.08704   0.24642   0.00000  Uiso   1.00
O92    O     0.59204   0.16901   0.17554   0.00000  Uiso   1.00
O93    O     0.35177   0.15976   0.16620   0.00000  Uiso   1.00
O94    O     0.53208   0.04499   0.40450   0.00000  Uiso   1.00
Zn95   Zn    0.60453   0.17284   0.25623   0.00000  Uiso   1.00
Zn96   Zn    0.39547   0.16049   0.24376   0.00000  Uiso   1.00
C97    C     0.68155   0.26491   0.24866   0.00000  Uiso   1.00
C98    C     0.72051   0.16987   0.41551   0.00000  Uiso   1.00
C99    C     0.68932   0.31948   0.24799   0.00000  Uiso   1.00
C100   C     0.70236   0.16854   0.35498   0.00000  Uiso   1.00
C101   C     0.97749   0.01388   0.25237   0.00000  Uiso   1.00
C102   C     0.98516   0.06844   0.25145   0.00000  Uiso   1.00
C103   C     0.96394   0.16293   0.14487   0.00000  Uiso   1.00
C104   C     0.93370   0.09100   0.00505   0.00000  Uiso   1.00
C105   C     0.94294   0.15141   0.08528   0.00000  Uiso   1.00
C106   C     0.69332   0.20251   0.44777   0.00000  Uiso   1.00
C107   C     0.71441   0.21005   0.00494   0.00000  Uiso   1.00
C108   C     0.79654   0.15900   0.49631   0.00000  Uiso   1.00
C109   C     0.76521   0.18799   0.03015   0.00000  Uiso   1.00
C110   C     0.77820   0.18947   0.09191   0.00000  Uiso   1.00
C111   C     0.76891   0.14390   0.44072   0.00000  Uiso   1.00
C112   C     0.85446   0.14534   0.01456   0.00000  Uiso   1.00
C113   C     0.87748   0.10656   0.48393   0.00000  Uiso   1.00
C114   C     0.84408   0.08418   0.43316   0.00000  Uiso   1.00
C115   C     0.79045   0.10369   0.41145   0.00000  Uiso   1.00
C116   C     0.89130   0.17143   0.06101   0.00000  Uiso   1.00
C117   C     0.96548   0.11212   0.05667   0.00000  Uiso   1.00
H118   H     0.67271   0.09629   0.07522   0.00000  Uiso   1.00
H119   H     0.73187   0.00331   0.24385   0.00000  Uiso   1.00
H120   H     0.83674   0.03415   0.36936   0.00000  Uiso   1.00
H121   H     0.78486   0.23207   0.16452   0.00000  Uiso   1.00
H122   H     0.93495   0.33005   0.25655   0.00000  Uiso   1.00
H123   H     0.82376   0.12206   0.21247   0.00000  Uiso   1.00
H124   H     0.84322   0.21003   0.28943   0.00000  Uiso   1.00
H125   H     0.95206   0.06103   0.48314   0.00000  Uiso   1.00
H126   H     0.87921   0.20598   0.08109   0.00000  Uiso   1.00
H127   H     0.98889   0.22218   0.42874   0.00000  Uiso   1.00
H128   H     0.69041   0.23259   0.02971   0.00000  Uiso   1.00
H129   H     0.76529   0.08666   0.37181   0.00000  Uiso   1.00
N130   N     0.81160   0.15223   0.23542   0.00000  Uiso   1.00
N131   N     0.85507   0.18110   0.26457   0.00000  Uiso   1.00
O132   O     0.96435   0.24629   0.25357   0.00000  Uiso   1.00
O133   O     0.79330   0.15043   0.11584   0.00000  Uiso   1.00
O134   O     0.77238   0.23519   0.12263   0.00000  Uiso   1.00
O135   O     0.72408   0.23704   0.24423   0.00000  Uiso   1.00
O136   O     0.98157   0.17358   0.33380   0.00000  Uiso   1.00
O137   O     0.74130   0.16433   0.32446   0.00000  Uiso   1.00
O138   O     0.94258   0.09629   0.25576   0.00000  Uiso   1.00
O139   O     0.70231   0.08704   0.24642   0.00000  Uiso   1.00
O140   O     0.92537   0.16901   0.17554   0.00000  Uiso   1.00
O141   O     0.68510   0.15976   0.16620   0.00000  Uiso   1.00
O142   O     0.86541   0.04499   0.40450   0.00000  Uiso   1.00
Zn143  Zn    0.93786   0.17284   0.25623   0.00000  Uiso   1.00
Zn144  Zn    0.72881   0.16049   0.24376   0.00000  Uiso   1.00
C145   C     0.01488   0.59824   0.24866   0.00000  Uiso   1.00
C146   C     0.05384   0.50320   0.41551   0.00000  Uiso   1.00
C147   C     0.02265   0.65282   0.24799   0.00000  Uiso   1.00
C148   C     0.03570   0.50188   0.35498   0.00000  Uiso   1.00
C149   C     0.31082   0.34721   0.25237   0.00000  Uiso   1.00
C150   C     0.31850   0.40177   0.25145   0.00000  Uiso   1.00
C151   C     0.29727   0.49626   0.14487   0.00000  Uiso   1.00
C152   C     0.26703   0.42433   0.00505   0.00000  Uiso   1.00
C153   C     0.27628   0.48474   0.08528   0.00000  Uiso   1.00
C154   C     0.02665   0.53584   0.44777   0.00000  Uiso   1.00
C155   C     0.04774   0.54338   0.00494   0.00000  Uiso   1.00
C156   C     0.12988   0.49234   0.49631   0.00000  Uiso   1.00
C157   C     0.09854   0.52132   0.03015   0.00000  Uiso   1.00
C158   C     0.11153   0.52281   0.09191   0.00000  Uiso   1.00
C159   C     0.10224   0.47723   0.44072   0.00000  Uiso   1.00
C160   C     0.18779   0.47868   0.01456   0.00000  Uiso   1.00
C161   C     0.21081   0.43989   0.48393   0.00000  Uiso   1.00
C162   C     0.17741   0.41752   0.43316   0.00000  Uiso   1.00
C163   C     0.12379   0.43702   0.41145   0.00000  Uiso   1.00
C164   C     0.22463   0.50476   0.06101   0.00000  Uiso   1.00
C165   C     0.29882   0.44546   0.05667   0.00000  Uiso   1.00
H166   H     0.00604   0.42962   0.07522   0.00000  Uiso   1.00
H167   H     0.06521   0.33665   0.24385   0.00000  Uiso   1.00
H168   H     0.17007   0.36749   0.36936   0.00000  Uiso   1.00
H169   H     0.11820   0.56540   0.16452   0.00000  Uiso   1.00
H170   H     0.26828   0.66338   0.25655   0.00000  Uiso   1.00
H171   H     0.15709   0.45539   0.21247   0.00000  Uiso   1.00
H172   H     0.17656   0.54336   0.28943   0.00000  Uiso   1.00
H173   H     0.28540   0.39437   0.48314   0.00000  Uiso   1.00
H174   H     0.21254   0.53931   0.08109   0.00000  Uiso   1.00
H175   H     0.32222   0.55552   0.42874   0.00000  Uiso   1.00
H176   H     0.02374   0.56593   0.02971   0.00000  Uiso   1.00
H177   H     0.09862   0.41999   0.37181   0.00000  Uiso   1.00
N178   N     0.14493   0.48556   0.23542   0.00000  Uiso   1.00
N179   N     0.18840   0.51444   0.26457   0.00000  Uiso   1.00
O180   O     0.29769   0.57963   0.25357   0.00000  Uiso   1.00
O181   O     0.12663   0.48376   0.11584   0.00000  Uiso   1.00
O182   O     0.10572   0.56852   0.12263   0.00000  Uiso   1.00
O183   O     0.05742   0.57038   0.24423   0.00000  Uiso   1.00
O184   O     0.31490   0.50691   0.33380   0.00000  Uiso   1.00
O185   O     0.07463   0.49766   0.32446   0.00000  Uiso   1.00
O186   O     0.27592   0.42962   0.25576   0.00000  Uiso   1.00
O187   O     0.03565   0.42037   0.24642   0.00000  Uiso   1.00
O188   O     0.25870   0.50234   0.17554   0.00000  Uiso   1.00
O189   O     0.01843   0.49309   0.16620   0.00000  Uiso   1.00
O190   O     0.19875   0.37832   0.40450   0.00000  Uiso   1.00
Zn191  Zn    0.27119   0.50618   0.25623   0.00000  Uiso   1.00
Zn192  Zn    0.06214   0.49382   0.24376   0.00000  Uiso   1.00
C193   C     0.34821   0.59824   0.24866   0.00000  Uiso   1.00
C194   C     0.38718   0.50320   0.41551   0.00000  Uiso   1.00
C195   C     0.35598   0.65282   0.24799   0.00000  Uiso   1.00
C196   C     0.36903   0.50188   0.35498   0.00000  Uiso   1.00
C197   C     0.64416   0.34721   0.25237   0.00000  Uiso   1.00
C198   C     0.65183   0.40177   0.25145   0.00000  Uiso   1.00
C199   C     0.63061   0.49626   0.14487   0.00000  Uiso   1.00
C200   C     0.60036   0.42433   0.00505   0.00000  Uiso   1.00
C201   C     0.60961   0.48474   0.08528   0.00000  Uiso   1.00
C202   C     0.35999   0.53584   0.44777   0.00000  Uiso   1.00
C203   C     0.38108   0.54338   0.00494   0.00000  Uiso   1.00
C204   C     0.46321   0.49234   0.49631   0.00000  Uiso   1.00
C205   C     0.43187   0.52132   0.03015   0.00000  Uiso   1.00
C206   C     0.44486   0.52281   0.09191   0.00000  Uiso   1.00
C207   C     0.43558   0.47723   0.44072   0.00000  Uiso   1.00
C208   C     0.52112   0.47868   0.01456   0.00000  Uiso   1.00
C209   C     0.54415   0.43989   0.48393   0.00000  Uiso   1.00
C210   C     0.51075   0.41752   0.43316   0.00000  Uiso   1.00
C211   C     0.45712   0.43702   0.41145   0.00000  Uiso   1.00
C212   C     0.55797   0.50476   0.06101   0.00000  Uiso   1.00
C213   C     0.63215   0.44546   0.05667   0.00000  Uiso   1.00
H214   H     0.33938   0.42962   0.07522   0.00000  Uiso   1.00
H215   H     0.39854   0.33665   0.24385   0.00000  Uiso   1.00
H216   H     0.50341   0.36749   0.36936   0.00000  Uiso   1.00
H217   H     0.45153   0.56540   0.16452   0.00000  Uiso   1.00
H218   H     0.60162   0.66338   0.25655   0.00000  Uiso   1.00
H219   H     0.49042   0.45539   0.21247   0.00000  Uiso   1.00
H220   H     0.50989   0.54336   0.28943   0.00000  Uiso   1.00
H221   H     0.61873   0.39437   0.48314   0.00000  Uiso   1.00
H222   H     0.54587   0.53931   0.08109   0.00000  Uiso   1.00
H223   H     0.65556   0.55552   0.42874   0.00000  Uiso   1.00
H224   H     0.35707   0.56593   0.02971   0.00000  Uiso   1.00
H225   H     0.43196   0.41999   0.37181   0.00000  Uiso   1.00
N226   N     0.47827   0.48556   0.23542   0.00000  Uiso   1.00
N227   N     0.52173   0.51444   0.26457   0.00000  Uiso   1.00
O228   O     0.63102   0.57963   0.25357   0.00000  Uiso   1.00
O229   O     0.45997   0.48376   0.11584   0.00000  Uiso   1.00
O230   O     0.43905   0.56852   0.12263   0.00000  Uiso   1.00
O231   O     0.39075   0.57038   0.24423   0.00000  Uiso   1.00
O232   O     0.64823   0.50691   0.33380   0.00000  Uiso   1.00
O233   O     0.40796   0.49766   0.32446   0.00000  Uiso   1.00
O234   O     0.60925   0.42962   0.25576   0.00000  Uiso   1.00
O235   O     0.36898   0.42037   0.24642   0.00000  Uiso   1.00
O236   O     0.59204   0.50234   0.17554   0.00000  Uiso   1.00
O237   O     0.35177   0.49309   0.16620   0.00000  Uiso   1.00
O238   O     0.53208   0.37832   0.40450   0.00000  Uiso   1.00
Zn239  Zn    0.60453   0.50618   0.25623   0.00000  Uiso   1.00
Zn240  Zn    0.39547   0.49382   0.24376   0.00000  Uiso   1.00
C241   C     0.68155   0.59824   0.24866   0.00000  Uiso   1.00
C242   C     0.72051   0.50320   0.41551   0.00000  Uiso   1.00
C243   C     0.68932   0.65282   0.24799   0.00000  Uiso   1.00
C244   C     0.70236   0.50188   0.35498   0.00000  Uiso   1.00
C245   C     0.97749   0.34721   0.25237   0.00000  Uiso   1.00
C246   C     0.98516   0.40177   0.25145   0.00000  Uiso   1.00
C247   C     0.96394   0.49626   0.14487   0.00000  Uiso   1.00
C248   C     0.93370   0.42433   0.00505   0.00000  Uiso   1.00
C249   C     0.94294   0.48474   0.08528   0.00000  Uiso   1.00
C250   C     0.69332   0.53584   0.44777   0.00000  Uiso   1.00
C251   C     0.71441   0.54338   0.00494   0.00000  Uiso   1.00
C252   C     0.79654   0.49234   0.49631   0.00000  Uiso   1.00
C253   C     0.76521   0.52132   0.03015   0.00000  Uiso   1.00
C254   C     0.77820   0.52281   0.09191   0.00000  Uiso   1.00
C255   C     0.76891   0.47723   0.44072   0.00000  Uiso   1.00
C256   C     0.85446   0.47868   0.01456   0.00000  Uiso   1.00
C257   C     0.87748   0.43989   0.48393   0.00000  Uiso   1.00
C258   C     0.84408   0.41752   0.43316   0.00000  Uiso   1.00
C259   C     0.79045   0.43702   0.41145   0.00000  Uiso   1.00
C260   C     0.89130   0.50476   0.06101   0.00000  Uiso   1.00
C261   C     0.96548   0.44546   0.05667   0.00000  Uiso   1.00
H262   H     0.67271   0.42962   0.07522   0.00000  Uiso   1.00
H263   H     0.73187   0.33665   0.24385   0.00000  Uiso   1.00
H264   H     0.83674   0.36749   0.36936   0.00000  Uiso   1.00
H265   H     0.78486   0.56540   0.16452   0.00000  Uiso   1.00
H266   H     0.93495   0.66338   0.25655   0.00000  Uiso   1.00
H267   H     0.82376   0.45539   0.21247   0.00000  Uiso   1.00
H268   H     0.84322   0.54336   0.28943   0.00000  Uiso   1.00
H269   H     0.95206   0.39437   0.48314   0.00000  Uiso   1.00
H270   H     0.87921   0.53931   0.08109   0.00000  Uiso   1.00
H271   H     0.98889   0.55552   0.42874   0.00000  Uiso   1.00
H272   H     0.69041   0.56593   0.02971   0.00000  Uiso   1.00
H273   H     0.76529   0.41999   0.37181   0.00000  Uiso   1.00
N274   N     0.81160   0.48556   0.23542   0.00000  Uiso   1.00
N275   N     0.85507   0.51444   0.26457   0.00000  Uiso   1.00
O276   O     0.96435   0.57963   0.25357   0.00000  Uiso   1.00
O277   O     0.79330   0.48376   0.11584   0.00000  Uiso   1.00
O278   O     0.77238   0.56852   0.12263   0.00000  Uiso   1.00
O279   O     0.72408   0.57038   0.24423   0.00000  Uiso   1.00
O280   O     0.98157   0.50691   0.33380   0.00000  Uiso   1.00
O281   O     0.74130   0.49766   0.32446   0.00000  Uiso   1.00
O282   O     0.94258   0.42962   0.25576   0.00000  Uiso   1.00
O283   O     0.70231   0.42037   0.24642   0.00000  Uiso   1.00
O284   O     0.92537   0.50234   0.17554   0.00000  Uiso   1.00
O285   O     0.68510   0.49309   0.16620   0.00000  Uiso   1.00
O286   O     0.86541   0.37832   0.40450   0.00000  Uiso   1.00
Zn287  Zn    0.93786   0.50618   0.25623   0.00000  Uiso   1.00
Zn288  Zn    0.72881   0.49382   0.24376   0.00000  Uiso   1.00
C289   C     0.01488   0.93157   0.24866   0.00000  Uiso   1.00
C290   C     0.05384   0.83654   0.41551   0.00000  Uiso   1.00
C291   C     0.02265   0.98615   0.24799   0.00000  Uiso   1.00
C292   C     0.03570   0.83521   0.35498   0.00000  Uiso   1.00
C293   C     0.31082   0.68054   0.25237   0.00000  Uiso   1.00
C294   C     0.31850   0.73510   0.25145   0.00000  Uiso   1.00
C295   C     0.29727   0.82960   0.14487   0.00000  Uiso   1.00
C296   C     0.26703   0.75766   0.00505   0.00000  Uiso   1.00
C297   C     0.27628   0.81808   0.08528   0.00000  Uiso   1.00
C298   C     0.02665   0.86918   0.44777   0.00000  Uiso   1.00
C299   C     0.04774   0.87672   0.00494   0.00000  Uiso   1.00
C300   C     0.12988   0.82567   0.49631   0.00000  Uiso   1.00
C301   C     0.09854   0.85466   0.03015   0.00000  Uiso   1.00
C302   C     0.11153   0.85614   0.09191   0.00000  Uiso   1.00
C303   C     0.10224   0.81057   0.44072   0.00000  Uiso   1.00
C304   C     0.18779   0.81201   0.01456   0.00000  Uiso   1.00
C305   C     0.21081   0.77322   0.48393   0.00000  Uiso   1.00
C306   C     0.17741   0.75085   0.43316   0.00000  Uiso   1.00
C307   C     0.12379   0.77036   0.41145   0.00000  Uiso   1.00
C308   C     0.22463   0.83809   0.06101   0.00000  Uiso   1.00
C309   C     0.29882   0.77879   0.05667   0.00000  Uiso   1.00
H310   H     0.00604   0.76296   0.07522   0.00000  Uiso   1.00
H311   H     0.06521   0.66998   0.24385   0.00000  Uiso   1.00
H312   H     0.17007   0.70082   0.36936   0.00000  Uiso   1.00
H313   H     0.11820   0.89874   0.16452   0.00000  Uiso   1.00
H314   H     0.26828   0.99672   0.25655   0.00000  Uiso   1.00
H315   H     0.15709   0.78872   0.21247   0.00000  Uiso   1.00
H316   H     0.17656   0.87670   0.28943   0.00000  Uiso   1.00
H317   H     0.28540   0.72770   0.48314   0.00000  Uiso   1.00
H318   H     0.21254   0.87264   0.08109   0.00000  Uiso   1.00
H319   H     0.32222   0.88885   0.42874   0.00000  Uiso   1.00
H320   H     0.02374   0.89926   0.02971   0.00000  Uiso   1.00
H321   H     0.09862   0.75333   0.37181   0.00000  Uiso   1.00
N322   N     0.14493   0.81890   0.23542   0.00000  Uiso   1.00
N323   N     0.18840   0.84777   0.26457   0.00000  Uiso   1.00
O324   O     0.29769   0.91296   0.25357   0.00000  Uiso   1.00
O325   O     0.12663   0.81710   0.11584   0.00000  Uiso   1.00
O326   O     0.10572   0.90186   0.12263   0.00000  Uiso   1.00
O327   O     0.05742   0.90371   0.24423   0.00000  Uiso   1.00
O328   O     0.31490   0.84024   0.33380   0.00000  Uiso   1.00
O329   O     0.07463   0.83099   0.32446   0.00000  Uiso   1.00
O330   O     0.27592   0.76296   0.25576   0.00000  Uiso   1.00
O331   O     0.03565   0.75371   0.24642   0.00000  Uiso   1.00
O332   O     0.25870   0.83567   0.17554   0.00000  Uiso   1.00
O333   O     0.01843   0.82642   0.16620   0.00000  Uiso   1.00
O334   O     0.19875   0.71166   0.40450   0.00000  Uiso   1.00
Zn335  Zn    0.27119   0.83951   0.25623   0.00000  Uiso   1.00
Zn336  Zn    0.06214   0.82716   0.24376   0.00000  Uiso   1.00
C337   C     0.34821   0.93157   0.24866   0.00000  Uiso   1.00
C338   C     0.38718   0.83654   0.41551   0.00000  Uiso   1.00
C339   C     0.35598   0.98615   0.24799   0.00000  Uiso   1.00
C340   C     0.36903   0.83521   0.35498   0.00000  Uiso   1.00
C341   C     0.64416   0.68054   0.25237   0.00000  Uiso   1.00
C342   C     0.65183   0.73510   0.25145   0.00000  Uiso   1.00
C343   C     0.63061   0.82960   0.14487   0.00000  Uiso   1.00
C344   C     0.60036   0.75766   0.00505   0.00000  Uiso   1.00
C345   C     0.60961   0.81808   0.08528   0.00000  Uiso   1.00
C346   C     0.35999   0.86918   0.44777   0.00000  Uiso   1.00
C347   C     0.38108   0.87672   0.00494   0.00000  Uiso   1.00
C348   C     0.46321   0.82567   0.49631   0.00000  Uiso   1.00
C349   C     0.43187   0.85466   0.03015   0.00000  Uiso   1.00
C350   C     0.44486   0.85614   0.09191   0.00000  Uiso   1.00
C351   C     0.43558   0.81057   0.44072   0.00000  Uiso   1.00
C352   C     0.52112   0.81201   0.01456   0.00000  Uiso   1.00
C353   C     0.54415   0.77322   0.48393   0.00000  Uiso   1.00
C354   C     0.51075   0.75085   0.43316   0.00000  Uiso   1.00
C355   C     0.45712   0.77036   0.41145   0.00000  Uiso   1.00
C356   C     0.55797   0.83809   0.06101   0.00000  Uiso   1.00
C357   C     0.63215   0.77879   0.05667   0.00000  Uiso   1.00
H358   H     0.33938   0.76296   0.07522   0.00000  Uiso   1.00
H359   H     0.39854   0.66998   0.24385   0.00000  Uiso   1.00
H360   H     0.50341   0.70082   0.36936   0.00000  Uiso   1.00
H361   H     0.45153   0.89874   0.16452   0.00000  Uiso   1.00
H362   H     0.60162   0.99672   0.25655   0.00000  Uiso   1.00
H363   H     0.49042   0.78872   0.21247   0.00000  Uiso   1.00
H364   H     0.50989   0.87670   0.28943   0.00000  Uiso   1.00
H365   H     0.61873   0.72770   0.48314   0.00000  Uiso   1.00
H366   H     0.54587   0.87264   0.08109   0.00000  Uiso   1.00
H367   H     0.65556   0.88885   0.42874   0.00000  Uiso   1.00
H368   H     0.35707   0.89926   0.02971   0.00000  Uiso   1.00
H369   H     0.43196   0.75333   0.37181   0.00000  Uiso   1.00
N370   N     0.47827   0.81890   0.23542   0.00000  Uiso   1.00
N371   N     0.52173   0.84777   0.26457   0.00000  Uiso   1.00
O372   O     0.63102   0.91296   0.25357   0.00000  Uiso   1.00
O373   O     0.45997   0.81710   0.11584   0.00000  Uiso   1.00
O374   O     0.43905   0.90186   0.12263   0.00000  Uiso   1.00
O375   O     0.39075   0.90371   0.24423   0.00000  Uiso   1.00
O376   O     0.64823   0.84024   0.33380   0.00000  Uiso   1.00
O377   O     0.40796   0.83099   0.32446   0.00000  Uiso   1.00
O378   O     0.60925   0.76296   0.25576   0.00000  Uiso   1.00
O379   O     0.36898   0.75371   0.24642   0.00000  Uiso   1.00
O380   O     0.59204   0.83567   0.17554   0.00000  Uiso   1.00
O381   O     0.35177   0.82642   0.16620   0.00000  Uiso   1.00
O382   O     0.53208   0.71166   0.40450   0.00000  Uiso   1.00
Zn383  Zn    0.60453   0.83951   0.25623   0.00000  Uiso   1.00
Zn384  Zn    0.39547   0.82716   0.24376   0.00000  Uiso   1.00
C385   C     0.68155   0.93157   0.24866   0.00000  Uiso   1.00
C386   C     0.72051   0.83654   0.41551   0.00000  Uiso   1.00
C387   C     0.68932   0.98615   0.24799   0.00000  Uiso   1.00
C388   C     0.70236   0.83521   0.35498   0.00000  Uiso   1.00
C389   C     0.97749   0.68054   0.25237   0.00000  Uiso   1.00
C390   C     0.98516   0.73510   0.25145   0.00000  Uiso   1.00
C391   C     0.96394   0.82960   0.14487   0.00000  Uiso   1.00
C392   C     0.93370   0.75766   0.00505   0.00000  Uiso   1.00
C393   C     0.94294   0.81808   0.08528   0.00000  Uiso   1.00
C394   C     0.69332   0.86918   0.44777   0.00000  Uiso   1.00
C395   C     0.71441   0.87672   0.00494   0.00000  Uiso   1.00
C396   C     0.79654   0.82567   0.49631   0.00000  Uiso   1.00
C397   C     0.76521   0.85466   0.03015   0.00000  Uiso   1.00
C398   C     0.77820   0.85614   0.09191   0.00000  Uiso   1.00
C399   C     0.76891   0.81057   0.44072   0.00000  Uiso   1.00
C400   C     0.85446   0.81201   0.01456   0.00000  Uiso   1.00
C401   C     0.87748   0.77322   0.48393   0.00000  Uiso   1.00
C402   C     0.84408   0.75085   0.43316   0.00000  Uiso   1.00
C403   C     0.79045   0.77036   0.41145   0.00000  Uiso   1.00
C404   C     0.89130   0.83809   0.06101   0.00000  Uiso   1.00
C405   C     0.96548   0.77879   0.05667   0.00000  Uiso   1.00
H406   H     0.67271   0.76296   0.07522   0.00000  Uiso   1.00
H407   H     0.73187   0.66998   0.24385   0.00000  Uiso   1.00
H408   H     0.83674   0.70082   0.36936   0.00000  Uiso   1.00
H409   H     0.78486   0.89874   0.16452   0.00000  Uiso   1.00
H410   H     0.93495   0.99672   0.25655   0.00000  Uiso   1.00
H411   H     0.82376   0.78872   0.21247   0.00000  Uiso   1.00
H412   H     0.84322   0.87670   0.28943   0.00000  Uiso   1.00
H413   H     0.95206   0.72770   0.48314   0.00000  Uiso   1.00
H414   H     0.87921   0.87264   0.08109   0.00000  Uiso   1.00
H415   H     0.98889   0.88885   0.42874   0.00000  Uiso   1.00
H416   H     0.69041   0.89926   0.02971   0.00000  Uiso   1.00
H417   H     0.76529   0.75333   0.37181   0.00000  Uiso   1.00
N418   N     0.81160   0.81890   0.23542   0.00000  Uiso   1.00
N419   N     0.85507   0.84777   0.26457   0.00000  Uiso   1.00
O420   O     0.96435   0.91296   0.25357   0.00000  Uiso   1.00
O421   O     0.79330   0.81710   0.11584   0.00000  Uiso   1.00
O422   O     0.77238   0.90186   0.12263   0.00000  Uiso   1.00
O423   O     0.72408   0.90371   0.24423   0.00000  Uiso   1.00
O424   O     0.98157   0.84024   0.33380   0.00000  Uiso   1.00
O425   O     0.74130   0.83099   0.32446   0.00000  Uiso   1.00
O426   O     0.94258   0.76296   0.25576   0.00000  Uiso   1.00
O427   O     0.70231   0.75371   0.24642   0.00000  Uiso   1.00
O428   O     0.92537   0.83567   0.17554   0.00000  Uiso   1.00
O429   O     0.68510   0.82642   0.16620   0.00000  Uiso   1.00
O430   O     0.86541   0.71166   0.40450   0.00000  Uiso   1.00
Zn431  Zn    0.93786   0.83951   0.25623   0.00000  Uiso   1.00
Zn432  Zn    0.72881   0.82716   0.24376   0.00000  Uiso   1.00
C433   C     0.01488   0.26491   0.74866   0.00000  Uiso   1.00
C434   C     0.05384   0.16987   0.91551   0.00000  Uiso   1.00
C435   C     0.02265   0.31948   0.74799   0.00000  Uiso   1.00
C436   C     0.03570   0.16854   0.85498   0.00000  Uiso   1.00
C437   C     0.31082   0.01388   0.75237   0.00000  Uiso   1.00
C438   C     0.31850   0.06844   0.75145   0.00000  Uiso   1.00
C439   C     0.29727   0.16293   0.64487   0.00000  Uiso   1.00
C440   C     0.26703   0.09100   0.50505   0.00000  Uiso   1.00
C441   C     0.27628   0.15141   0.58528   0.00000  Uiso   1.00
C442   C     0.02665   0.20251   0.94777   0.00000  Uiso   1.00
C443   C     0.04774   0.21005   0.50494   0.00000  Uiso   1.00
C444   C     0.12988   0.15900   0.99631   0.00000  Uiso   1.00
C445   C     0.09854   0.18799   0.53015   0.00000  Uiso   1.00
C446   C     0.11153   0.18947   0.59191   0.00000  Uiso   1.00
C447   C     0.10224   0.14390   0.94072   0.00000  Uiso   1.00
C448   C     0.18779   0.14534   0.51456   0.00000  Uiso   1.00
C449   C     0.21081   0.10656   0.98393   0.00000  Uiso   1.00
C450   C     0.17741   0.08418   0.93316   0.00000  Uiso   1.00
C451   C     0.12379   0.10369   0.91145   0.00000  Uiso   1.00
C452   C     0.22463   0.17143   0.56101   0.00000  Uiso   1.00
C453   C     0.29882   0.11212   0.55667   0.00000  Uiso   1.00
H454   H     0.00604   0.09629   0.57522   0.00000  Uiso   1.00
H455   H     0.06521   0.00331   0.74385   0.00000  Uiso   1.00
H456   H     0.17007   0.03415   0.86936   0.00000  Uiso   1.00
H457   H     0.11820   0.23207   0.66452   0.00000  Uiso   1.00
H458   H     0.26828   0.33005   0.75655   0.00000  Uiso   1.00
H459   H     0.15709   0.12206   0.71247   0.00000  Uiso   1.00
H460   H     0.17656   0.21003   0.78943   0.00000  Uiso   1.00
H461   H     0.28540   0.06103   0.98314   0.00000  Uiso   1.00
H462   H     0.21254   0.20598   0.58109   0.00000  Uiso   1.00
H463   H     0.32222   0.22218   0.92874   0.00000  Uiso   1.00
H464   H     0.02374   0.23259   0.52971   0.00000  Uiso   1.00
H465   H     0.09862   0.08666   0.87181   0.00000  Uiso   1.00
N466   N     0.14493   0.15223   0.73542   0.00000  Uiso   1.00
N467   N     0.18840   0.18110   0.76457   0.00000  Uiso   1.00
O468   O     0.29769   0.24629   0.75357   0.00000  Uiso   1.00
O469   O     0.12663   0.15043   0.61584   0.00000  Uiso   1.00
O470   O     0.10572   0.23519   0.62263   0.00000  Uiso   1.00
O471   O     0.05742   0.23704   0.74423   0.00000  Uiso   1.00
O472   O     0.31490   0.17358   0.83380   0.00000  Uiso   1.00
O473   O     0.07463   0.16433   0.82446   0.00000  Uiso   1.00
O474   O     0.27592   0.09629   0.75576   0.00000  Uiso   1.00
O475   O     0.03565   0.08704   0.74642   0.00000  Uiso   1.00
O476   O     0.25870   0.16901   0.67554   0.00000  Uiso   1.00
O477   O     0.01843   0.15976   0.66620   0.00000  Uiso   1.00
O478   O     0.19875   0.04499   0.90450   0.00000  Uiso   1.00
Zn479  Zn    0.27119   0.17284   0.75623   0.00000  Uiso   1.00
Zn480  Zn    0.06214   0.16049   0.74376   0.00000  Uiso   1.00
C481   C     0.34821   0.26491   0.74866   0.00000  Uiso   1.00
C482   C     0.38718   0.16987   0.91551   0.00000  Uiso   1.00
C483   C     0.35598   0.31948   0.74799   0.00000  Uiso   1.00
C484   C     0.36903   0.16854   0.85498   0.00000  Uiso   1.00
C485   C     0.64416   0.01388   0.75237   0.00000  Uiso   1.00
C486   C     0.65183   0.06844   0.75145   0.00000  Uiso   1.00
C487   C     0.63061   0.16293   0.64487   0.00000  Uiso   1.00
C488   C     0.60036   0.09100   0.50505   0.00000  Uiso   1.00
C489   C     0.60961   0.15141   0.58528   0.00000  Uiso   1.00
C490   C     0.35999   0.20251   0.94777   0.00000  Uiso   1.00
C491   C     0.38108   0.21005   0.50494   0.00000  Uiso   1.00
C492   C     0.46321   0.15900   0.99631   0.00000  Uiso   1.00
C493   C     0.43187   0.18799   0.53015   0.00000  Uiso   1.00
C494   C     0.44486   0.18947   0.59191   0.00000  Uiso   1.00
C495   C     0.43558   0.14390   0.94072   0.00000  Uiso   1.00
C496   C     0.52112   0.14534   0.51456   0.00000  Uiso   1.00
C497   C     0.54415   0.10656   0.98393   0.00000  Uiso   1.00
C498   C     0.51075   0.08418   0.93316   0.00000  Uiso   1.00
C499   C     0.45712   0.10369   0.91145   0.00000  Uiso   1.00
C500   C     0.55797   0.17143   0.56101   0.00000  Uiso   1.00
C501   C     0.63215   0.11212   0.55667   0.00000  Uiso   1.00
H502   H     0.33938   0.09629   0.57522   0.00000  Uiso   1.00
H503   H     0.39854   0.00331   0.74385   0.00000  Uiso   1.00
H504   H     0.50341   0.03415   0.86936   0.00000  Uiso   1.00
H505   H     0.45153   0.23207   0.66452   0.00000  Uiso   1.00
H506   H     0.60162   0.33005   0.75655   0.00000  Uiso   1.00
H507   H     0.49042   0.12206   0.71247   0.00000  Uiso   1.00
H508   H     0.50989   0.21003   0.78943   0.00000  Uiso   1.00
H509   H     0.61873   0.06103   0.98314   0.00000  Uiso   1.00
H510   H     0.54587   0.20598   0.58109   0.00000  Uiso   1.00
H511   H     0.65556   0.22218   0.92874   0.00000  Uiso   1.00
H512   H     0.35707   0.23259   0.52971   0.00000  Uiso   1.00
H513   H     0.43196   0.08666   0.87181   0.00000  Uiso   1.00
N514   N     0.47827   0.15223   0.73542   0.00000  Uiso   1.00
N515   N     0.52173   0.18110   0.76457   0.00000  Uiso   1.00
O516   O     0.63102   0.24629   0.75357   0.00000  Uiso   1.00
O517   O     0.45997   0.15043   0.61584   0.00000  Uiso   1.00
O518   O     0.43905   0.23519   0.62263   0.00000  Uiso   1.00
O519   O     0.39075   0.23704   0.74423   0.00000  Uiso   1.00
O520   O     0.64823   0.17358   0.83380   0.00000  Uiso   1.00
O521   O     0.40796   0.16433   0.82446   0.00000  Uiso   1.00
O522   O     0.60925   0.09629   0.75576   0.00000  Uiso   1.00
O523   O     0.36898   0.08704   0.74642   0.00000  Uiso   1.00
O524   O     0.59204   0.16901   0.67554   0.00000  Uiso   1.00
O525   O     0.35177   0.15976   0.66620   0.00000  Uiso   1.00
O526   O     0.53208   0.04499   0.90450   0.00000  Uiso   1.00
Zn527  Zn    0.60453   0.17284   0.75623   0.00000  Uiso   1.00
Zn528  Zn    0.39547   0.16049   0.74376   0.00000  Uiso   1.00
C529   C     0.68155   0.26491   0.74866   0.00000  Uiso   1.00
C530   C     0.72051   0.16987   0.91551   0.00000  Uiso   1.00
C531   C     0.68932   0.31948   0.74799   0.00000  Uiso   1.00
C532   C     0.70236   0.16854   0.85498   0.00000  Uiso   1.00
C533   C     0.97749   0.01388   0.75237   0.00000  Uiso   1.00
C534   C     0.98516   0.06844   0.75145   0.00000  Uiso   1.00
C535   C     0.96394   0.16293   0.64487   0.00000  Uiso   1.00
C536   C     0.93370   0.09100   0.50505   0.00000  Uiso   1.00
C537   C     0.94294   0.15141   0.58528   0.00000  Uiso   1.00
C538   C     0.69332   0.20251   0.94777   0.00000  Uiso   1.00
C539   C     0.71441   0.21005   0.50494   0.00000  Uiso   1.00
C540   C     0.79654   0.15900   0.99631   0.00000  Uiso   1.00
C541   C     0.76521   0.18799   0.53015   0.00000  Uiso   1.00
C542   C     0.77820   0.18947   0.59191   0.00000  Uiso   1.00
C543   C     0.76891   0.14390   0.94072   0.00000  Uiso   1.00
C544   C     0.85446   0.14534   0.51456   0.00000  Uiso   1.00
C545   C     0.87748   0.10656   0.98393   0.00000  Uiso   1.00
C546   C     0.84408   0.08418   0.93316   0.00000  Uiso   1.00
C547   C     0.79045   0.10369   0.91145   0.00000  Uiso   1.00
C548   C     0.89130   0.17143   0.56101   0.00000  Uiso   1.00
C549   C     0.96548   0.11212   0.55667   0.00000  Uiso   1.00
H550   H     0.67271   0.09629   0.57522   0.00000  Uiso   1.00
H551   H     0.73187   0.00331   0.74385   0.00000  Uiso   1.00
H552   H     0.83674   0.03415   0.86936   0.00000  Uiso   1.00
H553   H     0.78486   0.23207   0.66452   0.00000  Uiso   1.00
H554   H     0.93495   0.33005   0.75655   0.00000  Uiso   1.00
H555   H     0.82376   0.12206   0.71247   0.00000  Uiso   1.00
H556   H     0.84322   0.21003   0.78943   0.00000  Uiso   1.00
H557   H     0.95206   0.06103   0.98314   0.00000  Uiso   1.00
H558   H     0.87921   0.20598   0.58109   0.00000  Uiso   1.00
H559   H     0.98889   0.22218   0.92874   0.00000  Uiso   1.00
H560   H     0.69041   0.23259   0.52971   0.00000  Uiso   1.00
H561   H     0.76529   0.08666   0.87181   0.00000  Uiso   1.00
N562   N     0.81160   0.15223   0.73542   0.00000  Uiso   1.00
N563   N     0.85507   0.18110   0.76457   0.00000  Uiso   1.00
O564   O     0.96435   0.24629   0.75357   0.00000  Uiso   1.00
O565   O     0.79330   0.15043   0.61584   0.00000  Uiso   1.00
O566   O     0.77238   0.23519   0.62263   0.00000  Uiso   1.00
O567   O     0.72408   0.23704   0.74423   0.00000  Uiso   1.00
O568   O     0.98157   0.17358   0.83380   0.00000  Uiso   1.00
O569   O     0.74130   0.16433   0.82446   0.00000  Uiso   1.00
O570   O     0.94258   0.09629   0.75576   0.00000  Uiso   1.00
O571   O     0.70231   0.08704   0.74642   0.00000  Uiso   1.00
O572   O     0.92537   0.16901   0.67554   0.00000  Uiso   1.00
O573   O     0.68510   0.15976   0.66620   0.00000  Uiso   1.00
O574   O     0.86541   0.04499   0.90450   0.00000  Uiso   1.00
Zn575  Zn    0.93786   0.17284   0.75623   0.00000  Uiso   1.00
Zn576  Zn    0.72881   0.16049   0.74376   0.00000  Uiso   1.00
C577   C     0.01488   0.59824   0.74866   0.00000  Uiso   1.00
C578   C     0.05384   0.50320   0.91551   0.00000  Uiso   1.00
C579   C     0.02265   0.65282   0.74799   0.00000  Uiso   1.00
C580   C     0.03570   0.50188   0.85498   0.00000  Uiso   1.00
C581   C     0.31082   0.34721   0.75237   0.00000  Uiso   1.00
C582   C     0.31850   0.40177   0.75145   0.00000  Uiso   1.00
C583   C     0.29727   0.49626   0.64487   0.00000  Uiso   1.00
C584   C     0.26703   0.42433   0.50505   0.00000  Uiso   1.00
C585   C     0.27628   0.48474   0.58528   0.00000  Uiso   1.00
C586   C     0.02665   0.53584   0.94777   0.00000  Uiso   1.00
C587   C     0.04774   0.54338   0.50494   0.00000  Uiso   1.00
C588   C     0.12988   0.49234   0.99631   0.00000  Uiso   1.00
C589   C     0.09854   0.52132   0.53015   0.00000  Uiso   1.00
C590   C     0.11153   0.52281   0.59191   0.00000  Uiso   1.00
C591   C     0.10224   0.47723   0.94072   0.00000  Uiso   1.00
C592   C     0.18779   0.47868   0.51456   0.00000  Uiso   1.00
C593   C     0.21081   0.43989   0.98393   0.00000  Uiso   1.00
C594   C     0.17741   0.41752   0.93316   0.00000  Uiso   1.00
C595   C     0.12379   0.43702   0.91145   0.00000  Uiso   1.00
C596   C     0.22463   0.50476   0.56101   0.00000  Uiso   1.00
C597   C     0.29882   0.44546   0.55667   0.00000  Uiso   1.00
H598   H     0.00604   0.42962   0.57522   0.00000  Uiso   1.00
H599   H     0.06521   0.33665   0.74385   0.00000  Uiso   1.00
H600   H     0.17007   0.36749   0.86936   0.00000  Uiso   1.00
H601   H     0.11820   0.56540   0.66452   0.00000  Uiso   1.00
H602   H     0.26828   0.66338   0.75655   0.00000  Uiso   1.00
H603   H     0.15709   0.45539   0.71247   0.00000  Uiso   1.00
H604   H     0.17656   0.54336   0.78943   0.00000  Uiso   1.00
H605   H     0.28540   0.39437   0.98314   0.00000  Uiso   1.00
H606   H     0.21254   0.53931   0.58109   0.00000  Uiso   1.00
H607   H     0.32222   0.55552   0.92874   0.00000  Uiso   1.00
H608   H     0.02374   0.56593   0.52971   0.00000  Uiso   1.00
H609   H     0.09862   0.41999   0.87181   0.00000  Uiso   1.00
N610   N     0.14493   0.48556   0.73542   0.00000  Uiso   1.00
N611   N     0.18840   0.51444   0.76457   0.00000  Uiso   1.00
O612   O     0.29769   0.57963   0.75357   0.00000  Uiso   1.00
O613   O     0.12663   0.48376   0.61584   0.00000  Uiso   1.00
O614   O     0.10572   0.56852   0.62263   0.00000  Uiso   1.00
O615   O     0.05742   0.57038   0.74423   0.00000  Uiso   1.00
O616   O     0.31490   0.50691   0.83380   0.00000  Uiso   1.00
O617   O     0.07463   0.49766   0.82446   0.00000  Uiso   1.00
O618   O     0.27592   0.42962   0.75576   0.00000  Uiso   1.00
O619   O     0.03565   0.42037   0.74642   0.00000  Uiso   1.00
O620   O     0.25870   0.50234   0.67554   0.00000  Uiso   1.00
O621   O     0.01843   0.49309   0.66620   0.00000  Uiso   1.00
O622   O     0.19875   0.37832   0.90450   0.00000  Uiso   1.00
Zn623  Zn    0.27119   0.50618   0.75623   0.00000  Uiso   1.00
Zn624  Zn    0.06214   0.49382   0.74376   0.00000  Uiso   1.00
C625   C     0.34821   0.59824   0.74866   0.00000  Uiso   1.00
C626   C     0.38718   0.50320   0.91551   0.00000  Uiso   1.00
C627   C     0.35598   0.65282   0.74799   0.00000  Uiso   1.00
C628   C     0.36903   0.50188   0.85498   0.00000  Uiso   1.00
C629   C     0.64416   0.34721   0.75237   0.00000  Uiso   1.00
C630   C     0.65183   0.40177   0.75145   0.00000  Uiso   1.00
C631   C     0.63061   0.49626   0.64487   0.00000  Uiso   1.00
C632   C     0.60036   0.42433   0.50505   0.00000  Uiso   1.00
C633   C     0.60961   0.48474   0.58528   0.00000  Uiso   1.00
C634   C     0.35999   0.53584   0.94777   0.00000  Uiso   1.00
C635   C     0.38108   0.54338   0.50494   0.00000  Uiso   1.00
C636   C     0.46321   0.49234   0.99631   0.00000  Uiso   1.00
C637   C     0.43187   0.52132   0.53015   0.00000  Uiso   1.00
C638   C     0.44486   0.52281   0.59191   0.00000  Uiso   1.00
C639   C     0.43558   0.47723   0.94072   0.00000  Uiso   1.00
C640   C     0.52112   0.47868   0.51456   0.00000  Uiso   1.00
C641   C     0.54415   0.43989   0.98393   0.00000  Uiso   1.00
C642   C     0.51075   0.41752   0.93316   0.00000  Uiso   1.00
C643   C     0.45712   0.43702   0.91145   0.00000  Uiso   1.00
C644   C     0.55797   0.50476   0.56101   0.00000  Uiso   1.00
C645   C     0.63215   0.44546   0.55667   0.00000  Uiso   1.00
H646   H     0.33938   0.42962   0.57522   0.00000  Uiso   1.00
H647   H     0.39854   0.33665   0.74385   0.00000  Uiso   1.00
H648   H     0.50341   0.36749   0.86936   0.00000  Uiso   1.00
H649   H     0.45153   0.56540   0.66452   0.00000  Uiso   1.00
H650   H     0.60162   0.66338   0.75655   0.00000  Uiso   1.00
H651   H     0.49042   0.45539   0.71247   0.00000  Uiso   1.00
H652   H     0.50989   0.54336   0.78943   0.00000  Uiso   1.00
H653   H     0.61873   0.39437   0.98314   0.00000  Uiso   1.00
H654   H     0.54587   0.53931   0.58109   0.00000  Uiso   1.00
H655   H     0.65556   0.55552   0.92874   0.00000  Uiso   1.00
H656   H     0.35707   0.56593   0.52971   0.00000  Uiso   1.00
H657   H     0.43196   0.41999   0.87181   0.00000  Uiso   1.00
N658   N     0.47827   0.48556   0.73542   0.00000  Uiso   1.00
N659   N     0.52173   0.51444   0.76457   0.00000  Uiso   1.00
O660   O     0.63102   0.57963   0.75357   0.00000  Uiso   1.00
O661   O     0.45997   0.48376   0.61584   0.00000  Uiso   1.00
O662   O     0.43905   0.56852   0.62263   0.00000  Uiso   1.00
O663   O     0.39075   0.57038   0.74423   0.00000  Uiso   1.00
O664   O     0.64823   0.50691   0.83380   0.00000  Uiso   1.00
O665   O     0.40796   0.49766   0.82446   0.00000  Uiso   1.00
O666   O     0.60925   0.42962   0.75576   0.00000  Uiso   1.00
O667   O     0.36898   0.42037   0.74642   0.00000  Uiso   1.00
O668   O     0.59204   0.50234   0.67554   0.00000  Uiso   1.00
O669   O     0.35177   0.49309   0.66620   0.00000  Uiso   1.00
O670   O     0.53208   0.37832   0.90450   0.00000  Uiso   1.00
Zn671  Zn    0.60453   0.50618   0.75623   0.00000  Uiso   1.00
Zn672  Zn    0.39547   0.49382   0.74376   0.00000  Uiso   1.00
C673   C     0.68155   0.59824   0.74866   0.00000  Uiso   1.00
C674   C     0.72051   0.50320   0.91551   0.00000  Uiso   1.00
C675   C     0.68932   0.65282   0.74799   0.00000  Uiso   1.00
C676   C     0.70236   0.50188   0.85498   0.00000  Uiso   1.00
C677   C     0.97749   0.34721   0.75237   0.00000  Uiso   1.00
C678   C     0.98516   0.40177   0.75145   0.00000  Uiso   1.00
C679   C     0.96394   0.49626   0.64487   0.00000  Uiso   1.00
C680   C     0.93370   0.42433   0.50505   0.00000  Uiso   1.00
C681   C     0.94294   0.48474   0.58528   0.00000  Uiso   1.00
C682   C     0.69332   0.53584   0.94777   0.00000  Uiso   1.00
C683   C     0.71441   0.54338   0.50494   0.00000  Uiso   1.00
C684   C     0.79654   0.49234   0.99631   0.00000  Uiso   1.00
C685   C     0.76521   0.52132   0.53015   0.00000  Uiso   1.00
C686   C     0.77820   0.52281   0.59191   0.00000  Uiso   1.00
C687   C     0.76891   0.47723   0.94072   0.00000  Uiso   1.00
C688   C     0.85446   0.47868   0.51456   0.00000  Uiso   1.00
C689   C     0.87748   0.43989   0.98393   0.00000  Uiso   1.00
C690   C     0.84408   0.41752   0.93316   0.00000  Uiso   1.00
C691   C     0.79045   0.43702   0.91145   0.00000  Uiso   1.00
C692   C     0.89130   0.50476   0.56101   0.00000  Uiso   1.00
C693   C     0.96548   0.44546   0.55667   0.00000  Uiso   1.00
H694   H     0.67271   0.42962   0.57522   0.00000  Uiso   1.00
H695   H     0.73187   0.33665   0.74385   0.00000  Uiso   1.00
H696   H     0.83674   0.36749   0.86936   0.00000  Uiso   1.00
H697   H     0.78486   0.56540   0.66452   0.00000  Uiso   1.00
H698   H     0.93495   0.66338   0.75655   0.00000  Uiso   1.00
H699   H     0.82376   0.45539   0.71247   0.00000  Uiso   1.00
H700   H     0.84322   0.54336   0.78943   0.00000  Uiso   1.00
H701   H     0.95206   0.39437   0.98314   0.00000  Uiso   1.00
H702   H     0.87921   0.53931   0.58109   0.00000  Uiso   1.00
H703   H     0.98889   0.55552   0.92874   0.00000  Uiso   1.00
H704   H     0.69041   0.56593   0.52971   0.00000  Uiso   1.00
H705   H     0.76529   0.41999   0.87181   0.00000  Uiso   1.00
N706   N     0.81160   0.48556   0.73542   0.00000  Uiso   1.00
N707   N     0.85507   0.51444   0.76457   0.00000  Uiso   1.00
O708   O     0.96435   0.57963   0.75357   0.00000  Uiso   1.00
O709   O     0.79330   0.48376   0.61584   0.00000  Uiso   1.00
O710   O     0.77238   0.56852   0.62263   0.00000  Uiso   1.00
O711   O     0.72408   0.57038   0.74423   0.00000  Uiso   1.00
O712   O     0.98157   0.50691   0.83380   0.00000  Uiso   1.00
O713   O     0.74130   0.49766   0.82446   0.00000  Uiso   1.00
O714   O     0.94258   0.42962   0.75576   0.00000  Uiso   1.00
O715   O     0.70231   0.42037   0.74642   0.00000  Uiso   1.00
O716   O     0.92537   0.50234   0.67554   0.00000  Uiso   1.00
O717   O     0.68510   0.49309   0.66620   0.00000  Uiso   1.00
O718   O     0.86541   0.37832   0.90450   0.00000  Uiso   1.00
Zn719  Zn    0.93786   0.50618   0.75623   0.00000  Uiso   1.00
Zn720  Zn    0.72881   0.49382   0.74376   0.00000  Uiso   1.00
C721   C     0.01488   0.93157   0.74866   0.00000  Uiso   1.00
C722   C     0.05384   0.83654   0.91551   0.00000  Uiso   1.00
C723   C     0.02265   0.98615   0.74799   0.00000  Uiso   1.00
C724   C     0.03570   0.83521   0.85498   0.00000  Uiso   1.00
C725   C     0.31082   0.68054   0.75237   0.00000  Uiso   1.00
C726   C     0.31850   0.73510   0.75145   0.00000  Uiso   1.00
C727   C     0.29727   0.82960   0.64487   0.00000  Uiso   1.00
C728   C     0.26703   0.75766   0.50505   0.00000  Uiso   1.00
C729   C     0.27628   0.81808   0.58528   0.00000  Uiso   1.00
C730   C     0.02665   0.86918   0.94777   0.00000  Uiso   1.00
C731   C     0.04774   0.87672   0.50494   0.00000  Uiso   1.00
C732   C     0.12988   0.82567   0.99631   0.00000  Uiso   1.00
C733   C     0.09854   0.85466   0.53015   0.00000  Uiso   1.00
C734   C     0.11153   0.85614   0.59191   0.00000  Uiso   1.00
C735   C     0.10224   0.81057   0.94072   0.00000  Uiso   1.00
C736   C     0.18779   0.81201   0.51456   0.00000  Uiso   1.00
C737   C     0.21081   0.77322   0.98393   0.00000  Uiso   1.00
C738   C     0.17741   0.75085   0.93316   0.00000  Uiso   1.00
C739   C     0.12379   0.77036   0.91145   0.00000  Uiso   1.00
C740   C     0.22463   0.83809   0.56101   0.00000  Uiso   1.00
C741   C     0.29882   0.77879   0.55667   0.00000  Uiso   1.00
H742   H     0.00604   0.76296   0.57522   0.00000  Uiso   1.00
H743   H     0.06521   0.66998   0.74385   0.00000  Uiso   1.00
H744   H     0.17007   0.70082   0.86936   0.00000  Uiso   1.00
H745   H     0.11820   0.89874   0.66452   0.00000  Uiso   1.00
H746   H     0.26828   0.99672   0.75655   0.00000  Uiso   1.00
H747   H     0.15709   0.78872   0.71247   0.00000  Uiso   1.00
H748   H     0.17656   0.87670   0.78943   0.00000  Uiso   1.00
H749   H     0.28540   0.72770   0.98314   0.00000  Uiso   1.00
H750   H     0.21254   0.87264   0.58109   0.00000  Uiso   1.00
H751   H     0.32222   0.88885   0.92874   0.00000  Uiso   1.00
H752   H     0.02374   0.89926   0.52971   0.00000  Uiso   1.00
H753   H     0.09862   0.75333   0.87181   0.00000  Uiso   1.00
N754   N     0.14493   0.81890   0.73542   0.00000  Uiso   1.00
N755   N     0.18840   0.84777   0.76457   0.00000  Uiso   1.00
O756   O     0.29769   0.91296   0.75357   0.00000  Uiso   1.00
O757   O     0.12663   0.81710   0.61584   0.00000  Uiso   1.00
O758   O     0.10572   0.90186   0.62263   0.00000  Uiso   1.00
O759   O     0.05742   0.90371   0.74423   0.00000  Uiso   1.00
O760   O     0.31490   0.84024   0.83380   0.00000  Uiso   1.00
O761   O     0.07463   0.83099   0.82446   0.00000  Uiso   1.00
O762   O     0.27592   0.76296   0.75576   0.00000  Uiso   1.00
O763   O     0.03565   0.75371   0.74642   0.00000  Uiso   1.00
O764   O     0.25870   0.83567   0.67554   0.00000  Uiso   1.00
O765   O     0.01843   0.82642   0.66620   0.00000  Uiso   1.00
O766   O     0.19875   0.71166   0.90450   0.00000  Uiso   1.00
Zn767  Zn    0.27119   0.83951   0.75623   0.00000  Uiso   1.00
Zn768  Zn    0.06214   0.82716   0.74376   0.00000  Uiso   1.00
C769   C     0.34821   0.93157   0.74866   0.00000  Uiso   1.00
C770   C     0.38718   0.83654   0.91551   0.00000  Uiso   1.00
C771   C     0.35598   0.98615   0.74799   0.00000  Uiso   1.00
C772   C     0.36903   0.83521   0.85498   0.00000  Uiso   1.00
C773   C     0.64416   0.68054   0.75237   0.00000  Uiso   1.00
C774   C     0.65183   0.73510   0.75145   0.00000  Uiso   1.00
C775   C     0.63061   0.82960   0.64487   0.00000  Uiso   1.00
C776   C     0.60036   0.75766   0.50505   0.00000  Uiso   1.00
C777   C     0.60961   0.81808   0.58528   0.00000  Uiso   1.00
C778   C     0.35999   0.86918   0.94777   0.00000  Uiso   1.00
C779   C     0.38108   0.87672   0.50494   0.00000  Uiso   1.00
C780   C     0.46321   0.82567   0.99631   0.00000  Uiso   1.00
C781   C     0.43187   0.85466   0.53015   0.00000  Uiso   1.00
C782   C     0.44486   0.85614   0.59191   0.00000  Uiso   1.00
C783   C     0.43558   0.81057   0.94072   0.00000  Uiso   1.00
C784   C     0.52112   0.81201   0.51456   0.00000  Uiso   1.00
C785   C     0.54415   0.77322   0.98393   0.00000  Uiso   1.00
C786   C     0.51075   0.75085   0.93316   0.00000  Uiso   1.00
C787   C     0.45712   0.77036   0.91145   0.00000  Uiso   1.00
C788   C     0.55797   0.83809   0.56101   0.00000  Uiso   1.00
C789   C     0.63215   0.77879   0.55667   0.00000  Uiso   1.00
H790   H     0.33938   0.76296   0.57522   0.00000  Uiso   1.00
H791   H     0.39854   0.66998   0.74385   0.00000  Uiso   1.00
H792   H     0.50341   0.70082   0.86936   0.00000  Uiso   1.00
H793   H     0.45153   0.89874   0.66452   0.00000  Uiso   1.00
H794   H     0.60162   0.99672   0.75655   0.00000  Uiso   1.00
H795   H     0.49042   0.78872   0.71247   0.00000  Uiso   1.00
H796   H     0.50989   0.87670   0.78943   0.00000  Uiso   1.00
H797   H     0.61873   0.72770   0.98314   0.00000  Uiso   1.00
H798   H     0.54587   0.87264   0.58109   0.00000  Uiso   1.00
H799   H     0.65556   0.88885   0.92874   0.00000  Uiso   1.00
H800   H     0.35707   0.89926   0.52971   0.00000  Uiso   1.00
H801   H     0.43196   0.75333   0.87181   0.00000  Uiso   1.00
N802   N     0.47827   0.81890   0.73542   0.00000  Uiso   1.00
N803   N     0.52173   0.84777   0.76457   0.00000  Uiso   1.00
O804   O     0.63102   0.91296   0.75357   0.00000  Uiso   1.00
O805   O     0.45997   0.81710   0.61584   0.00000  Uiso   1.00
O806   O     0.43905   0.90186   0.62263   0.00000  Uiso   1.00
O807   O     0.39075   0.90371   0.74423   0.00000  Uiso   1.00
O808   O     0.64823   0.84024   0.83380   0.00000  Uiso   1.00
O809   O     0.40796   0.83099   0.82446   0.00000  Uiso   1.00
O810   O     0.60925   0.76296   0.75576   0.00000  Uiso   1.00
O811   O     0.36898   0.75371   0.74642   0.00000  Uiso   1.00
O812   O     0.59204   0.83567   0.67554   0.00000  Uiso   1.00
O813   O     0.35177   0.82642   0.66620   0.00000  Uiso   1.00
O814   O     0.53208   0.71166   0.90450   0.00000  Uiso   1.00
Zn815  Zn    0.60453   0.83951   0.75623   0.00000  Uiso   1.00
Zn816  Zn    0.39547   0.82716   0.74376   0.00000  Uiso   1.00
C817   C     0.68155   0.93157   0.74866   0.00000  Uiso   1.00
C818   C     0.72051   0.83654   0.91551   0.00000  Uiso   1.00
C819   C     0.68932   0.98615   0.74799   0.00000  Uiso   1.00
C820   C     0.70236   0.83521   0.85498   0.00000  Uiso   1.00
C821   C     0.97749   0.68054   0.75237   0.00000  Uiso   1.00
C822   C     0.98516   0.73510   0.75145   0.00000  Uiso   1.00
C823   C     0.96394   0.82960   0.64487   0.00000  Uiso   1.00
C824   C     0.93370   0.75766   0.50505   0.00000  Uiso   1.00
C825   C     0.94294   0.81808   0.58528   0.00000  Uiso   1.00
C826   C     0.69332   0.86918   0.94777   0.00000  Uiso   1.00
C827   C     0.71441   0.87672   0.50494   0.00000  Uiso   1.00
C828   C     0.79654   0.82567   0.99631   0.00000  Uiso   1.00
C829   C     0.76521   0.85466   0.53015   0.00000  Uiso   1.00
C830   C     0.77820   0.85614   0.59191   0.00000  Uiso   1.00
C831   C     0.76891   0.81057   0.94072   0.00000  Uiso   1.00
C832   C     0.85446   0.81201   0.51456   0.00000  Uiso   1.00
C833   C     0.87748   0.77322   0.98393   0.00000  Uiso   1.00
C834   C     0.84408   0.75085   0.93316   0.00000  Uiso   1.00
C835   C     0.79045   0.77036   0.91145   0.00000  Uiso   1.00
C836   C     0.89130   0.83809   0.56101   0.00000  Uiso   1.00
C837   C     0.96548   0.77879   0.55667   0.00000  Uiso   1.00
H838   H     0.67271   0.76296   0.57522   0.00000  Uiso   1.00
H839   H     0.73187   0.66998   0.74385   0.00000  Uiso   1.00
H840   H     0.83674   0.70082   0.86936   0.00000  Uiso   1.00
H841   H     0.78486   0.89874   0.66452   0.00000  Uiso   1.00
H842   H     0.93495   0.99672   0.75655   0.00000  Uiso   1.00
H843   H     0.82376   0.78872   0.71247   0.00000  Uiso   1.00
H844   H     0.84322   0.87670   0.78943   0.00000  Uiso   1.00
H845   H     0.95206   0.72770   0.98314   0.00000  Uiso   1.00
H846   H     0.87921   0.87264   0.58109   0.00000  Uiso   1.00
H847   H     0.98889   0.88885   0.92874   0.00000  Uiso   1.00
H848   H     0.69041   0.89926   0.52971   0.00000  Uiso   1.00
H849   H     0.76529   0.75333   0.87181   0.00000  Uiso   1.00
N850   N     0.81160   0.81890   0.73542   0.00000  Uiso   1.00
N851   N     0.85507   0.84777   0.76457   0.00000  Uiso   1.00
O852   O     0.96435   0.91296   0.75357   0.00000  Uiso   1.00
O853   O     0.79330   0.81710   0.61584   0.00000  Uiso   1.00
O854   O     0.77238   0.90186   0.62263   0.00000  Uiso   1.00
O855   O     0.72408   0.90371   0.74423   0.00000  Uiso   1.00
O856   O     0.98157   0.84024   0.83380   0.00000  Uiso   1.00
O857   O     0.74130   0.83099   0.82446   0.00000  Uiso   1.00
O858   O     0.94258   0.76296   0.75576   0.00000  Uiso   1.00
O859   O     0.70231   0.75371   0.74642   0.00000  Uiso   1.00
O860   O     0.92537   0.83567   0.67554   0.00000  Uiso   1.00
O861   O     0.68510   0.82642   0.66620   0.00000  Uiso   1.00
O862   O     0.86541   0.71166   0.90450   0.00000  Uiso   1.00
Zn863  Zn    0.93786   0.83951   0.75623   0.00000  Uiso   1.00
Zn864  Zn    0.72881   0.82716   0.74376   0.00000  Uiso   1.00
loop_
_geom_bond_atom_site_label_1
_geom_bond_atom_site_label_2
_geom_bond_distance
_geom_bond_site_symmetry_2
_ccdc_geom_bond_type
C1     O39     1.289   .     A
C1     C3      1.403   .     S
C1     O132    1.277   1_455 S
C2     C4      1.449   .     S
C2     C15     1.405   .     A
C2     C10     1.399   .     A
C3     C245    1.339   1_455 S
C3     H167    1.088   .     S
C4     O41     1.298   .     A
C4     O136    1.288   1_455 S
C5     C6      1.403   .     S
C5     C339    1.339   1_545 S
C5     H314    1.088   1_545 S
C6     O42     1.290   .     A
C6     O91     1.276   .     S
C7     O44     1.300   .     A
C7     C9      1.448   .     S
C7     O93     1.289   .     S
C8     C21     1.393   .     A
C8     C449    1.408   1_554 S
C8     H461    1.083   1_554 S
C9     C20     1.381   .     A
C9     C21     1.399   .     A
C10    C443    1.382   .     S
C10    H127    1.084   1_455 S
C11    C13     1.396   .     A
C11    H32     1.084   .     S
C11    C442    1.382   1_554 S
C12    C15     1.404   .     A
C12    C445    1.433   .     S
C12    C448    1.416   .     S
C13    C14     1.473   .     S
C13    C444    1.433   1_554 S
C14    O38     1.398   .     S
C14    O37     1.221   .     D
C15    C19     1.413   .     A
C16    C20     1.392   .     A
C16    C444    1.416   1_554 S
C16    C449    1.423   1_554 S
C17    C18     1.400   .     A
C17    C440    1.408   .     S
C17    C448    1.423   .     S
C18    O46     1.383   .     S
C18    C19     1.400   .     A
C19    H33     1.082   .     S
C20    H30     1.080   .     S
C21    H70     1.083   .     S
H22    C117    1.083   1_455 S
H23    C291    1.088   1_545 S
H24    O46     0.992   .     S
H25    O38     1.012   .     S
H26    C149    1.088   .     S
H27    N34     1.029   .     S
H28    N35     1.029   .     S
H29    C440    1.083   .     S
H31    C58     1.084   .     S
N34    Zn48    2.020   .     S
N34    N35     1.284   .     D
N35    Zn47    2.020   .     S
O36    Zn47    1.953   .     S
O36    C49     1.277   .     S
O39    Zn48    1.979   .     S
O40    Zn47    1.959   .     S
O40    C52     1.288   .     S
O41    Zn48    1.927   .     S
O42    Zn47    1.979   .     S
O43    Zn48    1.953   .     S
O43    C102    1.276   1_455 S
O44    Zn47    1.927   .     S
O45    Zn48    1.959   .     S
O45    C103    1.289   1_455 S
C49    O87     1.289   .     A
C49    C51     1.403   .     S
C50    C52     1.449   .     S
C50    C63     1.405   .     A
C50    C58     1.399   .     A
C51    C149    1.339   .     S
C51    H215    1.088   .     S
C52    O89     1.298   .     A
C53    C54     1.403   .     S
C53    C387    1.339   1_545 S
C53    H362    1.088   1_545 S
C54    O90     1.290   .     A
C54    O139    1.276   .     S
C55    O92     1.300   .     A
C55    C57     1.448   .     S
C55    O141    1.289   .     S
C56    C69     1.393   .     A
C56    C497    1.408   1_554 S
C56    H509    1.083   1_554 S
C57    C68     1.381   .     A
C57    C69     1.399   .     A
C58    C491    1.382   .     S
C59    C61     1.396   .     A
C59    H80     1.084   .     S
C59    C490    1.382   1_554 S
C60    C63     1.404   .     A
C60    C493    1.433   .     S
C60    C496    1.416   .     S
C61    C62     1.473   .     S
C61    C492    1.433   1_554 S
C62    O86     1.398   .     S
C62    O85     1.221   .     D
C63    C67     1.413   .     A
C64    C68     1.392   .     A
C64    C492    1.416   1_554 S
C64    C497    1.423   1_554 S
C65    C66     1.400   .     A
C65    C488    1.408   .     S
C65    C496    1.423   .     S
C66    O94     1.383   .     S
C66    C67     1.400   .     A
C67    H81     1.082   .     S
C68    H78     1.080   .     S
C69    H118    1.083   .     S
H71    C339    1.088   1_545 S
H72    O94     0.992   .     S
H73    O86     1.012   .     S
H74    C197    1.088   .     S
H75    N82     1.029   .     S
H76    N83     1.029   .     S
H77    C488    1.083   .     S
H79    C106    1.084   .     S
N82    Zn96    2.020   .     S
N82    N83     1.284   .     D
N83    Zn95    2.020   .     S
O84    Zn95    1.953   .     S
O84    C97     1.277   .     S
O87    Zn96    1.979   .     S
O88    Zn95    1.959   .     S
O88    C100    1.288   .     S
O89    Zn96    1.927   .     S
O90    Zn95    1.979   .     S
O91    Zn96    1.953   .     S
O92    Zn95    1.927   .     S
O93    Zn96    1.959   .     S
C97    O135    1.289   .     A
C97    C99     1.403   .     S
C98    C100    1.449   .     S
C98    C111    1.405   .     A
C98    C106    1.399   .     A
C99    C197    1.339   .     S
C99    H263    1.088   .     S
C100   O137    1.298   .     A
C101   C102    1.403   .     S
C101   C291    1.339   1_645 S
C101   H410    1.088   1_545 S
C102   O138    1.290   .     A
C102   O43     1.276   1_655 S
C103   O140    1.300   .     A
C103   C105    1.448   .     S
C103   O45     1.289   1_655 S
C104   C117    1.393   .     A
C104   C545    1.408   1_554 S
C104   H557    1.083   1_554 S
C105   C116    1.381   .     A
C105   C117    1.399   .     A
C106   C539    1.382   .     S
C107   C109    1.396   .     A
C107   H128    1.084   .     S
C107   C538    1.382   1_554 S
C108   C111    1.404   .     A
C108   C541    1.433   .     S
C108   C544    1.416   .     S
C109   C110    1.473   .     S
C109   C540    1.433   1_554 S
C110   O134    1.398   .     S
C110   O133    1.221   .     D
C111   C115    1.413   .     A
C112   C116    1.392   .     A
C112   C540    1.416   1_554 S
C112   C545    1.423   1_554 S
C113   C114    1.400   .     A
C113   C536    1.408   .     S
C113   C544    1.423   .     S
C114   O142    1.383   .     S
C114   C115    1.400   .     A
C115   H129    1.082   .     S
C116   H126    1.080   .     S
C117   H22     1.083   1_655 S
H119   C387    1.088   1_545 S
H120   O142    0.992   .     S
H121   O134    1.012   .     S
H122   C245    1.088   .     S
H123   N130    1.029   .     S
H124   N131    1.029   .     S
H125   C536    1.083   .     S
H127   C10     1.084   1_655 S
N130   Zn144   2.020   .     S
N130   N131    1.284   .     D
N131   Zn143   2.020   .     S
O132   Zn143   1.953   .     S
O132   C1      1.277   1_655 S
O135   Zn144   1.979   .     S
O136   Zn143   1.959   .     S
O136   C4      1.288   1_655 S
O137   Zn144   1.927   .     S
O138   Zn143   1.979   .     S
O139   Zn144   1.953   .     S
O140   Zn143   1.927   .     S
O141   Zn144   1.959   .     S
C145   O183    1.289   .     A
C145   C147    1.403   .     S
C145   O276    1.277   1_455 S
C146   C148    1.449   .     S
C146   C159    1.405   .     A
C146   C154    1.399   .     A
C147   C389    1.339   1_455 S
C147   H311    1.088   .     S
C148   O185    1.298   .     A
C148   O280    1.288   1_455 S
C149   C150    1.403   .     S
C150   O186    1.290   .     A
C150   O235    1.276   .     S
C151   O188    1.300   .     A
C151   C153    1.448   .     S
C151   O237    1.289   .     S
C152   C165    1.393   .     A
C152   C593    1.408   1_554 S
C152   H605    1.083   1_554 S
C153   C164    1.381   .     A
C153   C165    1.399   .     A
C154   C587    1.382   .     S
C154   H271    1.084   1_455 S
C155   C157    1.396   .     A
C155   H176    1.084   .     S
C155   C586    1.382   1_554 S
C156   C159    1.404   .     A
C156   C589    1.433   .     S
C156   C592    1.416   .     S
C157   C158    1.473   .     S
C157   C588    1.433   1_554 S
C158   O182    1.398   .     S
C158   O181    1.221   .     D
C159   C163    1.413   .     A
C160   C164    1.392   .     A
C160   C588    1.416   1_554 S
C160   C593    1.423   1_554 S
C161   C162    1.400   .     A
C161   C584    1.408   .     S
C161   C592    1.423   .     S
C162   O190    1.383   .     S
C162   C163    1.400   .     A
C163   H177    1.082   .     S
C164   H174    1.080   .     S
C165   H214    1.083   .     S
H166   C261    1.083   1_455 S
H168   O190    0.992   .     S
H169   O182    1.012   .     S
H170   C293    1.088   .     S
H171   N178    1.029   .     S
H172   N179    1.029   .     S
H173   C584    1.083   .     S
H175   C202    1.084   .     S
N178   Zn192   2.020   .     S
N178   N179    1.284   .     D
N179   Zn191   2.020   .     S
O180   Zn191   1.953   .     S
O180   C193    1.277   .     S
O183   Zn192   1.979   .     S
O184   Zn191   1.959   .     S
O184   C196    1.288   .     S
O185   Zn192   1.927   .     S
O186   Zn191   1.979   .     S
O187   Zn192   1.953   .     S
O187   C246    1.276   1_455 S
O188   Zn191   1.927   .     S
O189   Zn192   1.959   .     S
O189   C247    1.289   1_455 S
C193   O231    1.289   .     A
C193   C195    1.403   .     S
C194   C196    1.449   .     S
C194   C207    1.405   .     A
C194   C202    1.399   .     A
C195   C293    1.339   .     S
C195   H359    1.088   .     S
C196   O233    1.298   .     A
C197   C198    1.403   .     S
C198   O234    1.290   .     A
C198   O283    1.276   .     S
C199   O236    1.300   .     A
C199   C201    1.448   .     S
C199   O285    1.289   .     S
C200   C213    1.393   .     A
C200   C641    1.408   1_554 S
C200   H653    1.083   1_554 S
C201   C212    1.381   .     A
C201   C213    1.399   .     A
C202   C635    1.382   .     S
C203   C205    1.396   .     A
C203   H224    1.084   .     S
C203   C634    1.382   1_554 S
C204   C207    1.404   .     A
C204   C637    1.433   .     S
C204   C640    1.416   .     S
C205   C206    1.473   .     S
C205   C636    1.433   1_554 S
C206   O230    1.398   .     S
C206   O229    1.221   .     D
C207   C211    1.413   .     A
C208   C212    1.392   .     A
C208   C636    1.416   1_554 S
C208   C641    1.423   1_554 S
C209   C210    1.400   .     A
C209   C632    1.408   .     S
C209   C640    1.423   .     S
C210   O238    1.383   .     S
C210   C211    1.400   .     A
C211   H225    1.082   .     S
C212   H222    1.080   .     S
C213   H262    1.083   .     S
H216   O238    0.992   .     S
H217   O230    1.012   .     S
H218   C341    1.088   .     S
H219   N226    1.029   .     S
H220   N227    1.029   .     S
H221   C632    1.083   .     S
H223   C250    1.084   .     S
N226   Zn240   2.020   .     S
N226   N227    1.284   .     D
N227   Zn239   2.020   .     S
O228   Zn239   1.953   .     S
O228   C241    1.277   .     S
O231   Zn240   1.979   .     S
O232   Zn239   1.959   .     S
O232   C244    1.288   .     S
O233   Zn240   1.927   .     S
O234   Zn239   1.979   .     S
O235   Zn240   1.953   .     S
O236   Zn239   1.927   .     S
O237   Zn240   1.959   .     S
C241   O279    1.289   .     A
C241   C243    1.403   .     S
C242   C244    1.449   .     S
C242   C255    1.405   .     A
C242   C250    1.399   .     A
C243   C341    1.339   .     S
C243   H407    1.088   .     S
C244   O281    1.298   .     A
C245   C246    1.403   .     S
C245   C3      1.339   1_655 S
C246   O282    1.290   .     A
C246   O187    1.276   1_655 S
C247   O284    1.300   .     A
C247   C249    1.448   .     S
C247   O189    1.289   1_655 S
C248   C261    1.393   .     A
C248   C689    1.408   1_554 S
C248   H701    1.083   1_554 S
C249   C260    1.381   .     A
C249   C261    1.399   .     A
C250   C683    1.382   .     S
C251   C253    1.396   .     A
C251   H272    1.084   .     S
C251   C682    1.382   1_554 S
C252   C255    1.404   .     A
C252   C685    1.433   .     S
C252   C688    1.416   .     S
C253   C254    1.473   .     S
C253   C684    1.433   1_554 S
C254   O278    1.398   .     S
C254   O277    1.221   .     D
C255   C259    1.413   .     A
C256   C260    1.392   .     A
C256   C684    1.416   1_554 S
C256   C689    1.423   1_554 S
C257   C258    1.400   .     A
C257   C680    1.408   .     S
C257   C688    1.423   .     S
C258   O286    1.383   .     S
C258   C259    1.400   .     A
C259   H273    1.082   .     S
C260   H270    1.080   .     S
C261   H166    1.083   1_655 S
H264   O286    0.992   .     S
H265   O278    1.012   .     S
H266   C389    1.088   .     S
H267   N274    1.029   .     S
H268   N275    1.029   .     S
H269   C680    1.083   .     S
H271   C154    1.084   1_655 S
N274   Zn288   2.020   .     S
N274   N275    1.284   .     D
N275   Zn287   2.020   .     S
O276   Zn287   1.953   .     S
O276   C145    1.277   1_655 S
O279   Zn288   1.979   .     S
O280   Zn287   1.959   .     S
O280   C148    1.288   1_655 S
O281   Zn288   1.927   .     S
O282   Zn287   1.979   .     S
O283   Zn288   1.953   .     S
O284   Zn287   1.927   .     S
O285   Zn288   1.959   .     S
C289   O327    1.289   .     A
C289   C291    1.403   .     S
C289   O420    1.277   1_455 S
C290   C292    1.449   .     S
C290   C303    1.405   .     A
C290   C298    1.399   .     A
C291   C101    1.339   1_465 S
C291   H23     1.088   1_565 S
C292   O329    1.298   .     A
C292   O424    1.288   1_455 S
C293   C294    1.403   .     S
C294   O330    1.290   .     A
C294   O379    1.276   .     S
C295   O332    1.300   .     A
C295   C297    1.448   .     S
C295   O381    1.289   .     S
C296   C309    1.393   .     A
C296   C737    1.408   1_554 S
C296   H749    1.083   1_554 S
C297   C308    1.381   .     A
C297   C309    1.399   .     A
C298   C731    1.382   .     S
C298   H415    1.084   1_455 S
C299   C301    1.396   .     A
C299   H320    1.084   .     S
C299   C730    1.382   1_554 S
C300   C303    1.404   .     A
C300   C733    1.433   .     S
C300   C736    1.416   .     S
C301   C302    1.473   .     S
C301   C732    1.433   1_554 S
C302   O326    1.398   .     S
C302   O325    1.221   .     D
C303   C307    1.413   .     A
C304   C308    1.392   .     A
C304   C732    1.416   1_554 S
C304   C737    1.423   1_554 S
C305   C306    1.400   .     A
C305   C728    1.408   .     S
C305   C736    1.423   .     S
C306   O334    1.383   .     S
C306   C307    1.400   .     A
C307   H321    1.082   .     S
C308   H318    1.080   .     S
C309   H358    1.083   .     S
H310   C405    1.083   1_455 S
H312   O334    0.992   .     S
H313   O326    1.012   .     S
H314   C5      1.088   1_565 S
H315   N322    1.029   .     S
H316   N323    1.029   .     S
H317   C728    1.083   .     S
H319   C346    1.084   .     S
N322   Zn336   2.020   .     S
N322   N323    1.284   .     D
N323   Zn335   2.020   .     S
O324   Zn335   1.953   .     S
O324   C337    1.277   .     S
O327   Zn336   1.979   .     S
O328   Zn335   1.959   .     S
O328   C340    1.288   .     S
O329   Zn336   1.927   .     S
O330   Zn335   1.979   .     S
O331   Zn336   1.953   .     S
O331   C390    1.276   1_455 S
O332   Zn335   1.927   .     S
O333   Zn336   1.959   .     S
O333   C391    1.289   1_455 S
C337   O375    1.289   .     A
C337   C339    1.403   .     S
C338   C340    1.449   .     S
C338   C351    1.405   .     A
C338   C346    1.399   .     A
C339   C5      1.339   1_565 S
C339   H71     1.088   1_565 S
C340   O377    1.298   .     A
C341   C342    1.403   .     S
C342   O378    1.290   .     A
C342   O427    1.276   .     S
C343   O380    1.300   .     A
C343   C345    1.448   .     S
C343   O429    1.289   .     S
C344   C357    1.393   .     A
C344   C785    1.408   1_554 S
C344   H797    1.083   1_554 S
C345   C356    1.381   .     A
C345   C357    1.399   .     A
C346   C779    1.382   .     S
C347   C349    1.396   .     A
C347   H368    1.084   .     S
C347   C778    1.382   1_554 S
C348   C351    1.404   .     A
C348   C781    1.433   .     S
C348   C784    1.416   .     S
C349   C350    1.473   .     S
C349   C780    1.433   1_554 S
C350   O374    1.398   .     S
C350   O373    1.221   .     D
C351   C355    1.413   .     A
C352   C356    1.392   .     A
C352   C780    1.416   1_554 S
C352   C785    1.423   1_554 S
C353   C354    1.400   .     A
C353   C776    1.408   .     S
C353   C784    1.423   .     S
C354   O382    1.383   .     S
C354   C355    1.400   .     A
C355   H369    1.082   .     S
C356   H366    1.080   .     S
C357   H406    1.083   .     S
H360   O382    0.992   .     S
H361   O374    1.012   .     S
H362   C53     1.088   1_565 S
H363   N370    1.029   .     S
H364   N371    1.029   .     S
H365   C776    1.083   .     S
H367   C394    1.084   .     S
N370   Zn384   2.020   .     S
N370   N371    1.284   .     D
N371   Zn383   2.020   .     S
O372   Zn383   1.953   .     S
O372   C385    1.277   .     S
O375   Zn384   1.979   .     S
O376   Zn383   1.959   .     S
O376   C388    1.288   .     S
O377   Zn384   1.927   .     S
O378   Zn383   1.979   .     S
O379   Zn384   1.953   .     S
O380   Zn383   1.927   .     S
O381   Zn384   1.959   .     S
C385   O423    1.289   .     A
C385   C387    1.403   .     S
C386   C388    1.449   .     S
C386   C399    1.405   .     A
C386   C394    1.399   .     A
C387   C53     1.339   1_565 S
C387   H119    1.088   1_565 S
C388   O425    1.298   .     A
C389   C390    1.403   .     S
C389   C147    1.339   1_655 S
C390   O426    1.290   .     A
C390   O331    1.276   1_655 S
C391   O428    1.300   .     A
C391   C393    1.448   .     S
C391   O333    1.289   1_655 S
C392   C405    1.393   .     A
C392   C833    1.408   1_554 S
C392   H845    1.083   1_554 S
C393   C404    1.381   .     A
C393   C405    1.399   .     A
C394   C827    1.382   .     S
C395   C397    1.396   .     A
C395   H416    1.084   .     S
C395   C826    1.382   1_554 S
C396   C399    1.404   .     A
C396   C829    1.433   .     S
C396   C832    1.416   .     S
C397   C398    1.473   .     S
C397   C828    1.433   1_554 S
C398   O422    1.398   .     S
C398   O421    1.221   .     D
C399   C403    1.413   .     A
C400   C404    1.392   .     A
C400   C828    1.416   1_554 S
C400   C833    1.423   1_554 S
C401   C402    1.400   .     A
C401   C824    1.408   .     S
C401   C832    1.423   .     S
C402   O430    1.383   .     S
C402   C403    1.400   .     A
C403   H417    1.082   .     S
C404   H414    1.080   .     S
C405   H310    1.083   1_655 S
H408   O430    0.992   .     S
H409   O422    1.012   .     S
H410   C101    1.088   1_565 S
H411   N418    1.029   .     S
H412   N419    1.029   .     S
H413   C824    1.083   .     S
H415   C298    1.084   1_655 S
N418   Zn432   2.020   .     S
N418   N419    1.284   .     D
N419   Zn431   2.020   .     S
O420   Zn431   1.953   .     S
O420   C289    1.277   1_655 S
O423   Zn432   1.979   .     S
O424   Zn431   1.959   .     S
O424   C292    1.288   1_655 S
O425   Zn432   1.927   .     S
O426   Zn431   1.979   .     S
O427   Zn432   1.953   .     S
O428   Zn431   1.927   .     S
O429   Zn432   1.959   .     S
C433   O471    1.289   .     A
C433   C435    1.403   .     S
C433   O564    1.277   1_455 S
C434   C436    1.449   .     S
C434   C447    1.405   .     A
C434   C442    1.399   .     A
C435   C677    1.339   1_455 S
C435   H599    1.088   .     S
C436   O473    1.298   .     A
C436   O568    1.288   1_455 S
C437   C438    1.403   .     S
C437   C771    1.339   1_545 S
C437   H746    1.088   1_545 S
C438   O474    1.290   .     A
C438   O523    1.276   .     S
C439   O476    1.300   .     A
C439   C441    1.448   .     S
C439   O525    1.289   .     S
C440   C453    1.393   .     A
C441   C452    1.381   .     A
C441   C453    1.399   .     A
C442   C11     1.382   1_556 S
C442   H559    1.084   1_455 S
C443   C445    1.396   .     A
C443   H464    1.084   .     S
C444   C447    1.404   .     A
C444   C13     1.433   1_556 S
C444   C16     1.416   1_556 S
C445   C446    1.473   .     S
C446   O470    1.398   .     S
C446   O469    1.221   .     D
C447   C451    1.413   .     A
C448   C452    1.392   .     A
C449   C450    1.400   .     A
C449   C8      1.408   1_556 S
C449   C16     1.423   1_556 S
C450   O478    1.383   .     S
C450   C451    1.400   .     A
C451   H465    1.082   .     S
C452   H462    1.080   .     S
C453   H502    1.083   .     S
H454   C549    1.083   1_455 S
H455   C723    1.088   1_545 S
H456   O478    0.992   .     S
H457   O470    1.012   .     S
H458   C581    1.088   .     S
H459   N466    1.029   .     S
H460   N467    1.029   .     S
H461   C8      1.083   1_556 S
H463   C490    1.084   .     S
N466   Zn480   2.020   .     S
N466   N467    1.284   .     D
N467   Zn479   2.020   .     S
O468   Zn479   1.953   .     S
O468   C481    1.277   .     S
O471   Zn480   1.979   .     S
O472   Zn479   1.959   .     S
O472   C484    1.288   .     S
O473   Zn480   1.927   .     S
O474   Zn479   1.979   .     S
O475   Zn480   1.953   .     S
O475   C534    1.276   1_455 S
O476   Zn479   1.927   .     S
O477   Zn480   1.959   .     S
O477   C535    1.289   1_455 S
C481   O519    1.289   .     A
C481   C483    1.403   .     S
C482   C484    1.449   .     S
C482   C495    1.405   .     A
C482   C490    1.399   .     A
C483   C581    1.339   .     S
C483   H647    1.088   .     S
C484   O521    1.298   .     A
C485   C486    1.403   .     S
C485   C819    1.339   1_545 S
C485   H794    1.088   1_545 S
C486   O522    1.290   .     A
C486   O571    1.276   .     S
C487   O524    1.300   .     A
C487   C489    1.448   .     S
C487   O573    1.289   .     S
C488   C501    1.393   .     A
C489   C500    1.381   .     A
C489   C501    1.399   .     A
C490   C59     1.382   1_556 S
C491   C493    1.396   .     A
C491   H512    1.084   .     S
C492   C495    1.404   .     A
C492   C61     1.433   1_556 S
C492   C64     1.416   1_556 S
C493   C494    1.473   .     S
C494   O518    1.398   .     S
C494   O517    1.221   .     D
C495   C499    1.413   .     A
C496   C500    1.392   .     A
C497   C498    1.400   .     A
C497   C56     1.408   1_556 S
C497   C64     1.423   1_556 S
C498   O526    1.383   .     S
C498   C499    1.400   .     A
C499   H513    1.082   .     S
C500   H510    1.080   .     S
C501   H550    1.083   .     S
H503   C771    1.088   1_545 S
H504   O526    0.992   .     S
H505   O518    1.012   .     S
H506   C629    1.088   .     S
H507   N514    1.029   .     S
H508   N515    1.029   .     S
H509   C56     1.083   1_556 S
H511   C538    1.084   .     S
N514   Zn528   2.020   .     S
N514   N515    1.284   .     D
N515   Zn527   2.020   .     S
O516   Zn527   1.953   .     S
O516   C529    1.277   .     S
O519   Zn528   1.979   .     S
O520   Zn527   1.959   .     S
O520   C532    1.288   .     S
O521   Zn528   1.927   .     S
O522   Zn527   1.979   .     S
O523   Zn528   1.953   .     S
O524   Zn527   1.927   .     S
O525   Zn528   1.959   .     S
C529   O567    1.289   .     A
C529   C531    1.403   .     S
C530   C532    1.449   .     S
C530   C543    1.405   .     A
C530   C538    1.399   .     A
C531   C629    1.339   .     S
C531   H695    1.088   .     S
C532   O569    1.298   .     A
C533   C534    1.403   .     S
C533   C723    1.339   1_645 S
C533   H842    1.088   1_545 S
C534   O570    1.290   .     A
C534   O475    1.276   1_655 S
C535   O572    1.300   .     A
C535   C537    1.448   .     S
C535   O477    1.289   1_655 S
C536   C549    1.393   .     A
C537   C548    1.381   .     A
C537   C549    1.399   .     A
C538   C107    1.382   1_556 S
C539   C541    1.396   .     A
C539   H560    1.084   .     S
C540   C543    1.404   .     A
C540   C109    1.433   1_556 S
C540   C112    1.416   1_556 S
C541   C542    1.473   .     S
C542   O566    1.398   .     S
C542   O565    1.221   .     D
C543   C547    1.413   .     A
C544   C548    1.392   .     A
C545   C546    1.400   .     A
C545   C104    1.408   1_556 S
C545   C112    1.423   1_556 S
C546   O574    1.383   .     S
C546   C547    1.400   .     A
C547   H561    1.082   .     S
C548   H558    1.080   .     S
C549   H454    1.083   1_655 S
H551   C819    1.088   1_545 S
H552   O574    0.992   .     S
H553   O566    1.012   .     S
H554   C677    1.088   .     S
H555   N562    1.029   .     S
H556   N563    1.029   .     S
H557   C104    1.083   1_556 S
H559   C442    1.084   1_655 S
N562   Zn576   2.020   .     S
N562   N563    1.284   .     D
N563   Zn575   2.020   .     S
O564   Zn575   1.953   .     S
O564   C433    1.277   1_655 S
O567   Zn576   1.979   .     S
O568   Zn575   1.959   .     S
O568   C436    1.288   1_655 S
O569   Zn576   1.927   .     S
O570   Zn575   1.979   .     S
O571   Zn576   1.953   .     S
O572   Zn575   1.927   .     S
O573   Zn576   1.959   .     S
C577   O615    1.289   .     A
C577   C579    1.403   .     S
C577   O708    1.277   1_455 S
C578   C580    1.449   .     S
C578   C591    1.405   .     A
C578   C586    1.399   .     A
C579   C821    1.339   1_455 S
C579   H743    1.088   .     S
C580   O617    1.298   .     A
C580   O712    1.288   1_455 S
C581   C582    1.403   .     S
C582   O618    1.290   .     A
C582   O667    1.276   .     S
C583   O620    1.300   .     A
C583   C585    1.448   .     S
C583   O669    1.289   .     S
C584   C597    1.393   .     A
C585   C596    1.381   .     A
C585   C597    1.399   .     A
C586   C155    1.382   1_556 S
C586   H703    1.084   1_455 S
C587   C589    1.396   .     A
C587   H608    1.084   .     S
C588   C591    1.404   .     A
C588   C157    1.433   1_556 S
C588   C160    1.416   1_556 S
C589   C590    1.473   .     S
C590   O614    1.398   .     S
C590   O613    1.221   .     D
C591   C595    1.413   .     A
C592   C596    1.392   .     A
C593   C594    1.400   .     A
C593   C152    1.408   1_556 S
C593   C160    1.423   1_556 S
C594   O622    1.383   .     S
C594   C595    1.400   .     A
C595   H609    1.082   .     S
C596   H606    1.080   .     S
C597   H646    1.083   .     S
H598   C693    1.083   1_455 S
H600   O622    0.992   .     S
H601   O614    1.012   .     S
H602   C725    1.088   .     S
H603   N610    1.029   .     S
H604   N611    1.029   .     S
H605   C152    1.083   1_556 S
H607   C634    1.084   .     S
N610   Zn624   2.020   .     S
N610   N611    1.284   .     D
N611   Zn623   2.020   .     S
O612   Zn623   1.953   .     S
O612   C625    1.277   .     S
O615   Zn624   1.979   .     S
O616   Zn623   1.959   .     S
O616   C628    1.288   .     S
O617   Zn624   1.927   .     S
O618   Zn623   1.979   .     S
O619   Zn624   1.953   .     S
O619   C678    1.276   1_455 S
O620   Zn623   1.927   .     S
O621   Zn624   1.959   .     S
O621   C679    1.289   1_455 S
C625   O663    1.289   .     A
C625   C627    1.403   .     S
C626   C628    1.449   .     S
C626   C639    1.405   .     A
C626   C634    1.399   .     A
C627   C725    1.339   .     S
C627   H791    1.088   .     S
C628   O665    1.298   .     A
C629   C630    1.403   .     S
C630   O666    1.290   .     A
C630   O715    1.276   .     S
C631   O668    1.300   .     A
C631   C633    1.448   .     S
C631   O717    1.289   .     S
C632   C645    1.393   .     A
C633   C644    1.381   .     A
C633   C645    1.399   .     A
C634   C203    1.382   1_556 S
C635   C637    1.396   .     A
C635   H656    1.084   .     S
C636   C639    1.404   .     A
C636   C205    1.433   1_556 S
C636   C208    1.416   1_556 S
C637   C638    1.473   .     S
C638   O662    1.398   .     S
C638   O661    1.221   .     D
C639   C643    1.413   .     A
C640   C644    1.392   .     A
C641   C642    1.400   .     A
C641   C200    1.408   1_556 S
C641   C208    1.423   1_556 S
C642   O670    1.383   .     S
C642   C643    1.400   .     A
C643   H657    1.082   .     S
C644   H654    1.080   .     S
C645   H694    1.083   .     S
H648   O670    0.992   .     S
H649   O662    1.012   .     S
H650   C773    1.088   .     S
H651   N658    1.029   .     S
H652   N659    1.029   .     S
H653   C200    1.083   1_556 S
H655   C682    1.084   .     S
N658   Zn672   2.020   .     S
N658   N659    1.284   .     D
N659   Zn671   2.020   .     S
O660   Zn671   1.953   .     S
O660   C673    1.277   .     S
O663   Zn672   1.979   .     S
O664   Zn671   1.959   .     S
O664   C676    1.288   .     S
O665   Zn672   1.927   .     S
O666   Zn671   1.979   .     S
O667   Zn672   1.953   .     S
O668   Zn671   1.927   .     S
O669   Zn672   1.959   .     S
C673   O711    1.289   .     A
C673   C675    1.403   .     S
C674   C676    1.449   .     S
C674   C687    1.405   .     A
C674   C682    1.399   .     A
C675   C773    1.339   .     S
C675   H839    1.088   .     S
C676   O713    1.298   .     A
C677   C678    1.403   .     S
C677   C435    1.339   1_655 S
C678   O714    1.290   .     A
C678   O619    1.276   1_655 S
C679   O716    1.300   .     A
C679   C681    1.448   .     S
C679   O621    1.289   1_655 S
C680   C693    1.393   .     A
C681   C692    1.381   .     A
C681   C693    1.399   .     A
C682   C251    1.382   1_556 S
C683   C685    1.396   .     A
C683   H704    1.084   .     S
C684   C687    1.404   .     A
C684   C253    1.433   1_556 S
C684   C256    1.416   1_556 S
C685   C686    1.473   .     S
C686   O710    1.398   .     S
C686   O709    1.221   .     D
C687   C691    1.413   .     A
C688   C692    1.392   .     A
C689   C690    1.400   .     A
C689   C248    1.408   1_556 S
C689   C256    1.423   1_556 S
C690   O718    1.383   .     S
C690   C691    1.400   .     A
C691   H705    1.082   .     S
C692   H702    1.080   .     S
C693   H598    1.083   1_655 S
H696   O718    0.992   .     S
H697   O710    1.012   .     S
H698   C821    1.088   .     S
H699   N706    1.029   .     S
H700   N707    1.029   .     S
H701   C248    1.083   1_556 S
H703   C586    1.084   1_655 S
N706   Zn720   2.020   .     S
N706   N707    1.284   .     D
N707   Zn719   2.020   .     S
O708   Zn719   1.953   .     S
O708   C577    1.277   1_655 S
O711   Zn720   1.979   .     S
O712   Zn719   1.959   .     S
O712   C580    1.288   1_655 S
O713   Zn720   1.927   .     S
O714   Zn719   1.979   .     S
O715   Zn720   1.953   .     S
O716   Zn719   1.927   .     S
O717   Zn720   1.959   .     S
C721   O759    1.289   .     A
C721   C723    1.403   .     S
C721   O852    1.277   1_455 S
C722   C724    1.449   .     S
C722   C735    1.405   .     A
C722   C730    1.399   .     A
C723   C533    1.339   1_465 S
C723   H455    1.088   1_565 S
C724   O761    1.298   .     A
C724   O856    1.288   1_455 S
C725   C726    1.403   .     S
C726   O762    1.290   .     A
C726   O811    1.276   .     S
C727   O764    1.300   .     A
C727   C729    1.448   .     S
C727   O813    1.289   .     S
C728   C741    1.393   .     A
C729   C740    1.381   .     A
C729   C741    1.399   .     A
C730   C299    1.382   1_556 S
C730   H847    1.084   1_455 S
C731   C733    1.396   .     A
C731   H752    1.084   .     S
C732   C735    1.404   .     A
C732   C301    1.433   1_556 S
C732   C304    1.416   1_556 S
C733   C734    1.473   .     S
C734   O758    1.398   .     S
C734   O757    1.221   .     D
C735   C739    1.413   .     A
C736   C740    1.392   .     A
C737   C738    1.400   .     A
C737   C296    1.408   1_556 S
C737   C304    1.423   1_556 S
C738   O766    1.383   .     S
C738   C739    1.400   .     A
C739   H753    1.082   .     S
C740   H750    1.080   .     S
C741   H790    1.083   .     S
H742   C837    1.083   1_455 S
H744   O766    0.992   .     S
H745   O758    1.012   .     S
H746   C437    1.088   1_565 S
H747   N754    1.029   .     S
H748   N755    1.029   .     S
H749   C296    1.083   1_556 S
H751   C778    1.084   .     S
N754   Zn768   2.020   .     S
N754   N755    1.284   .     D
N755   Zn767   2.020   .     S
O756   Zn767   1.953   .     S
O756   C769    1.277   .     S
O759   Zn768   1.979   .     S
O760   Zn767   1.959   .     S
O760   C772    1.288   .     S
O761   Zn768   1.927   .     S
O762   Zn767   1.979   .     S
O763   Zn768   1.953   .     S
O763   C822    1.276   1_455 S
O764   Zn767   1.927   .     S
O765   Zn768   1.959   .     S
O765   C823    1.289   1_455 S
C769   O807    1.289   .     A
C769   C771    1.403   .     S
C770   C772    1.449   .     S
C770   C783    1.405   .     A
C770   C778    1.399   .     A
C771   C437    1.339   1_565 S
C771   H503    1.088   1_565 S
C772   O809    1.298   .     A
C773   C774    1.403   .     S
C774   O810    1.290   .     A
C774   O859    1.276   .     S
C775   O812    1.300   .     A
C775   C777    1.448   .     S
C775   O861    1.289   .     S
C776   C789    1.393   .     A
C777   C788    1.381   .     A
C777   C789    1.399   .     A
C778   C347    1.382   1_556 S
C779   C781    1.396   .     A
C779   H800    1.084   .     S
C780   C783    1.404   .     A
C780   C349    1.433   1_556 S
C780   C352    1.416   1_556 S
C781   C782    1.473   .     S
C782   O806    1.398   .     S
C782   O805    1.221   .     D
C783   C787    1.413   .     A
C784   C788    1.392   .     A
C785   C786    1.400   .     A
C785   C344    1.408   1_556 S
C785   C352    1.423   1_556 S
C786   O814    1.383   .     S
C786   C787    1.400   .     A
C787   H801    1.082   .     S
C788   H798    1.080   .     S
C789   H838    1.083   .     S
H792   O814    0.992   .     S
H793   O806    1.012   .     S
H794   C485    1.088   1_565 S
H795   N802    1.029   .     S
H796   N803    1.029   .     S
H797   C344    1.083   1_556 S
H799   C826    1.084   .     S
N802   Zn816   2.020   .     S
N802   N803    1.284   .     D
N803   Zn815   2.020   .     S
O804   Zn815   1.953   .     S
O804   C817    1.277   .     S
O807   Zn816   1.979   .     S
O808   Zn815   1.959   .     S
O808   C820    1.288   .     S
O809   Zn816   1.927   .     S
O810   Zn815   1.979   .     S
O811   Zn816   1.953   .     S
O812   Zn815   1.927   .     S
O813   Zn816   1.959   .     S
C817   O855    1.289   .     A
C817   C819    1.403   .     S
C818   C820    1.449   .     S
C818   C831    1.405   .     A
C818   C826    1.399   .     A
C819   C485    1.339   1_565 S
C819   H551    1.088   1_565 S
C820   O857    1.298   .     A
C821   C822    1.403   .     S
C821   C579    1.339   1_655 S
C822   O858    1.290   .     A
C822   O763    1.276   1_655 S
C823   O860    1.300   .     A
C823   C825    1.448   .     S
C823   O765    1.289   1_655 S
C824   C837    1.393   .     A
C825   C836    1.381   .     A
C825   C837    1.399   .     A
C826   C395    1.382   1_556 S
C827   C829    1.396   .     A
C827   H848    1.084   .     S
C828   C831    1.404   .     A
C828   C397    1.433   1_556 S
C828   C400    1.416   1_556 S
C829   C830    1.473   .     S
C830   O854    1.398   .     S
C830   O853    1.221   .     D
C831   C835    1.413   .     A
C832   C836    1.392   .     A
C833   C834    1.400   .     A
C833   C392    1.408   1_556 S
C833   C400    1.423   1_556 S
C834   O862    1.383   .     S
C834   C835    1.400   .     A
C835   H849    1.082   .     S
C836   H846    1.080   .     S
C837   H742    1.083   1_655 S
H840   O862    0.992   .     S
H841   O854    1.012   .     S
H842   C533    1.088   1_565 S
H843   N850    1.029   .     S
H844   N851    1.029   .     S
H845   C392    1.083   1_556 S
H847   C730    1.084   1_655 S
N850   Zn864   2.020   .     S
N850   N851    1.284   .     D
N851   Zn863   2.020   .     S
O852   Zn863   1.953   .     S
O852   C721    1.277   1_655 S
O855   Zn864   1.979   .     S
O856   Zn863   1.959   .     S
O856   C724    1.288   1_655 S
O857   Zn864   1.927   .     S
O858   Zn863   1.979   .     S
O859   Zn864   1.953   .     S
O860   Zn863   1.927   .     S
O861   Zn864   1.959   .     S
