data_str_m3_o1_o16_pcu_sym.136
_audit_creation_date              2020-01-03
_audit_creation_method            'Materials Studio'
_symmetry_space_group_name_H-M    'P1'
_symmetry_Int_Tables_number       1
_symmetry_cell_setting            triclinic
loop_
_symmetry_equiv_pos_as_xyz
  x,y,z
_cell_length_a                    29.6804
_cell_length_b                    32.1586
_cell_length_c                    26.3260
_cell_angle_alpha                 90.7339
_cell_angle_beta                  70.2551
_cell_angle_gamma                 90.3550
loop_
_atom_site_label
_atom_site_type_symbol
_atom_site_fract_x
_atom_site_fract_y
_atom_site_fract_z
_atom_site_U_iso_or_equiv
_atom_site_adp_type
_atom_site_occupancy
C1     C     0.16670   0.24666   0.25020   0.00000  Uiso   1.00
C2     C     0.15301   0.17914   0.48522   0.00000  Uiso   1.00
C3     C     0.15481   0.15656   0.43804   0.00000  Uiso   1.00
C4     C     0.18695   0.16902   0.01004   0.00000  Uiso   1.00
C5     C     0.22720   0.14396   0.48263   0.00000  Uiso   1.00
C6     C     0.22834   0.12229   0.43625   0.00000  Uiso   1.00
C7     C     0.19002   0.12509   0.41754   0.00000  Uiso   1.00
C8     C     0.17799   0.17752   0.06436   0.00000  Uiso   1.00
C9     C     0.25387   0.14754   0.05974   0.00000  Uiso   1.00
C10    C     0.12341   0.16791   0.41065   0.00000  Uiso   1.00
C11    C     0.20887   0.31225   0.24604   0.00000  Uiso   1.00
C12    C     0.14009   0.16540   0.35196   0.00000  Uiso   1.00
C13    C     0.20887   0.02149   0.24562   0.00000  Uiso   1.00
C14    C     0.16665   0.04249   0.24967   0.00000  Uiso   1.00
C15    C     0.12444   0.02108   0.25411   0.00000  Uiso   1.00
C16    C     0.12445   0.31184   0.25447   0.00000  Uiso   1.00
C17    C     0.16669   0.29084   0.25033   0.00000  Uiso   1.00
C18    C     0.31935   0.14171   0.21522   0.00000  Uiso   1.00
C19    C     0.03368   0.14137   0.21538   0.00000  Uiso   1.00
C20    C     0.01419   0.19121   0.28518   0.00000  Uiso   1.00
C21    C     0.29944   0.19138   0.28590   0.00000  Uiso   1.00
C22    C     0.16667   0.08667   0.24965   0.00000  Uiso   1.00
C23    C     0.19326   0.16700   0.14807   0.00000  Uiso   1.00
C24    C     0.26222   0.13612   0.00615   0.00000  Uiso   1.00
C25    C     0.21001   0.16565   0.08962   0.00000  Uiso   1.00
C26    C     0.08403   0.19347   0.43587   0.00000  Uiso   1.00
C27    C     0.08141   0.21500   0.48267   0.00000  Uiso   1.00
C28    C     0.11765   0.21096   0.00482   0.00000  Uiso   1.00
H29    H     0.27922   0.13848   0.07902   0.00000  Uiso   1.00
H30    H     0.24183   0.03780   0.24210   0.00000  Uiso   1.00
H31    H     0.09150   0.03706   0.25748   0.00000  Uiso   1.00
H32    H     0.09147   0.29553   0.25805   0.00000  Uiso   1.00
H33    H     0.30918   0.12171   0.18750   0.00000  Uiso   1.00
H34    H     0.02510   0.21080   0.31273   0.00000  Uiso   1.00
H35    H     0.25629   0.09966   0.41818   0.00000  Uiso   1.00
H36    H     0.29390   0.11817   0.48478   0.00000  Uiso   1.00
H37    H     0.14323   0.18868   0.08910   0.00000  Uiso   1.00
H38    H     0.05904   0.20147   0.41561   0.00000  Uiso   1.00
H39    H     0.05388   0.23836   0.49823   0.00000  Uiso   1.00
H40    H     0.24178   0.29627   0.24276   0.00000  Uiso   1.00
N41    N     0.04760   0.16668   0.25001   0.00000  Uiso   1.00
N42    N     0.28573   0.16665   0.25001   0.00000  Uiso   1.00
O43    O     0.12846   0.22775   0.25000   0.00000  Uiso   1.00
O44    O     0.20490   0.22774   0.25000   0.00000  Uiso   1.00
O45    O     0.10947   0.16666   0.32681   0.00000  Uiso   1.00
O46    O     0.18591   0.16665   0.32681   0.00000  Uiso   1.00
O47    O     0.12843   0.10559   0.25000   0.00000  Uiso   1.00
O48    O     0.20488   0.10558   0.25000   0.00000  Uiso   1.00
O49    O     0.14742   0.16668   0.17319   0.00000  Uiso   1.00
O50    O     0.22387   0.16667   0.17319   0.00000  Uiso   1.00
Zn51   Zn    0.11562   0.16667   0.25000   0.00000  Uiso   1.00
Zn52   Zn    0.21771   0.16666   0.25000   0.00000  Uiso   1.00
Cl53   Cl    0.07408   0.10690   0.17079   0.00000  Uiso   1.00
C54    C     0.26521   0.21876   0.32637   0.00000  Uiso   1.00
H55    H     0.23173   0.22781   0.32278   0.00000  Uiso   1.00
O56    O     0.27446   0.23221   0.36534   0.00000  Uiso   1.00
Cl57   Cl    0.12160   0.25236   0.04801   0.00000  Uiso   1.00
Cl58   Cl    0.18448   0.08479   0.37385   0.00000  Uiso   1.00
C59    C     0.50004   0.24666   0.25020   0.00000  Uiso   1.00
C60    C     0.48634   0.17914   0.48522   0.00000  Uiso   1.00
C61    C     0.48815   0.15656   0.43804   0.00000  Uiso   1.00
C62    C     0.52028   0.16902   0.01004   0.00000  Uiso   1.00
C63    C     0.56053   0.14396   0.48263   0.00000  Uiso   1.00
C64    C     0.56168   0.12229   0.43625   0.00000  Uiso   1.00
C65    C     0.52335   0.12509   0.41754   0.00000  Uiso   1.00
C66    C     0.51132   0.17752   0.06436   0.00000  Uiso   1.00
C67    C     0.58720   0.14754   0.05974   0.00000  Uiso   1.00
C68    C     0.45674   0.16791   0.41065   0.00000  Uiso   1.00
C69    C     0.54220   0.31225   0.24604   0.00000  Uiso   1.00
C70    C     0.47342   0.16540   0.35196   0.00000  Uiso   1.00
C71    C     0.54220   0.02149   0.24562   0.00000  Uiso   1.00
C72    C     0.49998   0.04249   0.24967   0.00000  Uiso   1.00
C73    C     0.45777   0.02108   0.25411   0.00000  Uiso   1.00
C74    C     0.45778   0.31184   0.25447   0.00000  Uiso   1.00
C75    C     0.50002   0.29084   0.25033   0.00000  Uiso   1.00
C76    C     0.65268   0.14171   0.21522   0.00000  Uiso   1.00
C77    C     0.36701   0.14137   0.21538   0.00000  Uiso   1.00
C78    C     0.34752   0.19121   0.28518   0.00000  Uiso   1.00
C79    C     0.63278   0.19138   0.28590   0.00000  Uiso   1.00
C80    C     0.50000   0.08667   0.24965   0.00000  Uiso   1.00
C81    C     0.52659   0.16700   0.14807   0.00000  Uiso   1.00
C82    C     0.59556   0.13612   0.00615   0.00000  Uiso   1.00
C83    C     0.54335   0.16565   0.08962   0.00000  Uiso   1.00
C84    C     0.41737   0.19347   0.43587   0.00000  Uiso   1.00
C85    C     0.41474   0.21500   0.48267   0.00000  Uiso   1.00
C86    C     0.45098   0.21096   0.00482   0.00000  Uiso   1.00
H87    H     0.61256   0.13848   0.07902   0.00000  Uiso   1.00
H88    H     0.57516   0.03780   0.24210   0.00000  Uiso   1.00
H89    H     0.42484   0.03706   0.25748   0.00000  Uiso   1.00
H90    H     0.42481   0.29553   0.25805   0.00000  Uiso   1.00
H91    H     0.64252   0.12171   0.18750   0.00000  Uiso   1.00
H92    H     0.35844   0.21080   0.31273   0.00000  Uiso   1.00
H93    H     0.58962   0.09966   0.41818   0.00000  Uiso   1.00
H94    H     0.62724   0.11817   0.48478   0.00000  Uiso   1.00
H95    H     0.47656   0.18868   0.08910   0.00000  Uiso   1.00
H96    H     0.39237   0.20147   0.41561   0.00000  Uiso   1.00
H97    H     0.38722   0.23836   0.49823   0.00000  Uiso   1.00
H98    H     0.57512   0.29627   0.24276   0.00000  Uiso   1.00
N99    N     0.38093   0.16668   0.25001   0.00000  Uiso   1.00
N100   N     0.61906   0.16665   0.25001   0.00000  Uiso   1.00
O101   O     0.46179   0.22775   0.25000   0.00000  Uiso   1.00
O102   O     0.53823   0.22774   0.25000   0.00000  Uiso   1.00
O103   O     0.44280   0.16666   0.32681   0.00000  Uiso   1.00
O104   O     0.51924   0.16665   0.32681   0.00000  Uiso   1.00
O105   O     0.46177   0.10559   0.25000   0.00000  Uiso   1.00
O106   O     0.53821   0.10558   0.25000   0.00000  Uiso   1.00
O107   O     0.48076   0.16668   0.17319   0.00000  Uiso   1.00
O108   O     0.55720   0.16667   0.17319   0.00000  Uiso   1.00
Zn109  Zn    0.44896   0.16667   0.25000   0.00000  Uiso   1.00
Zn110  Zn    0.55104   0.16666   0.25000   0.00000  Uiso   1.00
Cl111  Cl    0.40742   0.10690   0.17079   0.00000  Uiso   1.00
C112   C     0.59855   0.21876   0.32637   0.00000  Uiso   1.00
H113   H     0.56507   0.22781   0.32278   0.00000  Uiso   1.00
O114   O     0.60779   0.23221   0.36534   0.00000  Uiso   1.00
Cl115  Cl    0.45493   0.25236   0.04801   0.00000  Uiso   1.00
Cl116  Cl    0.51781   0.08479   0.37385   0.00000  Uiso   1.00
C117   C     0.83337   0.24666   0.25020   0.00000  Uiso   1.00
C118   C     0.81967   0.17914   0.48522   0.00000  Uiso   1.00
C119   C     0.82148   0.15656   0.43804   0.00000  Uiso   1.00
C120   C     0.85362   0.16902   0.01004   0.00000  Uiso   1.00
C121   C     0.89387   0.14396   0.48263   0.00000  Uiso   1.00
C122   C     0.89501   0.12229   0.43625   0.00000  Uiso   1.00
C123   C     0.85668   0.12509   0.41754   0.00000  Uiso   1.00
C124   C     0.84465   0.17752   0.06436   0.00000  Uiso   1.00
C125   C     0.92053   0.14754   0.05974   0.00000  Uiso   1.00
C126   C     0.79007   0.16791   0.41065   0.00000  Uiso   1.00
C127   C     0.87553   0.31225   0.24604   0.00000  Uiso   1.00
C128   C     0.80675   0.16540   0.35196   0.00000  Uiso   1.00
C129   C     0.87554   0.02149   0.24562   0.00000  Uiso   1.00
C130   C     0.83332   0.04249   0.24967   0.00000  Uiso   1.00
C131   C     0.79111   0.02108   0.25411   0.00000  Uiso   1.00
C132   C     0.79111   0.31184   0.25447   0.00000  Uiso   1.00
C133   C     0.83336   0.29084   0.25033   0.00000  Uiso   1.00
C134   C     0.98601   0.14171   0.21522   0.00000  Uiso   1.00
C135   C     0.70035   0.14137   0.21538   0.00000  Uiso   1.00
C136   C     0.68086   0.19121   0.28518   0.00000  Uiso   1.00
C137   C     0.96611   0.19138   0.28590   0.00000  Uiso   1.00
C138   C     0.83334   0.08667   0.24965   0.00000  Uiso   1.00
C139   C     0.85993   0.16700   0.14807   0.00000  Uiso   1.00
C140   C     0.92889   0.13612   0.00615   0.00000  Uiso   1.00
C141   C     0.87668   0.16565   0.08962   0.00000  Uiso   1.00
C142   C     0.75070   0.19347   0.43587   0.00000  Uiso   1.00
C143   C     0.74807   0.21500   0.48267   0.00000  Uiso   1.00
C144   C     0.78432   0.21096   0.00482   0.00000  Uiso   1.00
H145   H     0.94589   0.13848   0.07902   0.00000  Uiso   1.00
H146   H     0.90850   0.03780   0.24210   0.00000  Uiso   1.00
H147   H     0.75817   0.03706   0.25748   0.00000  Uiso   1.00
H148   H     0.75814   0.29553   0.25805   0.00000  Uiso   1.00
H149   H     0.97585   0.12171   0.18750   0.00000  Uiso   1.00
H150   H     0.69177   0.21080   0.31273   0.00000  Uiso   1.00
H151   H     0.92296   0.09966   0.41818   0.00000  Uiso   1.00
H152   H     0.96057   0.11817   0.48478   0.00000  Uiso   1.00
H153   H     0.80990   0.18868   0.08910   0.00000  Uiso   1.00
H154   H     0.72570   0.20147   0.41561   0.00000  Uiso   1.00
H155   H     0.72055   0.23836   0.49823   0.00000  Uiso   1.00
H156   H     0.90845   0.29627   0.24276   0.00000  Uiso   1.00
N157   N     0.71426   0.16668   0.25001   0.00000  Uiso   1.00
N158   N     0.95239   0.16665   0.25001   0.00000  Uiso   1.00
O159   O     0.79512   0.22775   0.25000   0.00000  Uiso   1.00
O160   O     0.87157   0.22774   0.25000   0.00000  Uiso   1.00
O161   O     0.77613   0.16666   0.32681   0.00000  Uiso   1.00
O162   O     0.85258   0.16665   0.32681   0.00000  Uiso   1.00
O163   O     0.79510   0.10559   0.25000   0.00000  Uiso   1.00
O164   O     0.87154   0.10558   0.25000   0.00000  Uiso   1.00
O165   O     0.81409   0.16668   0.17319   0.00000  Uiso   1.00
O166   O     0.89053   0.16667   0.17319   0.00000  Uiso   1.00
Zn167  Zn    0.78229   0.16667   0.25000   0.00000  Uiso   1.00
Zn168  Zn    0.88438   0.16666   0.25000   0.00000  Uiso   1.00
Cl169  Cl    0.74075   0.10690   0.17079   0.00000  Uiso   1.00
C170   C     0.93188   0.21876   0.32637   0.00000  Uiso   1.00
H171   H     0.89840   0.22781   0.32278   0.00000  Uiso   1.00
O172   O     0.94113   0.23221   0.36534   0.00000  Uiso   1.00
Cl173  Cl    0.78827   0.25236   0.04801   0.00000  Uiso   1.00
Cl174  Cl    0.85114   0.08479   0.37385   0.00000  Uiso   1.00
C175   C     0.16670   0.57999   0.25020   0.00000  Uiso   1.00
C176   C     0.15301   0.51247   0.48522   0.00000  Uiso   1.00
C177   C     0.15481   0.48989   0.43804   0.00000  Uiso   1.00
C178   C     0.18695   0.50236   0.01004   0.00000  Uiso   1.00
C179   C     0.22720   0.47729   0.48263   0.00000  Uiso   1.00
C180   C     0.22834   0.45562   0.43625   0.00000  Uiso   1.00
C181   C     0.19002   0.45842   0.41754   0.00000  Uiso   1.00
C182   C     0.17799   0.51085   0.06436   0.00000  Uiso   1.00
C183   C     0.25387   0.48087   0.05974   0.00000  Uiso   1.00
C184   C     0.12341   0.50125   0.41065   0.00000  Uiso   1.00
C185   C     0.20887   0.64558   0.24604   0.00000  Uiso   1.00
C186   C     0.14009   0.49874   0.35196   0.00000  Uiso   1.00
C187   C     0.20887   0.35483   0.24562   0.00000  Uiso   1.00
C188   C     0.16665   0.37582   0.24967   0.00000  Uiso   1.00
C189   C     0.12444   0.35442   0.25411   0.00000  Uiso   1.00
C190   C     0.12445   0.64517   0.25447   0.00000  Uiso   1.00
C191   C     0.16669   0.62418   0.25033   0.00000  Uiso   1.00
C192   C     0.31935   0.47504   0.21522   0.00000  Uiso   1.00
C193   C     0.03368   0.47471   0.21538   0.00000  Uiso   1.00
C194   C     0.01419   0.52455   0.28518   0.00000  Uiso   1.00
C195   C     0.29944   0.52471   0.28590   0.00000  Uiso   1.00
C196   C     0.16667   0.42000   0.24965   0.00000  Uiso   1.00
C197   C     0.19326   0.50034   0.14807   0.00000  Uiso   1.00
C198   C     0.26222   0.46945   0.00615   0.00000  Uiso   1.00
C199   C     0.21001   0.49899   0.08962   0.00000  Uiso   1.00
C200   C     0.08403   0.52681   0.43587   0.00000  Uiso   1.00
C201   C     0.08141   0.54833   0.48267   0.00000  Uiso   1.00
C202   C     0.11765   0.54430   0.00482   0.00000  Uiso   1.00
H203   H     0.27922   0.47181   0.07902   0.00000  Uiso   1.00
H204   H     0.24183   0.37114   0.24210   0.00000  Uiso   1.00
H205   H     0.09150   0.37040   0.25748   0.00000  Uiso   1.00
H206   H     0.09147   0.62887   0.25805   0.00000  Uiso   1.00
H207   H     0.30918   0.45504   0.18750   0.00000  Uiso   1.00
H208   H     0.02510   0.54414   0.31273   0.00000  Uiso   1.00
H209   H     0.25629   0.43299   0.41818   0.00000  Uiso   1.00
H210   H     0.29390   0.45150   0.48478   0.00000  Uiso   1.00
H211   H     0.14323   0.52201   0.08910   0.00000  Uiso   1.00
H212   H     0.05904   0.53480   0.41561   0.00000  Uiso   1.00
H213   H     0.05388   0.57169   0.49823   0.00000  Uiso   1.00
H214   H     0.24178   0.62960   0.24276   0.00000  Uiso   1.00
N215   N     0.04760   0.50001   0.25001   0.00000  Uiso   1.00
N216   N     0.28573   0.49998   0.25001   0.00000  Uiso   1.00
O217   O     0.12846   0.56108   0.25000   0.00000  Uiso   1.00
O218   O     0.20490   0.56107   0.25000   0.00000  Uiso   1.00
O219   O     0.10947   0.50000   0.32681   0.00000  Uiso   1.00
O220   O     0.18591   0.49999   0.32681   0.00000  Uiso   1.00
O221   O     0.12843   0.43893   0.25000   0.00000  Uiso   1.00
O222   O     0.20488   0.43892   0.25000   0.00000  Uiso   1.00
O223   O     0.14742   0.50001   0.17319   0.00000  Uiso   1.00
O224   O     0.22387   0.50000   0.17319   0.00000  Uiso   1.00
Zn225  Zn    0.11562   0.50001   0.25000   0.00000  Uiso   1.00
Zn226  Zn    0.21771   0.49999   0.25000   0.00000  Uiso   1.00
Cl227  Cl    0.07408   0.44023   0.17079   0.00000  Uiso   1.00
C228   C     0.26521   0.55209   0.32637   0.00000  Uiso   1.00
H229   H     0.23173   0.56114   0.32278   0.00000  Uiso   1.00
O230   O     0.27446   0.56554   0.36534   0.00000  Uiso   1.00
Cl231  Cl    0.12160   0.58570   0.04801   0.00000  Uiso   1.00
Cl232  Cl    0.18448   0.41812   0.37385   0.00000  Uiso   1.00
C233   C     0.50004   0.57999   0.25020   0.00000  Uiso   1.00
C234   C     0.48634   0.51247   0.48522   0.00000  Uiso   1.00
C235   C     0.48815   0.48989   0.43804   0.00000  Uiso   1.00
C236   C     0.52028   0.50236   0.01004   0.00000  Uiso   1.00
C237   C     0.56053   0.47729   0.48263   0.00000  Uiso   1.00
C238   C     0.56168   0.45562   0.43625   0.00000  Uiso   1.00
C239   C     0.52335   0.45842   0.41754   0.00000  Uiso   1.00
C240   C     0.51132   0.51085   0.06436   0.00000  Uiso   1.00
C241   C     0.58720   0.48087   0.05974   0.00000  Uiso   1.00
C242   C     0.45674   0.50125   0.41065   0.00000  Uiso   1.00
C243   C     0.54220   0.64558   0.24604   0.00000  Uiso   1.00
C244   C     0.47342   0.49874   0.35196   0.00000  Uiso   1.00
C245   C     0.54220   0.35483   0.24562   0.00000  Uiso   1.00
C246   C     0.49998   0.37582   0.24967   0.00000  Uiso   1.00
C247   C     0.45777   0.35442   0.25411   0.00000  Uiso   1.00
C248   C     0.45778   0.64517   0.25447   0.00000  Uiso   1.00
C249   C     0.50002   0.62418   0.25033   0.00000  Uiso   1.00
C250   C     0.65268   0.47504   0.21522   0.00000  Uiso   1.00
C251   C     0.36701   0.47471   0.21538   0.00000  Uiso   1.00
C252   C     0.34752   0.52455   0.28518   0.00000  Uiso   1.00
C253   C     0.63278   0.52471   0.28590   0.00000  Uiso   1.00
C254   C     0.50000   0.42000   0.24965   0.00000  Uiso   1.00
C255   C     0.52659   0.50034   0.14807   0.00000  Uiso   1.00
C256   C     0.59556   0.46945   0.00615   0.00000  Uiso   1.00
C257   C     0.54335   0.49899   0.08962   0.00000  Uiso   1.00
C258   C     0.41737   0.52681   0.43587   0.00000  Uiso   1.00
C259   C     0.41474   0.54833   0.48267   0.00000  Uiso   1.00
C260   C     0.45098   0.54430   0.00482   0.00000  Uiso   1.00
H261   H     0.61256   0.47181   0.07902   0.00000  Uiso   1.00
H262   H     0.57516   0.37114   0.24210   0.00000  Uiso   1.00
H263   H     0.42484   0.37040   0.25748   0.00000  Uiso   1.00
H264   H     0.42481   0.62887   0.25805   0.00000  Uiso   1.00
H265   H     0.64252   0.45504   0.18750   0.00000  Uiso   1.00
H266   H     0.35844   0.54414   0.31273   0.00000  Uiso   1.00
H267   H     0.58962   0.43299   0.41818   0.00000  Uiso   1.00
H268   H     0.62724   0.45150   0.48478   0.00000  Uiso   1.00
H269   H     0.47656   0.52201   0.08910   0.00000  Uiso   1.00
H270   H     0.39237   0.53480   0.41561   0.00000  Uiso   1.00
H271   H     0.38722   0.57169   0.49823   0.00000  Uiso   1.00
H272   H     0.57512   0.62960   0.24276   0.00000  Uiso   1.00
N273   N     0.38093   0.50001   0.25001   0.00000  Uiso   1.00
N274   N     0.61906   0.49998   0.25001   0.00000  Uiso   1.00
O275   O     0.46179   0.56108   0.25000   0.00000  Uiso   1.00
O276   O     0.53823   0.56107   0.25000   0.00000  Uiso   1.00
O277   O     0.44280   0.50000   0.32681   0.00000  Uiso   1.00
O278   O     0.51924   0.49999   0.32681   0.00000  Uiso   1.00
O279   O     0.46177   0.43893   0.25000   0.00000  Uiso   1.00
O280   O     0.53821   0.43892   0.25000   0.00000  Uiso   1.00
O281   O     0.48076   0.50001   0.17319   0.00000  Uiso   1.00
O282   O     0.55720   0.50000   0.17319   0.00000  Uiso   1.00
Zn283  Zn    0.44896   0.50001   0.25000   0.00000  Uiso   1.00
Zn284  Zn    0.55104   0.49999   0.25000   0.00000  Uiso   1.00
Cl285  Cl    0.40742   0.44023   0.17079   0.00000  Uiso   1.00
C286   C     0.59855   0.55209   0.32637   0.00000  Uiso   1.00
H287   H     0.56507   0.56114   0.32278   0.00000  Uiso   1.00
O288   O     0.60779   0.56554   0.36534   0.00000  Uiso   1.00
Cl289  Cl    0.45493   0.58570   0.04801   0.00000  Uiso   1.00
Cl290  Cl    0.51781   0.41812   0.37385   0.00000  Uiso   1.00
C291   C     0.83337   0.57999   0.25020   0.00000  Uiso   1.00
C292   C     0.81967   0.51247   0.48522   0.00000  Uiso   1.00
C293   C     0.82148   0.48989   0.43804   0.00000  Uiso   1.00
C294   C     0.85362   0.50236   0.01004   0.00000  Uiso   1.00
C295   C     0.89387   0.47729   0.48263   0.00000  Uiso   1.00
C296   C     0.89501   0.45562   0.43625   0.00000  Uiso   1.00
C297   C     0.85668   0.45842   0.41754   0.00000  Uiso   1.00
C298   C     0.84465   0.51085   0.06436   0.00000  Uiso   1.00
C299   C     0.92053   0.48087   0.05974   0.00000  Uiso   1.00
C300   C     0.79007   0.50125   0.41065   0.00000  Uiso   1.00
C301   C     0.87553   0.64558   0.24604   0.00000  Uiso   1.00
C302   C     0.80675   0.49874   0.35196   0.00000  Uiso   1.00
C303   C     0.87554   0.35483   0.24562   0.00000  Uiso   1.00
C304   C     0.83332   0.37582   0.24967   0.00000  Uiso   1.00
C305   C     0.79111   0.35442   0.25411   0.00000  Uiso   1.00
C306   C     0.79111   0.64517   0.25447   0.00000  Uiso   1.00
C307   C     0.83336   0.62418   0.25033   0.00000  Uiso   1.00
C308   C     0.98601   0.47504   0.21522   0.00000  Uiso   1.00
C309   C     0.70035   0.47471   0.21538   0.00000  Uiso   1.00
C310   C     0.68086   0.52455   0.28518   0.00000  Uiso   1.00
C311   C     0.96611   0.52471   0.28590   0.00000  Uiso   1.00
C312   C     0.83334   0.42000   0.24965   0.00000  Uiso   1.00
C313   C     0.85993   0.50034   0.14807   0.00000  Uiso   1.00
C314   C     0.92889   0.46945   0.00615   0.00000  Uiso   1.00
C315   C     0.87668   0.49899   0.08962   0.00000  Uiso   1.00
C316   C     0.75070   0.52681   0.43587   0.00000  Uiso   1.00
C317   C     0.74807   0.54833   0.48267   0.00000  Uiso   1.00
C318   C     0.78432   0.54430   0.00482   0.00000  Uiso   1.00
H319   H     0.94589   0.47181   0.07902   0.00000  Uiso   1.00
H320   H     0.90850   0.37114   0.24210   0.00000  Uiso   1.00
H321   H     0.75817   0.37040   0.25748   0.00000  Uiso   1.00
H322   H     0.75814   0.62887   0.25805   0.00000  Uiso   1.00
H323   H     0.97585   0.45504   0.18750   0.00000  Uiso   1.00
H324   H     0.69177   0.54414   0.31273   0.00000  Uiso   1.00
H325   H     0.92296   0.43299   0.41818   0.00000  Uiso   1.00
H326   H     0.96057   0.45150   0.48478   0.00000  Uiso   1.00
H327   H     0.80990   0.52201   0.08910   0.00000  Uiso   1.00
H328   H     0.72570   0.53480   0.41561   0.00000  Uiso   1.00
H329   H     0.72055   0.57169   0.49823   0.00000  Uiso   1.00
H330   H     0.90845   0.62960   0.24276   0.00000  Uiso   1.00
N331   N     0.71426   0.50001   0.25001   0.00000  Uiso   1.00
N332   N     0.95239   0.49998   0.25001   0.00000  Uiso   1.00
O333   O     0.79512   0.56108   0.25000   0.00000  Uiso   1.00
O334   O     0.87157   0.56107   0.25000   0.00000  Uiso   1.00
O335   O     0.77613   0.50000   0.32681   0.00000  Uiso   1.00
O336   O     0.85258   0.49999   0.32681   0.00000  Uiso   1.00
O337   O     0.79510   0.43893   0.25000   0.00000  Uiso   1.00
O338   O     0.87154   0.43892   0.25000   0.00000  Uiso   1.00
O339   O     0.81409   0.50001   0.17319   0.00000  Uiso   1.00
O340   O     0.89053   0.50000   0.17319   0.00000  Uiso   1.00
Zn341  Zn    0.78229   0.50001   0.25000   0.00000  Uiso   1.00
Zn342  Zn    0.88438   0.49999   0.25000   0.00000  Uiso   1.00
Cl343  Cl    0.74075   0.44023   0.17079   0.00000  Uiso   1.00
C344   C     0.93188   0.55209   0.32637   0.00000  Uiso   1.00
H345   H     0.89840   0.56114   0.32278   0.00000  Uiso   1.00
O346   O     0.94113   0.56554   0.36534   0.00000  Uiso   1.00
Cl347  Cl    0.78827   0.58570   0.04801   0.00000  Uiso   1.00
Cl348  Cl    0.85114   0.41812   0.37385   0.00000  Uiso   1.00
C349   C     0.16670   0.91333   0.25020   0.00000  Uiso   1.00
C350   C     0.15301   0.84581   0.48522   0.00000  Uiso   1.00
C351   C     0.15481   0.82322   0.43804   0.00000  Uiso   1.00
C352   C     0.18695   0.83569   0.01004   0.00000  Uiso   1.00
C353   C     0.22720   0.81063   0.48263   0.00000  Uiso   1.00
C354   C     0.22834   0.78895   0.43625   0.00000  Uiso   1.00
C355   C     0.19002   0.79176   0.41754   0.00000  Uiso   1.00
C356   C     0.17799   0.84419   0.06436   0.00000  Uiso   1.00
C357   C     0.25387   0.81421   0.05974   0.00000  Uiso   1.00
C358   C     0.12341   0.83458   0.41065   0.00000  Uiso   1.00
C359   C     0.20887   0.97892   0.24604   0.00000  Uiso   1.00
C360   C     0.14009   0.83207   0.35196   0.00000  Uiso   1.00
C361   C     0.20887   0.68816   0.24562   0.00000  Uiso   1.00
C362   C     0.16665   0.70915   0.24967   0.00000  Uiso   1.00
C363   C     0.12444   0.68775   0.25411   0.00000  Uiso   1.00
C364   C     0.12445   0.97850   0.25447   0.00000  Uiso   1.00
C365   C     0.16669   0.95751   0.25033   0.00000  Uiso   1.00
C366   C     0.31935   0.80837   0.21522   0.00000  Uiso   1.00
C367   C     0.03368   0.80804   0.21538   0.00000  Uiso   1.00
C368   C     0.01419   0.85788   0.28518   0.00000  Uiso   1.00
C369   C     0.29944   0.85804   0.28590   0.00000  Uiso   1.00
C370   C     0.16667   0.75334   0.24965   0.00000  Uiso   1.00
C371   C     0.19326   0.83367   0.14807   0.00000  Uiso   1.00
C372   C     0.26222   0.80279   0.00615   0.00000  Uiso   1.00
C373   C     0.21001   0.83232   0.08962   0.00000  Uiso   1.00
C374   C     0.08403   0.86014   0.43587   0.00000  Uiso   1.00
C375   C     0.08141   0.88166   0.48267   0.00000  Uiso   1.00
C376   C     0.11765   0.87763   0.00482   0.00000  Uiso   1.00
H377   H     0.27922   0.80514   0.07902   0.00000  Uiso   1.00
H378   H     0.24183   0.70447   0.24210   0.00000  Uiso   1.00
H379   H     0.09150   0.70373   0.25748   0.00000  Uiso   1.00
H380   H     0.09147   0.96220   0.25805   0.00000  Uiso   1.00
H381   H     0.30918   0.78838   0.18750   0.00000  Uiso   1.00
H382   H     0.02510   0.87747   0.31273   0.00000  Uiso   1.00
H383   H     0.25629   0.76632   0.41818   0.00000  Uiso   1.00
H384   H     0.29390   0.78484   0.48478   0.00000  Uiso   1.00
H385   H     0.14323   0.85534   0.08910   0.00000  Uiso   1.00
H386   H     0.05904   0.86814   0.41561   0.00000  Uiso   1.00
H387   H     0.05388   0.90503   0.49823   0.00000  Uiso   1.00
H388   H     0.24178   0.96293   0.24276   0.00000  Uiso   1.00
N389   N     0.04760   0.83334   0.25001   0.00000  Uiso   1.00
N390   N     0.28573   0.83331   0.25001   0.00000  Uiso   1.00
O391   O     0.12846   0.89442   0.25000   0.00000  Uiso   1.00
O392   O     0.20490   0.89441   0.25000   0.00000  Uiso   1.00
O393   O     0.10947   0.83333   0.32681   0.00000  Uiso   1.00
O394   O     0.18591   0.83332   0.32681   0.00000  Uiso   1.00
O395   O     0.12843   0.77226   0.25000   0.00000  Uiso   1.00
O396   O     0.20488   0.77225   0.25000   0.00000  Uiso   1.00
O397   O     0.14742   0.83335   0.17319   0.00000  Uiso   1.00
O398   O     0.22387   0.83334   0.17319   0.00000  Uiso   1.00
Zn399  Zn    0.11562   0.83334   0.25000   0.00000  Uiso   1.00
Zn400  Zn    0.21771   0.83333   0.25000   0.00000  Uiso   1.00
Cl401  Cl    0.07408   0.77357   0.17079   0.00000  Uiso   1.00
C402   C     0.26521   0.88543   0.32637   0.00000  Uiso   1.00
H403   H     0.23173   0.89448   0.32278   0.00000  Uiso   1.00
O404   O     0.27446   0.89888   0.36534   0.00000  Uiso   1.00
Cl405  Cl    0.12160   0.91903   0.04801   0.00000  Uiso   1.00
Cl406  Cl    0.18448   0.75145   0.37385   0.00000  Uiso   1.00
C407   C     0.50004   0.91333   0.25020   0.00000  Uiso   1.00
C408   C     0.48634   0.84581   0.48522   0.00000  Uiso   1.00
C409   C     0.48815   0.82322   0.43804   0.00000  Uiso   1.00
C410   C     0.52028   0.83569   0.01004   0.00000  Uiso   1.00
C411   C     0.56053   0.81063   0.48263   0.00000  Uiso   1.00
C412   C     0.56168   0.78895   0.43625   0.00000  Uiso   1.00
C413   C     0.52335   0.79176   0.41754   0.00000  Uiso   1.00
C414   C     0.51132   0.84419   0.06436   0.00000  Uiso   1.00
C415   C     0.58720   0.81421   0.05974   0.00000  Uiso   1.00
C416   C     0.45674   0.83458   0.41065   0.00000  Uiso   1.00
C417   C     0.54220   0.97892   0.24604   0.00000  Uiso   1.00
C418   C     0.47342   0.83207   0.35196   0.00000  Uiso   1.00
C419   C     0.54220   0.68816   0.24562   0.00000  Uiso   1.00
C420   C     0.49998   0.70915   0.24967   0.00000  Uiso   1.00
C421   C     0.45777   0.68775   0.25411   0.00000  Uiso   1.00
C422   C     0.45778   0.97850   0.25447   0.00000  Uiso   1.00
C423   C     0.50002   0.95751   0.25033   0.00000  Uiso   1.00
C424   C     0.65268   0.80837   0.21522   0.00000  Uiso   1.00
C425   C     0.36701   0.80804   0.21538   0.00000  Uiso   1.00
C426   C     0.34752   0.85788   0.28518   0.00000  Uiso   1.00
C427   C     0.63278   0.85804   0.28590   0.00000  Uiso   1.00
C428   C     0.50000   0.75334   0.24965   0.00000  Uiso   1.00
C429   C     0.52659   0.83367   0.14807   0.00000  Uiso   1.00
C430   C     0.59556   0.80279   0.00615   0.00000  Uiso   1.00
C431   C     0.54335   0.83232   0.08962   0.00000  Uiso   1.00
C432   C     0.41737   0.86014   0.43587   0.00000  Uiso   1.00
C433   C     0.41474   0.88166   0.48267   0.00000  Uiso   1.00
C434   C     0.45098   0.87763   0.00482   0.00000  Uiso   1.00
H435   H     0.61256   0.80514   0.07902   0.00000  Uiso   1.00
H436   H     0.57516   0.70447   0.24210   0.00000  Uiso   1.00
H437   H     0.42484   0.70373   0.25748   0.00000  Uiso   1.00
H438   H     0.42481   0.96220   0.25805   0.00000  Uiso   1.00
H439   H     0.64252   0.78838   0.18750   0.00000  Uiso   1.00
H440   H     0.35844   0.87747   0.31273   0.00000  Uiso   1.00
H441   H     0.58962   0.76632   0.41818   0.00000  Uiso   1.00
H442   H     0.62724   0.78484   0.48478   0.00000  Uiso   1.00
H443   H     0.47656   0.85534   0.08910   0.00000  Uiso   1.00
H444   H     0.39237   0.86814   0.41561   0.00000  Uiso   1.00
H445   H     0.38722   0.90503   0.49823   0.00000  Uiso   1.00
H446   H     0.57512   0.96293   0.24276   0.00000  Uiso   1.00
N447   N     0.38093   0.83334   0.25001   0.00000  Uiso   1.00
N448   N     0.61906   0.83331   0.25001   0.00000  Uiso   1.00
O449   O     0.46179   0.89442   0.25000   0.00000  Uiso   1.00
O450   O     0.53823   0.89441   0.25000   0.00000  Uiso   1.00
O451   O     0.44280   0.83333   0.32681   0.00000  Uiso   1.00
O452   O     0.51924   0.83332   0.32681   0.00000  Uiso   1.00
O453   O     0.46177   0.77226   0.25000   0.00000  Uiso   1.00
O454   O     0.53821   0.77225   0.25000   0.00000  Uiso   1.00
O455   O     0.48076   0.83335   0.17319   0.00000  Uiso   1.00
O456   O     0.55720   0.83334   0.17319   0.00000  Uiso   1.00
Zn457  Zn    0.44896   0.83334   0.25000   0.00000  Uiso   1.00
Zn458  Zn    0.55104   0.83333   0.25000   0.00000  Uiso   1.00
Cl459  Cl    0.40742   0.77357   0.17079   0.00000  Uiso   1.00
C460   C     0.59855   0.88543   0.32637   0.00000  Uiso   1.00
H461   H     0.56507   0.89448   0.32278   0.00000  Uiso   1.00
O462   O     0.60779   0.89888   0.36534   0.00000  Uiso   1.00
Cl463  Cl    0.45493   0.91903   0.04801   0.00000  Uiso   1.00
Cl464  Cl    0.51781   0.75145   0.37385   0.00000  Uiso   1.00
C465   C     0.83337   0.91333   0.25020   0.00000  Uiso   1.00
C466   C     0.81967   0.84581   0.48522   0.00000  Uiso   1.00
C467   C     0.82148   0.82322   0.43804   0.00000  Uiso   1.00
C468   C     0.85362   0.83569   0.01004   0.00000  Uiso   1.00
C469   C     0.89387   0.81063   0.48263   0.00000  Uiso   1.00
C470   C     0.89501   0.78895   0.43625   0.00000  Uiso   1.00
C471   C     0.85668   0.79176   0.41754   0.00000  Uiso   1.00
C472   C     0.84465   0.84419   0.06436   0.00000  Uiso   1.00
C473   C     0.92053   0.81421   0.05974   0.00000  Uiso   1.00
C474   C     0.79007   0.83458   0.41065   0.00000  Uiso   1.00
C475   C     0.87553   0.97892   0.24604   0.00000  Uiso   1.00
C476   C     0.80675   0.83207   0.35196   0.00000  Uiso   1.00
C477   C     0.87554   0.68816   0.24562   0.00000  Uiso   1.00
C478   C     0.83332   0.70915   0.24967   0.00000  Uiso   1.00
C479   C     0.79111   0.68775   0.25411   0.00000  Uiso   1.00
C480   C     0.79111   0.97850   0.25447   0.00000  Uiso   1.00
C481   C     0.83336   0.95751   0.25033   0.00000  Uiso   1.00
C482   C     0.98601   0.80837   0.21522   0.00000  Uiso   1.00
C483   C     0.70035   0.80804   0.21538   0.00000  Uiso   1.00
C484   C     0.68086   0.85788   0.28518   0.00000  Uiso   1.00
C485   C     0.96611   0.85804   0.28590   0.00000  Uiso   1.00
C486   C     0.83334   0.75334   0.24965   0.00000  Uiso   1.00
C487   C     0.85993   0.83367   0.14807   0.00000  Uiso   1.00
C488   C     0.92889   0.80279   0.00615   0.00000  Uiso   1.00
C489   C     0.87668   0.83232   0.08962   0.00000  Uiso   1.00
C490   C     0.75070   0.86014   0.43587   0.00000  Uiso   1.00
C491   C     0.74807   0.88166   0.48267   0.00000  Uiso   1.00
C492   C     0.78432   0.87763   0.00482   0.00000  Uiso   1.00
H493   H     0.94589   0.80514   0.07902   0.00000  Uiso   1.00
H494   H     0.90850   0.70447   0.24210   0.00000  Uiso   1.00
H495   H     0.75817   0.70373   0.25748   0.00000  Uiso   1.00
H496   H     0.75814   0.96220   0.25805   0.00000  Uiso   1.00
H497   H     0.97585   0.78838   0.18750   0.00000  Uiso   1.00
H498   H     0.69177   0.87747   0.31273   0.00000  Uiso   1.00
H499   H     0.92296   0.76632   0.41818   0.00000  Uiso   1.00
H500   H     0.96057   0.78484   0.48478   0.00000  Uiso   1.00
H501   H     0.80990   0.85534   0.08910   0.00000  Uiso   1.00
H502   H     0.72570   0.86814   0.41561   0.00000  Uiso   1.00
H503   H     0.72055   0.90503   0.49823   0.00000  Uiso   1.00
H504   H     0.90845   0.96293   0.24276   0.00000  Uiso   1.00
N505   N     0.71426   0.83334   0.25001   0.00000  Uiso   1.00
N506   N     0.95239   0.83331   0.25001   0.00000  Uiso   1.00
O507   O     0.79512   0.89442   0.25000   0.00000  Uiso   1.00
O508   O     0.87157   0.89441   0.25000   0.00000  Uiso   1.00
O509   O     0.77613   0.83333   0.32681   0.00000  Uiso   1.00
O510   O     0.85258   0.83332   0.32681   0.00000  Uiso   1.00
O511   O     0.79510   0.77226   0.25000   0.00000  Uiso   1.00
O512   O     0.87154   0.77225   0.25000   0.00000  Uiso   1.00
O513   O     0.81409   0.83335   0.17319   0.00000  Uiso   1.00
O514   O     0.89053   0.83334   0.17319   0.00000  Uiso   1.00
Zn515  Zn    0.78229   0.83334   0.25000   0.00000  Uiso   1.00
Zn516  Zn    0.88438   0.83333   0.25000   0.00000  Uiso   1.00
Cl517  Cl    0.74075   0.77357   0.17079   0.00000  Uiso   1.00
C518   C     0.93188   0.88543   0.32637   0.00000  Uiso   1.00
H519   H     0.89840   0.89448   0.32278   0.00000  Uiso   1.00
O520   O     0.94113   0.89888   0.36534   0.00000  Uiso   1.00
Cl521  Cl    0.78827   0.91903   0.04801   0.00000  Uiso   1.00
Cl522  Cl    0.85114   0.75145   0.37385   0.00000  Uiso   1.00
C523   C     0.16670   0.24666   0.75020   0.00000  Uiso   1.00
C524   C     0.15301   0.17914   0.98522   0.00000  Uiso   1.00
C525   C     0.15481   0.15656   0.93804   0.00000  Uiso   1.00
C526   C     0.18695   0.16902   0.51004   0.00000  Uiso   1.00
C527   C     0.22720   0.14396   0.98263   0.00000  Uiso   1.00
C528   C     0.22834   0.12229   0.93625   0.00000  Uiso   1.00
C529   C     0.19002   0.12509   0.91754   0.00000  Uiso   1.00
C530   C     0.17799   0.17752   0.56436   0.00000  Uiso   1.00
C531   C     0.25387   0.14754   0.55974   0.00000  Uiso   1.00
C532   C     0.12341   0.16791   0.91065   0.00000  Uiso   1.00
C533   C     0.20887   0.31225   0.74604   0.00000  Uiso   1.00
C534   C     0.14009   0.16540   0.85196   0.00000  Uiso   1.00
C535   C     0.20887   0.02149   0.74562   0.00000  Uiso   1.00
C536   C     0.16665   0.04249   0.74967   0.00000  Uiso   1.00
C537   C     0.12444   0.02108   0.75411   0.00000  Uiso   1.00
C538   C     0.12445   0.31184   0.75447   0.00000  Uiso   1.00
C539   C     0.16669   0.29084   0.75033   0.00000  Uiso   1.00
C540   C     0.31935   0.14171   0.71522   0.00000  Uiso   1.00
C541   C     0.03368   0.14137   0.71538   0.00000  Uiso   1.00
C542   C     0.01419   0.19121   0.78518   0.00000  Uiso   1.00
C543   C     0.29944   0.19138   0.78590   0.00000  Uiso   1.00
C544   C     0.16667   0.08667   0.74965   0.00000  Uiso   1.00
C545   C     0.19326   0.16700   0.64807   0.00000  Uiso   1.00
C546   C     0.26222   0.13612   0.50615   0.00000  Uiso   1.00
C547   C     0.21001   0.16565   0.58962   0.00000  Uiso   1.00
C548   C     0.08403   0.19347   0.93587   0.00000  Uiso   1.00
C549   C     0.08141   0.21500   0.98267   0.00000  Uiso   1.00
C550   C     0.11765   0.21096   0.50482   0.00000  Uiso   1.00
H551   H     0.27922   0.13848   0.57902   0.00000  Uiso   1.00
H552   H     0.24183   0.03780   0.74210   0.00000  Uiso   1.00
H553   H     0.09150   0.03706   0.75748   0.00000  Uiso   1.00
H554   H     0.09147   0.29553   0.75805   0.00000  Uiso   1.00
H555   H     0.30918   0.12171   0.68750   0.00000  Uiso   1.00
H556   H     0.02510   0.21080   0.81273   0.00000  Uiso   1.00
H557   H     0.25629   0.09966   0.91818   0.00000  Uiso   1.00
H558   H     0.29390   0.11817   0.98478   0.00000  Uiso   1.00
H559   H     0.14323   0.18868   0.58910   0.00000  Uiso   1.00
H560   H     0.05904   0.20147   0.91561   0.00000  Uiso   1.00
H561   H     0.05388   0.23836   0.99823   0.00000  Uiso   1.00
H562   H     0.24178   0.29627   0.74276   0.00000  Uiso   1.00
N563   N     0.04760   0.16668   0.75001   0.00000  Uiso   1.00
N564   N     0.28573   0.16665   0.75001   0.00000  Uiso   1.00
O565   O     0.12846   0.22775   0.75000   0.00000  Uiso   1.00
O566   O     0.20490   0.22774   0.75000   0.00000  Uiso   1.00
O567   O     0.10947   0.16666   0.82681   0.00000  Uiso   1.00
O568   O     0.18591   0.16665   0.82681   0.00000  Uiso   1.00
O569   O     0.12843   0.10559   0.75000   0.00000  Uiso   1.00
O570   O     0.20488   0.10558   0.75000   0.00000  Uiso   1.00
O571   O     0.14742   0.16668   0.67319   0.00000  Uiso   1.00
O572   O     0.22387   0.16667   0.67319   0.00000  Uiso   1.00
Zn573  Zn    0.11562   0.16667   0.75000   0.00000  Uiso   1.00
Zn574  Zn    0.21771   0.16666   0.75000   0.00000  Uiso   1.00
Cl575  Cl    0.07408   0.10690   0.67079   0.00000  Uiso   1.00
C576   C     0.26521   0.21876   0.82637   0.00000  Uiso   1.00
H577   H     0.23173   0.22781   0.82278   0.00000  Uiso   1.00
O578   O     0.27446   0.23221   0.86534   0.00000  Uiso   1.00
Cl579  Cl    0.12160   0.25236   0.54801   0.00000  Uiso   1.00
Cl580  Cl    0.18448   0.08479   0.87385   0.00000  Uiso   1.00
C581   C     0.50004   0.24666   0.75020   0.00000  Uiso   1.00
C582   C     0.48634   0.17914   0.98522   0.00000  Uiso   1.00
C583   C     0.48815   0.15656   0.93804   0.00000  Uiso   1.00
C584   C     0.52028   0.16902   0.51004   0.00000  Uiso   1.00
C585   C     0.56053   0.14396   0.98263   0.00000  Uiso   1.00
C586   C     0.56168   0.12229   0.93625   0.00000  Uiso   1.00
C587   C     0.52335   0.12509   0.91754   0.00000  Uiso   1.00
C588   C     0.51132   0.17752   0.56436   0.00000  Uiso   1.00
C589   C     0.58720   0.14754   0.55974   0.00000  Uiso   1.00
C590   C     0.45674   0.16791   0.91065   0.00000  Uiso   1.00
C591   C     0.54220   0.31225   0.74604   0.00000  Uiso   1.00
C592   C     0.47342   0.16540   0.85196   0.00000  Uiso   1.00
C593   C     0.54220   0.02149   0.74562   0.00000  Uiso   1.00
C594   C     0.49998   0.04249   0.74967   0.00000  Uiso   1.00
C595   C     0.45777   0.02108   0.75411   0.00000  Uiso   1.00
C596   C     0.45778   0.31184   0.75447   0.00000  Uiso   1.00
C597   C     0.50002   0.29084   0.75033   0.00000  Uiso   1.00
C598   C     0.65268   0.14171   0.71522   0.00000  Uiso   1.00
C599   C     0.36701   0.14137   0.71538   0.00000  Uiso   1.00
C600   C     0.34752   0.19121   0.78518   0.00000  Uiso   1.00
C601   C     0.63278   0.19138   0.78590   0.00000  Uiso   1.00
C602   C     0.50000   0.08667   0.74965   0.00000  Uiso   1.00
C603   C     0.52659   0.16700   0.64807   0.00000  Uiso   1.00
C604   C     0.59556   0.13612   0.50615   0.00000  Uiso   1.00
C605   C     0.54335   0.16565   0.58962   0.00000  Uiso   1.00
C606   C     0.41737   0.19347   0.93587   0.00000  Uiso   1.00
C607   C     0.41474   0.21500   0.98267   0.00000  Uiso   1.00
C608   C     0.45098   0.21096   0.50482   0.00000  Uiso   1.00
H609   H     0.61256   0.13848   0.57902   0.00000  Uiso   1.00
H610   H     0.57516   0.03780   0.74210   0.00000  Uiso   1.00
H611   H     0.42484   0.03706   0.75748   0.00000  Uiso   1.00
H612   H     0.42481   0.29553   0.75805   0.00000  Uiso   1.00
H613   H     0.64252   0.12171   0.68750   0.00000  Uiso   1.00
H614   H     0.35844   0.21080   0.81273   0.00000  Uiso   1.00
H615   H     0.58962   0.09966   0.91818   0.00000  Uiso   1.00
H616   H     0.62724   0.11817   0.98478   0.00000  Uiso   1.00
H617   H     0.47656   0.18868   0.58910   0.00000  Uiso   1.00
H618   H     0.39237   0.20147   0.91561   0.00000  Uiso   1.00
H619   H     0.38722   0.23836   0.99823   0.00000  Uiso   1.00
H620   H     0.57512   0.29627   0.74276   0.00000  Uiso   1.00
N621   N     0.38093   0.16668   0.75001   0.00000  Uiso   1.00
N622   N     0.61906   0.16665   0.75001   0.00000  Uiso   1.00
O623   O     0.46179   0.22775   0.75000   0.00000  Uiso   1.00
O624   O     0.53823   0.22774   0.75000   0.00000  Uiso   1.00
O625   O     0.44280   0.16666   0.82681   0.00000  Uiso   1.00
O626   O     0.51924   0.16665   0.82681   0.00000  Uiso   1.00
O627   O     0.46177   0.10559   0.75000   0.00000  Uiso   1.00
O628   O     0.53821   0.10558   0.75000   0.00000  Uiso   1.00
O629   O     0.48076   0.16668   0.67319   0.00000  Uiso   1.00
O630   O     0.55720   0.16667   0.67319   0.00000  Uiso   1.00
Zn631  Zn    0.44896   0.16667   0.75000   0.00000  Uiso   1.00
Zn632  Zn    0.55104   0.16666   0.75000   0.00000  Uiso   1.00
Cl633  Cl    0.40742   0.10690   0.67079   0.00000  Uiso   1.00
C634   C     0.59855   0.21876   0.82637   0.00000  Uiso   1.00
H635   H     0.56507   0.22781   0.82278   0.00000  Uiso   1.00
O636   O     0.60779   0.23221   0.86534   0.00000  Uiso   1.00
Cl637  Cl    0.45493   0.25236   0.54801   0.00000  Uiso   1.00
Cl638  Cl    0.51781   0.08479   0.87385   0.00000  Uiso   1.00
C639   C     0.83337   0.24666   0.75020   0.00000  Uiso   1.00
C640   C     0.81967   0.17914   0.98522   0.00000  Uiso   1.00
C641   C     0.82148   0.15656   0.93804   0.00000  Uiso   1.00
C642   C     0.85362   0.16902   0.51004   0.00000  Uiso   1.00
C643   C     0.89387   0.14396   0.98263   0.00000  Uiso   1.00
C644   C     0.89501   0.12229   0.93625   0.00000  Uiso   1.00
C645   C     0.85668   0.12509   0.91754   0.00000  Uiso   1.00
C646   C     0.84465   0.17752   0.56436   0.00000  Uiso   1.00
C647   C     0.92053   0.14754   0.55974   0.00000  Uiso   1.00
C648   C     0.79007   0.16791   0.91065   0.00000  Uiso   1.00
C649   C     0.87553   0.31225   0.74604   0.00000  Uiso   1.00
C650   C     0.80675   0.16540   0.85196   0.00000  Uiso   1.00
C651   C     0.87554   0.02149   0.74562   0.00000  Uiso   1.00
C652   C     0.83332   0.04249   0.74967   0.00000  Uiso   1.00
C653   C     0.79111   0.02108   0.75411   0.00000  Uiso   1.00
C654   C     0.79111   0.31184   0.75447   0.00000  Uiso   1.00
C655   C     0.83336   0.29084   0.75033   0.00000  Uiso   1.00
C656   C     0.98601   0.14171   0.71522   0.00000  Uiso   1.00
C657   C     0.70035   0.14137   0.71538   0.00000  Uiso   1.00
C658   C     0.68086   0.19121   0.78518   0.00000  Uiso   1.00
C659   C     0.96611   0.19138   0.78590   0.00000  Uiso   1.00
C660   C     0.83334   0.08667   0.74965   0.00000  Uiso   1.00
C661   C     0.85993   0.16700   0.64807   0.00000  Uiso   1.00
C662   C     0.92889   0.13612   0.50615   0.00000  Uiso   1.00
C663   C     0.87668   0.16565   0.58962   0.00000  Uiso   1.00
C664   C     0.75070   0.19347   0.93587   0.00000  Uiso   1.00
C665   C     0.74807   0.21500   0.98267   0.00000  Uiso   1.00
C666   C     0.78432   0.21096   0.50482   0.00000  Uiso   1.00
H667   H     0.94589   0.13848   0.57902   0.00000  Uiso   1.00
H668   H     0.90850   0.03780   0.74210   0.00000  Uiso   1.00
H669   H     0.75817   0.03706   0.75748   0.00000  Uiso   1.00
H670   H     0.75814   0.29553   0.75805   0.00000  Uiso   1.00
H671   H     0.97585   0.12171   0.68750   0.00000  Uiso   1.00
H672   H     0.69177   0.21080   0.81273   0.00000  Uiso   1.00
H673   H     0.92296   0.09966   0.91818   0.00000  Uiso   1.00
H674   H     0.96057   0.11817   0.98478   0.00000  Uiso   1.00
H675   H     0.80990   0.18868   0.58910   0.00000  Uiso   1.00
H676   H     0.72570   0.20147   0.91561   0.00000  Uiso   1.00
H677   H     0.72055   0.23836   0.99823   0.00000  Uiso   1.00
H678   H     0.90845   0.29627   0.74276   0.00000  Uiso   1.00
N679   N     0.71426   0.16668   0.75001   0.00000  Uiso   1.00
N680   N     0.95239   0.16665   0.75001   0.00000  Uiso   1.00
O681   O     0.79512   0.22775   0.75000   0.00000  Uiso   1.00
O682   O     0.87157   0.22774   0.75000   0.00000  Uiso   1.00
O683   O     0.77613   0.16666   0.82681   0.00000  Uiso   1.00
O684   O     0.85258   0.16665   0.82681   0.00000  Uiso   1.00
O685   O     0.79510   0.10559   0.75000   0.00000  Uiso   1.00
O686   O     0.87154   0.10558   0.75000   0.00000  Uiso   1.00
O687   O     0.81409   0.16668   0.67319   0.00000  Uiso   1.00
O688   O     0.89053   0.16667   0.67319   0.00000  Uiso   1.00
Zn689  Zn    0.78229   0.16667   0.75000   0.00000  Uiso   1.00
Zn690  Zn    0.88438   0.16666   0.75000   0.00000  Uiso   1.00
Cl691  Cl    0.74075   0.10690   0.67079   0.00000  Uiso   1.00
C692   C     0.93188   0.21876   0.82637   0.00000  Uiso   1.00
H693   H     0.89840   0.22781   0.82278   0.00000  Uiso   1.00
O694   O     0.94113   0.23221   0.86534   0.00000  Uiso   1.00
Cl695  Cl    0.78827   0.25236   0.54801   0.00000  Uiso   1.00
Cl696  Cl    0.85114   0.08479   0.87385   0.00000  Uiso   1.00
C697   C     0.16670   0.57999   0.75020   0.00000  Uiso   1.00
C698   C     0.15301   0.51247   0.98522   0.00000  Uiso   1.00
C699   C     0.15481   0.48989   0.93804   0.00000  Uiso   1.00
C700   C     0.18695   0.50236   0.51004   0.00000  Uiso   1.00
C701   C     0.22720   0.47729   0.98263   0.00000  Uiso   1.00
C702   C     0.22834   0.45562   0.93625   0.00000  Uiso   1.00
C703   C     0.19002   0.45842   0.91754   0.00000  Uiso   1.00
C704   C     0.17799   0.51085   0.56436   0.00000  Uiso   1.00
C705   C     0.25387   0.48087   0.55974   0.00000  Uiso   1.00
C706   C     0.12341   0.50125   0.91065   0.00000  Uiso   1.00
C707   C     0.20887   0.64558   0.74604   0.00000  Uiso   1.00
C708   C     0.14009   0.49874   0.85196   0.00000  Uiso   1.00
C709   C     0.20887   0.35483   0.74562   0.00000  Uiso   1.00
C710   C     0.16665   0.37582   0.74967   0.00000  Uiso   1.00
C711   C     0.12444   0.35442   0.75411   0.00000  Uiso   1.00
C712   C     0.12445   0.64517   0.75447   0.00000  Uiso   1.00
C713   C     0.16669   0.62418   0.75033   0.00000  Uiso   1.00
C714   C     0.31935   0.47504   0.71522   0.00000  Uiso   1.00
C715   C     0.03368   0.47471   0.71538   0.00000  Uiso   1.00
C716   C     0.01419   0.52455   0.78518   0.00000  Uiso   1.00
C717   C     0.29944   0.52471   0.78590   0.00000  Uiso   1.00
C718   C     0.16667   0.42000   0.74965   0.00000  Uiso   1.00
C719   C     0.19326   0.50034   0.64807   0.00000  Uiso   1.00
C720   C     0.26222   0.46945   0.50615   0.00000  Uiso   1.00
C721   C     0.21001   0.49899   0.58962   0.00000  Uiso   1.00
C722   C     0.08403   0.52681   0.93587   0.00000  Uiso   1.00
C723   C     0.08141   0.54833   0.98267   0.00000  Uiso   1.00
C724   C     0.11765   0.54430   0.50482   0.00000  Uiso   1.00
H725   H     0.27922   0.47181   0.57902   0.00000  Uiso   1.00
H726   H     0.24183   0.37114   0.74210   0.00000  Uiso   1.00
H727   H     0.09150   0.37040   0.75748   0.00000  Uiso   1.00
H728   H     0.09147   0.62887   0.75805   0.00000  Uiso   1.00
H729   H     0.30918   0.45504   0.68750   0.00000  Uiso   1.00
H730   H     0.02510   0.54414   0.81273   0.00000  Uiso   1.00
H731   H     0.25629   0.43299   0.91818   0.00000  Uiso   1.00
H732   H     0.29390   0.45150   0.98478   0.00000  Uiso   1.00
H733   H     0.14323   0.52201   0.58910   0.00000  Uiso   1.00
H734   H     0.05904   0.53480   0.91561   0.00000  Uiso   1.00
H735   H     0.05388   0.57169   0.99823   0.00000  Uiso   1.00
H736   H     0.24178   0.62960   0.74276   0.00000  Uiso   1.00
N737   N     0.04760   0.50001   0.75001   0.00000  Uiso   1.00
N738   N     0.28573   0.49998   0.75001   0.00000  Uiso   1.00
O739   O     0.12846   0.56108   0.75000   0.00000  Uiso   1.00
O740   O     0.20490   0.56107   0.75000   0.00000  Uiso   1.00
O741   O     0.10947   0.50000   0.82681   0.00000  Uiso   1.00
O742   O     0.18591   0.49999   0.82681   0.00000  Uiso   1.00
O743   O     0.12843   0.43893   0.75000   0.00000  Uiso   1.00
O744   O     0.20488   0.43892   0.75000   0.00000  Uiso   1.00
O745   O     0.14742   0.50001   0.67319   0.00000  Uiso   1.00
O746   O     0.22387   0.50000   0.67319   0.00000  Uiso   1.00
Zn747  Zn    0.11562   0.50001   0.75000   0.00000  Uiso   1.00
Zn748  Zn    0.21771   0.49999   0.75000   0.00000  Uiso   1.00
Cl749  Cl    0.07408   0.44023   0.67079   0.00000  Uiso   1.00
C750   C     0.26521   0.55209   0.82637   0.00000  Uiso   1.00
H751   H     0.23173   0.56114   0.82278   0.00000  Uiso   1.00
O752   O     0.27446   0.56554   0.86534   0.00000  Uiso   1.00
Cl753  Cl    0.12160   0.58570   0.54801   0.00000  Uiso   1.00
Cl754  Cl    0.18448   0.41812   0.87385   0.00000  Uiso   1.00
C755   C     0.50004   0.57999   0.75020   0.00000  Uiso   1.00
C756   C     0.48634   0.51247   0.98522   0.00000  Uiso   1.00
C757   C     0.48815   0.48989   0.93804   0.00000  Uiso   1.00
C758   C     0.52028   0.50236   0.51004   0.00000  Uiso   1.00
C759   C     0.56053   0.47729   0.98263   0.00000  Uiso   1.00
C760   C     0.56168   0.45562   0.93625   0.00000  Uiso   1.00
C761   C     0.52335   0.45842   0.91754   0.00000  Uiso   1.00
C762   C     0.51132   0.51085   0.56436   0.00000  Uiso   1.00
C763   C     0.58720   0.48087   0.55974   0.00000  Uiso   1.00
C764   C     0.45674   0.50125   0.91065   0.00000  Uiso   1.00
C765   C     0.54220   0.64558   0.74604   0.00000  Uiso   1.00
C766   C     0.47342   0.49874   0.85196   0.00000  Uiso   1.00
C767   C     0.54220   0.35483   0.74562   0.00000  Uiso   1.00
C768   C     0.49998   0.37582   0.74967   0.00000  Uiso   1.00
C769   C     0.45777   0.35442   0.75411   0.00000  Uiso   1.00
C770   C     0.45778   0.64517   0.75447   0.00000  Uiso   1.00
C771   C     0.50002   0.62418   0.75033   0.00000  Uiso   1.00
C772   C     0.65268   0.47504   0.71522   0.00000  Uiso   1.00
C773   C     0.36701   0.47471   0.71538   0.00000  Uiso   1.00
C774   C     0.34752   0.52455   0.78518   0.00000  Uiso   1.00
C775   C     0.63278   0.52471   0.78590   0.00000  Uiso   1.00
C776   C     0.50000   0.42000   0.74965   0.00000  Uiso   1.00
C777   C     0.52659   0.50034   0.64807   0.00000  Uiso   1.00
C778   C     0.59556   0.46945   0.50615   0.00000  Uiso   1.00
C779   C     0.54335   0.49899   0.58962   0.00000  Uiso   1.00
C780   C     0.41737   0.52681   0.93587   0.00000  Uiso   1.00
C781   C     0.41474   0.54833   0.98267   0.00000  Uiso   1.00
C782   C     0.45098   0.54430   0.50482   0.00000  Uiso   1.00
H783   H     0.61256   0.47181   0.57902   0.00000  Uiso   1.00
H784   H     0.57516   0.37114   0.74210   0.00000  Uiso   1.00
H785   H     0.42484   0.37040   0.75748   0.00000  Uiso   1.00
H786   H     0.42481   0.62887   0.75805   0.00000  Uiso   1.00
H787   H     0.64252   0.45504   0.68750   0.00000  Uiso   1.00
H788   H     0.35844   0.54414   0.81273   0.00000  Uiso   1.00
H789   H     0.58962   0.43299   0.91818   0.00000  Uiso   1.00
H790   H     0.62724   0.45150   0.98478   0.00000  Uiso   1.00
H791   H     0.47656   0.52201   0.58910   0.00000  Uiso   1.00
H792   H     0.39237   0.53480   0.91561   0.00000  Uiso   1.00
H793   H     0.38722   0.57169   0.99823   0.00000  Uiso   1.00
H794   H     0.57512   0.62960   0.74276   0.00000  Uiso   1.00
N795   N     0.38093   0.50001   0.75001   0.00000  Uiso   1.00
N796   N     0.61906   0.49998   0.75001   0.00000  Uiso   1.00
O797   O     0.46179   0.56108   0.75000   0.00000  Uiso   1.00
O798   O     0.53823   0.56107   0.75000   0.00000  Uiso   1.00
O799   O     0.44280   0.50000   0.82681   0.00000  Uiso   1.00
O800   O     0.51924   0.49999   0.82681   0.00000  Uiso   1.00
O801   O     0.46177   0.43893   0.75000   0.00000  Uiso   1.00
O802   O     0.53821   0.43892   0.75000   0.00000  Uiso   1.00
O803   O     0.48076   0.50001   0.67319   0.00000  Uiso   1.00
O804   O     0.55720   0.50000   0.67319   0.00000  Uiso   1.00
Zn805  Zn    0.44896   0.50001   0.75000   0.00000  Uiso   1.00
Zn806  Zn    0.55104   0.49999   0.75000   0.00000  Uiso   1.00
Cl807  Cl    0.40742   0.44023   0.67079   0.00000  Uiso   1.00
C808   C     0.59855   0.55209   0.82637   0.00000  Uiso   1.00
H809   H     0.56507   0.56114   0.82278   0.00000  Uiso   1.00
O810   O     0.60779   0.56554   0.86534   0.00000  Uiso   1.00
Cl811  Cl    0.45493   0.58570   0.54801   0.00000  Uiso   1.00
Cl812  Cl    0.51781   0.41812   0.87385   0.00000  Uiso   1.00
C813   C     0.83337   0.57999   0.75020   0.00000  Uiso   1.00
C814   C     0.81967   0.51247   0.98522   0.00000  Uiso   1.00
C815   C     0.82148   0.48989   0.93804   0.00000  Uiso   1.00
C816   C     0.85362   0.50236   0.51004   0.00000  Uiso   1.00
C817   C     0.89387   0.47729   0.98263   0.00000  Uiso   1.00
C818   C     0.89501   0.45562   0.93625   0.00000  Uiso   1.00
C819   C     0.85668   0.45842   0.91754   0.00000  Uiso   1.00
C820   C     0.84465   0.51085   0.56436   0.00000  Uiso   1.00
C821   C     0.92053   0.48087   0.55974   0.00000  Uiso   1.00
C822   C     0.79007   0.50125   0.91065   0.00000  Uiso   1.00
C823   C     0.87553   0.64558   0.74604   0.00000  Uiso   1.00
C824   C     0.80675   0.49874   0.85196   0.00000  Uiso   1.00
C825   C     0.87554   0.35483   0.74562   0.00000  Uiso   1.00
C826   C     0.83332   0.37582   0.74967   0.00000  Uiso   1.00
C827   C     0.79111   0.35442   0.75411   0.00000  Uiso   1.00
C828   C     0.79111   0.64517   0.75447   0.00000  Uiso   1.00
C829   C     0.83336   0.62418   0.75033   0.00000  Uiso   1.00
C830   C     0.98601   0.47504   0.71522   0.00000  Uiso   1.00
C831   C     0.70035   0.47471   0.71538   0.00000  Uiso   1.00
C832   C     0.68086   0.52455   0.78518   0.00000  Uiso   1.00
C833   C     0.96611   0.52471   0.78590   0.00000  Uiso   1.00
C834   C     0.83334   0.42000   0.74965   0.00000  Uiso   1.00
C835   C     0.85993   0.50034   0.64807   0.00000  Uiso   1.00
C836   C     0.92889   0.46945   0.50615   0.00000  Uiso   1.00
C837   C     0.87668   0.49899   0.58962   0.00000  Uiso   1.00
C838   C     0.75070   0.52681   0.93587   0.00000  Uiso   1.00
C839   C     0.74807   0.54833   0.98267   0.00000  Uiso   1.00
C840   C     0.78432   0.54430   0.50482   0.00000  Uiso   1.00
H841   H     0.94589   0.47181   0.57902   0.00000  Uiso   1.00
H842   H     0.90850   0.37114   0.74210   0.00000  Uiso   1.00
H843   H     0.75817   0.37040   0.75748   0.00000  Uiso   1.00
H844   H     0.75814   0.62887   0.75805   0.00000  Uiso   1.00
H845   H     0.97585   0.45504   0.68750   0.00000  Uiso   1.00
H846   H     0.69177   0.54414   0.81273   0.00000  Uiso   1.00
H847   H     0.92296   0.43299   0.91818   0.00000  Uiso   1.00
H848   H     0.96057   0.45150   0.98478   0.00000  Uiso   1.00
H849   H     0.80990   0.52201   0.58910   0.00000  Uiso   1.00
H850   H     0.72570   0.53480   0.91561   0.00000  Uiso   1.00
H851   H     0.72055   0.57169   0.99823   0.00000  Uiso   1.00
H852   H     0.90845   0.62960   0.74276   0.00000  Uiso   1.00
N853   N     0.71426   0.50001   0.75001   0.00000  Uiso   1.00
N854   N     0.95239   0.49998   0.75001   0.00000  Uiso   1.00
O855   O     0.79512   0.56108   0.75000   0.00000  Uiso   1.00
O856   O     0.87157   0.56107   0.75000   0.00000  Uiso   1.00
O857   O     0.77613   0.50000   0.82681   0.00000  Uiso   1.00
O858   O     0.85258   0.49999   0.82681   0.00000  Uiso   1.00
O859   O     0.79510   0.43893   0.75000   0.00000  Uiso   1.00
O860   O     0.87154   0.43892   0.75000   0.00000  Uiso   1.00
O861   O     0.81409   0.50001   0.67319   0.00000  Uiso   1.00
O862   O     0.89053   0.50000   0.67319   0.00000  Uiso   1.00
Zn863  Zn    0.78229   0.50001   0.75000   0.00000  Uiso   1.00
Zn864  Zn    0.88438   0.49999   0.75000   0.00000  Uiso   1.00
Cl865  Cl    0.74075   0.44023   0.67079   0.00000  Uiso   1.00
C866   C     0.93188   0.55209   0.82637   0.00000  Uiso   1.00
H867   H     0.89840   0.56114   0.82278   0.00000  Uiso   1.00
O868   O     0.94113   0.56554   0.86534   0.00000  Uiso   1.00
Cl869  Cl    0.78827   0.58570   0.54801   0.00000  Uiso   1.00
Cl870  Cl    0.85114   0.41812   0.87385   0.00000  Uiso   1.00
C871   C     0.16670   0.91333   0.75020   0.00000  Uiso   1.00
C872   C     0.15301   0.84581   0.98522   0.00000  Uiso   1.00
C873   C     0.15481   0.82322   0.93804   0.00000  Uiso   1.00
C874   C     0.18695   0.83569   0.51004   0.00000  Uiso   1.00
C875   C     0.22720   0.81063   0.98263   0.00000  Uiso   1.00
C876   C     0.22834   0.78895   0.93625   0.00000  Uiso   1.00
C877   C     0.19002   0.79176   0.91754   0.00000  Uiso   1.00
C878   C     0.17799   0.84419   0.56436   0.00000  Uiso   1.00
C879   C     0.25387   0.81421   0.55974   0.00000  Uiso   1.00
C880   C     0.12341   0.83458   0.91065   0.00000  Uiso   1.00
C881   C     0.20887   0.97892   0.74604   0.00000  Uiso   1.00
C882   C     0.14009   0.83207   0.85196   0.00000  Uiso   1.00
C883   C     0.20887   0.68816   0.74562   0.00000  Uiso   1.00
C884   C     0.16665   0.70915   0.74967   0.00000  Uiso   1.00
C885   C     0.12444   0.68775   0.75411   0.00000  Uiso   1.00
C886   C     0.12445   0.97850   0.75447   0.00000  Uiso   1.00
C887   C     0.16669   0.95751   0.75033   0.00000  Uiso   1.00
C888   C     0.31935   0.80837   0.71522   0.00000  Uiso   1.00
C889   C     0.03368   0.80804   0.71538   0.00000  Uiso   1.00
C890   C     0.01419   0.85788   0.78518   0.00000  Uiso   1.00
C891   C     0.29944   0.85804   0.78590   0.00000  Uiso   1.00
C892   C     0.16667   0.75334   0.74965   0.00000  Uiso   1.00
C893   C     0.19326   0.83367   0.64807   0.00000  Uiso   1.00
C894   C     0.26222   0.80279   0.50615   0.00000  Uiso   1.00
C895   C     0.21001   0.83232   0.58962   0.00000  Uiso   1.00
C896   C     0.08403   0.86014   0.93587   0.00000  Uiso   1.00
C897   C     0.08141   0.88166   0.98267   0.00000  Uiso   1.00
C898   C     0.11765   0.87763   0.50482   0.00000  Uiso   1.00
H899   H     0.27922   0.80514   0.57902   0.00000  Uiso   1.00
H900   H     0.24183   0.70447   0.74210   0.00000  Uiso   1.00
H901   H     0.09150   0.70373   0.75748   0.00000  Uiso   1.00
H902   H     0.09147   0.96220   0.75805   0.00000  Uiso   1.00
H903   H     0.30918   0.78838   0.68750   0.00000  Uiso   1.00
H904   H     0.02510   0.87747   0.81273   0.00000  Uiso   1.00
H905   H     0.25629   0.76632   0.91818   0.00000  Uiso   1.00
H906   H     0.29390   0.78484   0.98478   0.00000  Uiso   1.00
H907   H     0.14323   0.85534   0.58910   0.00000  Uiso   1.00
H908   H     0.05904   0.86814   0.91561   0.00000  Uiso   1.00
H909   H     0.05388   0.90503   0.99823   0.00000  Uiso   1.00
H910   H     0.24178   0.96293   0.74276   0.00000  Uiso   1.00
N911   N     0.04760   0.83334   0.75001   0.00000  Uiso   1.00
N912   N     0.28573   0.83331   0.75001   0.00000  Uiso   1.00
O913   O     0.12846   0.89442   0.75000   0.00000  Uiso   1.00
O914   O     0.20490   0.89441   0.75000   0.00000  Uiso   1.00
O915   O     0.10947   0.83333   0.82681   0.00000  Uiso   1.00
O916   O     0.18591   0.83332   0.82681   0.00000  Uiso   1.00
O917   O     0.12843   0.77226   0.75000   0.00000  Uiso   1.00
O918   O     0.20488   0.77225   0.75000   0.00000  Uiso   1.00
O919   O     0.14742   0.83335   0.67319   0.00000  Uiso   1.00
O920   O     0.22387   0.83334   0.67319   0.00000  Uiso   1.00
Zn921  Zn    0.11562   0.83334   0.75000   0.00000  Uiso   1.00
Zn922  Zn    0.21771   0.83333   0.75000   0.00000  Uiso   1.00
Cl923  Cl    0.07408   0.77357   0.67079   0.00000  Uiso   1.00
C924   C     0.26521   0.88543   0.82637   0.00000  Uiso   1.00
H925   H     0.23173   0.89448   0.82278   0.00000  Uiso   1.00
O926   O     0.27446   0.89888   0.86534   0.00000  Uiso   1.00
Cl927  Cl    0.12160   0.91903   0.54801   0.00000  Uiso   1.00
Cl928  Cl    0.18448   0.75145   0.87385   0.00000  Uiso   1.00
C929   C     0.50004   0.91333   0.75020   0.00000  Uiso   1.00
C930   C     0.48634   0.84581   0.98522   0.00000  Uiso   1.00
C931   C     0.48815   0.82322   0.93804   0.00000  Uiso   1.00
C932   C     0.52028   0.83569   0.51004   0.00000  Uiso   1.00
C933   C     0.56053   0.81063   0.98263   0.00000  Uiso   1.00
C934   C     0.56168   0.78895   0.93625   0.00000  Uiso   1.00
C935   C     0.52335   0.79176   0.91754   0.00000  Uiso   1.00
C936   C     0.51132   0.84419   0.56436   0.00000  Uiso   1.00
C937   C     0.58720   0.81421   0.55974   0.00000  Uiso   1.00
C938   C     0.45674   0.83458   0.91065   0.00000  Uiso   1.00
C939   C     0.54220   0.97892   0.74604   0.00000  Uiso   1.00
C940   C     0.47342   0.83207   0.85196   0.00000  Uiso   1.00
C941   C     0.54220   0.68816   0.74562   0.00000  Uiso   1.00
C942   C     0.49998   0.70915   0.74967   0.00000  Uiso   1.00
C943   C     0.45777   0.68775   0.75411   0.00000  Uiso   1.00
C944   C     0.45778   0.97850   0.75447   0.00000  Uiso   1.00
C945   C     0.50002   0.95751   0.75033   0.00000  Uiso   1.00
C946   C     0.65268   0.80837   0.71522   0.00000  Uiso   1.00
C947   C     0.36701   0.80804   0.71538   0.00000  Uiso   1.00
C948   C     0.34752   0.85788   0.78518   0.00000  Uiso   1.00
C949   C     0.63278   0.85804   0.78590   0.00000  Uiso   1.00
C950   C     0.50000   0.75334   0.74965   0.00000  Uiso   1.00
C951   C     0.52659   0.83367   0.64807   0.00000  Uiso   1.00
C952   C     0.59556   0.80279   0.50615   0.00000  Uiso   1.00
C953   C     0.54335   0.83232   0.58962   0.00000  Uiso   1.00
C954   C     0.41737   0.86014   0.93587   0.00000  Uiso   1.00
C955   C     0.41474   0.88166   0.98267   0.00000  Uiso   1.00
C956   C     0.45098   0.87763   0.50482   0.00000  Uiso   1.00
H957   H     0.61256   0.80514   0.57902   0.00000  Uiso   1.00
H958   H     0.57516   0.70447   0.74210   0.00000  Uiso   1.00
H959   H     0.42484   0.70373   0.75748   0.00000  Uiso   1.00
H960   H     0.42481   0.96220   0.75805   0.00000  Uiso   1.00
H961   H     0.64252   0.78838   0.68750   0.00000  Uiso   1.00
H962   H     0.35844   0.87747   0.81273   0.00000  Uiso   1.00
H963   H     0.58962   0.76632   0.91818   0.00000  Uiso   1.00
H964   H     0.62724   0.78484   0.98478   0.00000  Uiso   1.00
H965   H     0.47656   0.85534   0.58910   0.00000  Uiso   1.00
H966   H     0.39237   0.86814   0.91561   0.00000  Uiso   1.00
H967   H     0.38722   0.90503   0.99823   0.00000  Uiso   1.00
H968   H     0.57512   0.96293   0.74276   0.00000  Uiso   1.00
N969   N     0.38093   0.83334   0.75001   0.00000  Uiso   1.00
N970   N     0.61906   0.83331   0.75001   0.00000  Uiso   1.00
O971   O     0.46179   0.89442   0.75000   0.00000  Uiso   1.00
O972   O     0.53823   0.89441   0.75000   0.00000  Uiso   1.00
O973   O     0.44280   0.83333   0.82681   0.00000  Uiso   1.00
O974   O     0.51924   0.83332   0.82681   0.00000  Uiso   1.00
O975   O     0.46177   0.77226   0.75000   0.00000  Uiso   1.00
O976   O     0.53821   0.77225   0.75000   0.00000  Uiso   1.00
O977   O     0.48076   0.83335   0.67319   0.00000  Uiso   1.00
O978   O     0.55720   0.83334   0.67319   0.00000  Uiso   1.00
Zn979  Zn    0.44896   0.83334   0.75000   0.00000  Uiso   1.00
Zn980  Zn    0.55104   0.83333   0.75000   0.00000  Uiso   1.00
Cl981  Cl    0.40742   0.77357   0.67079   0.00000  Uiso   1.00
C982   C     0.59855   0.88543   0.82637   0.00000  Uiso   1.00
H983   H     0.56507   0.89448   0.82278   0.00000  Uiso   1.00
O984   O     0.60779   0.89888   0.86534   0.00000  Uiso   1.00
Cl985  Cl    0.45493   0.91903   0.54801   0.00000  Uiso   1.00
Cl986  Cl    0.51781   0.75145   0.87385   0.00000  Uiso   1.00
C987   C     0.83337   0.91333   0.75020   0.00000  Uiso   1.00
C988   C     0.81967   0.84581   0.98522   0.00000  Uiso   1.00
C989   C     0.82148   0.82322   0.93804   0.00000  Uiso   1.00
C990   C     0.85362   0.83569   0.51004   0.00000  Uiso   1.00
C991   C     0.89387   0.81063   0.98263   0.00000  Uiso   1.00
C992   C     0.89501   0.78895   0.93625   0.00000  Uiso   1.00
C993   C     0.85668   0.79176   0.91754   0.00000  Uiso   1.00
C994   C     0.84465   0.84419   0.56436   0.00000  Uiso   1.00
C995   C     0.92053   0.81421   0.55974   0.00000  Uiso   1.00
C996   C     0.79007   0.83458   0.91065   0.00000  Uiso   1.00
C997   C     0.87553   0.97892   0.74604   0.00000  Uiso   1.00
C998   C     0.80675   0.83207   0.85196   0.00000  Uiso   1.00
C999   C     0.87554   0.68816   0.74562   0.00000  Uiso   1.00
C1000  C     0.83332   0.70915   0.74967   0.00000  Uiso   1.00
C1001  C     0.79111   0.68775   0.75411   0.00000  Uiso   1.00
C1002  C     0.79111   0.97850   0.75447   0.00000  Uiso   1.00
C1003  C     0.83336   0.95751   0.75033   0.00000  Uiso   1.00
C1004  C     0.98601   0.80837   0.71522   0.00000  Uiso   1.00
C1005  C     0.70035   0.80804   0.71538   0.00000  Uiso   1.00
C1006  C     0.68086   0.85788   0.78518   0.00000  Uiso   1.00
C1007  C     0.96611   0.85804   0.78590   0.00000  Uiso   1.00
C1008  C     0.83334   0.75334   0.74965   0.00000  Uiso   1.00
C1009  C     0.85993   0.83367   0.64807   0.00000  Uiso   1.00
C1010  C     0.92889   0.80279   0.50615   0.00000  Uiso   1.00
C1011  C     0.87668   0.83232   0.58962   0.00000  Uiso   1.00
C1012  C     0.75070   0.86014   0.93587   0.00000  Uiso   1.00
C1013  C     0.74807   0.88166   0.98267   0.00000  Uiso   1.00
C1014  C     0.78432   0.87763   0.50482   0.00000  Uiso   1.00
H1015  H     0.94589   0.80514   0.57902   0.00000  Uiso   1.00
H1016  H     0.90850   0.70447   0.74210   0.00000  Uiso   1.00
H1017  H     0.75817   0.70373   0.75748   0.00000  Uiso   1.00
H1018  H     0.75814   0.96220   0.75805   0.00000  Uiso   1.00
H1019  H     0.97585   0.78838   0.68750   0.00000  Uiso   1.00
H1020  H     0.69177   0.87747   0.81273   0.00000  Uiso   1.00
H1021  H     0.92296   0.76632   0.91818   0.00000  Uiso   1.00
H1022  H     0.96057   0.78484   0.98478   0.00000  Uiso   1.00
H1023  H     0.80990   0.85534   0.58910   0.00000  Uiso   1.00
H1024  H     0.72570   0.86814   0.91561   0.00000  Uiso   1.00
H1025  H     0.72055   0.90503   0.99823   0.00000  Uiso   1.00
H1026  H     0.90845   0.96293   0.74276   0.00000  Uiso   1.00
N1027  N     0.71426   0.83334   0.75001   0.00000  Uiso   1.00
N1028  N     0.95239   0.83331   0.75001   0.00000  Uiso   1.00
O1029  O     0.79512   0.89442   0.75000   0.00000  Uiso   1.00
O1030  O     0.87157   0.89441   0.75000   0.00000  Uiso   1.00
O1031  O     0.77613   0.83333   0.82681   0.00000  Uiso   1.00
O1032  O     0.85258   0.83332   0.82681   0.00000  Uiso   1.00
O1033  O     0.79510   0.77226   0.75000   0.00000  Uiso   1.00
O1034  O     0.87154   0.77225   0.75000   0.00000  Uiso   1.00
O1035  O     0.81409   0.83335   0.67319   0.00000  Uiso   1.00
O1036  O     0.89053   0.83334   0.67319   0.00000  Uiso   1.00
Zn1037 Zn    0.78229   0.83334   0.75000   0.00000  Uiso   1.00
Zn1038 Zn    0.88438   0.83333   0.75000   0.00000  Uiso   1.00
Cl1039 Cl    0.74075   0.77357   0.67079   0.00000  Uiso   1.00
C1040  C     0.93188   0.88543   0.82637   0.00000  Uiso   1.00
H1041  H     0.89840   0.89448   0.82278   0.00000  Uiso   1.00
O1042  O     0.94113   0.89888   0.86534   0.00000  Uiso   1.00
Cl1043 Cl    0.78827   0.91903   0.54801   0.00000  Uiso   1.00
Cl1044 Cl    0.85114   0.75145   0.87385   0.00000  Uiso   1.00
loop_
_geom_bond_atom_site_label_1
_geom_bond_atom_site_label_2
_geom_bond_distance
_geom_bond_site_symmetry_2
_ccdc_geom_bond_type
C1     O44     1.288   .     A
C1     C17     1.421   .     S
C1     O43     1.286   .     A
C2     C3      1.416   .     A
C2     C526    1.415   .     S
C2     C550    1.431   .     S
C3     C10     1.410   .     A
C3     C7      1.423   .     A
C4     C8      1.387   .     A
C4     C524    1.415   1_554 S
C4     C527    1.419   1_554 S
C5     C6      1.388   .     A
C5     C526    1.419   .     S
C5     C546    1.404   .     S
C6     C7      1.388   .     A
C6     H35     1.084   .     S
C7     Cl58    1.765   .     S
C8     C25     1.389   .     A
C8     H37     1.078   .     S
C9     C24     1.392   .     A
C9     H29     1.083   .     S
C9     C25     1.399   .     A
C10    C26     1.398   .     A
C10    C12     1.456   .     S
C11    H40     1.084   .     S
C11    C17     1.396   .     A
C11    C187    1.369   .     S
C12    O46     1.297   .     A
C12    O45     1.294   .     A
C13    H30     1.084   .     S
C13    C14     1.399   .     A
C13    C359    1.369   1_545 S
C14    C15     1.396   .     A
C14    C22     1.421   .     S
C15    H31     1.084   .     S
C15    C364    1.369   1_545 S
C16    H32     1.084   .     S
C16    C17     1.399   .     A
C16    C189    1.369   .     S
C18    N42     1.361   .     A
C18    H33     1.082   .     S
C18    C77     1.416   .     S
C19    Cl53    1.754   .     S
C19    N41     1.377   .     A
C19    C134    1.416   1_455 S
C20    H34     1.083   .     S
C20    N41     1.354   .     A
C20    C137    1.421   1_455 S
C21    C54     1.483   .     S
C21    N42     1.389   .     A
C21    C78     1.421   .     S
C22    O48     1.286   .     A
C22    O47     1.288   .     A
C23    C25     1.449   .     S
C23    O49     1.296   .     A
C23    O50     1.292   .     A
C24    C527    1.404   1_554 S
C24    H558    1.084   1_554 S
C26    H38     1.084   .     S
C26    C27     1.385   .     A
C27    H39     1.083   .     S
C27    C550    1.393   .     S
C28    Cl57    1.769   .     S
C28    C524    1.431   1_554 S
C28    C549    1.393   1_554 S
H36    C546    1.084   .     S
N41    Zn51    2.019   .     S
N42    Zn52    2.019   .     S
O43    Zn51    1.998   .     S
O44    Zn52    2.003   .     S
O45    Zn51    1.968   .     S
O46    Zn52    1.921   .     S
O47    Zn51    2.003   .     S
O48    Zn52    1.998   .     S
O49    Zn51    1.921   .     S
O50    Zn52    1.968   .     S
C54    O56     1.222   .     D
C54    H55     1.072   .     S
C59    O102    1.288   .     A
C59    C75     1.421   .     S
C59    O101    1.286   .     A
C60    C61     1.416   .     A
C60    C584    1.415   .     S
C60    C608    1.431   .     S
C61    C68     1.410   .     A
C61    C65     1.423   .     A
C62    C66     1.387   .     A
C62    C582    1.415   1_554 S
C62    C585    1.419   1_554 S
C63    C64     1.388   .     A
C63    C584    1.419   .     S
C63    C604    1.404   .     S
C64    C65     1.388   .     A
C64    H93     1.084   .     S
C65    Cl116   1.765   .     S
C66    C83     1.389   .     A
C66    H95     1.078   .     S
C67    C82     1.392   .     A
C67    H87     1.083   .     S
C67    C83     1.399   .     A
C68    C84     1.398   .     A
C68    C70     1.456   .     S
C69    H98     1.084   .     S
C69    C75     1.396   .     A
C69    C245    1.369   .     S
C70    O104    1.297   .     A
C70    O103    1.294   .     A
C71    H88     1.084   .     S
C71    C72     1.399   .     A
C71    C417    1.369   1_545 S
C72    C73     1.396   .     A
C72    C80     1.421   .     S
C73    H89     1.084   .     S
C73    C422    1.369   1_545 S
C74    H90     1.084   .     S
C74    C75     1.399   .     A
C74    C247    1.369   .     S
C76    N100    1.361   .     A
C76    H91     1.082   .     S
C76    C135    1.416   .     S
C77    Cl111   1.754   .     S
C77    N99     1.377   .     A
C78    H92     1.083   .     S
C78    N99     1.354   .     A
C79    C112    1.483   .     S
C79    N100    1.389   .     A
C79    C136    1.421   .     S
C80    O106    1.286   .     A
C80    O105    1.288   .     A
C81    C83     1.449   .     S
C81    O107    1.296   .     A
C81    O108    1.292   .     A
C82    C585    1.404   1_554 S
C82    H616    1.084   1_554 S
C84    H96     1.084   .     S
C84    C85     1.385   .     A
C85    H97     1.083   .     S
C85    C608    1.393   .     S
C86    Cl115   1.769   .     S
C86    C582    1.431   1_554 S
C86    C607    1.393   1_554 S
H94    C604    1.084   .     S
N99    Zn109   2.019   .     S
N100   Zn110   2.019   .     S
O101   Zn109   1.998   .     S
O102   Zn110   2.003   .     S
O103   Zn109   1.968   .     S
O104   Zn110   1.921   .     S
O105   Zn109   2.003   .     S
O106   Zn110   1.998   .     S
O107   Zn109   1.921   .     S
O108   Zn110   1.968   .     S
C112   O114    1.222   .     D
C112   H113    1.072   .     S
C117   O160    1.288   .     A
C117   C133    1.421   .     S
C117   O159    1.286   .     A
C118   C119    1.416   .     A
C118   C642    1.415   .     S
C118   C666    1.431   .     S
C119   C126    1.410   .     A
C119   C123    1.423   .     A
C120   C124    1.387   .     A
C120   C640    1.415   1_554 S
C120   C643    1.419   1_554 S
C121   C122    1.388   .     A
C121   C642    1.419   .     S
C121   C662    1.404   .     S
C122   C123    1.388   .     A
C122   H151    1.084   .     S
C123   Cl174   1.765   .     S
C124   C141    1.389   .     A
C124   H153    1.078   .     S
C125   C140    1.392   .     A
C125   H145    1.083   .     S
C125   C141    1.399   .     A
C126   C142    1.398   .     A
C126   C128    1.456   .     S
C127   H156    1.084   .     S
C127   C133    1.396   .     A
C127   C303    1.369   .     S
C128   O162    1.297   .     A
C128   O161    1.294   .     A
C129   H146    1.084   .     S
C129   C130    1.399   .     A
C129   C475    1.369   1_545 S
C130   C131    1.396   .     A
C130   C138    1.421   .     S
C131   H147    1.084   .     S
C131   C480    1.369   1_545 S
C132   H148    1.084   .     S
C132   C133    1.399   .     A
C132   C305    1.369   .     S
C134   N158    1.361   .     A
C134   H149    1.082   .     S
C134   C19     1.416   1_655 S
C135   Cl169   1.754   .     S
C135   N157    1.377   .     A
C136   H150    1.083   .     S
C136   N157    1.354   .     A
C137   C170    1.483   .     S
C137   N158    1.389   .     A
C137   C20     1.421   1_655 S
C138   O164    1.286   .     A
C138   O163    1.288   .     A
C139   C141    1.449   .     S
C139   O165    1.296   .     A
C139   O166    1.292   .     A
C140   C643    1.404   1_554 S
C140   H674    1.084   1_554 S
C142   H154    1.084   .     S
C142   C143    1.385   .     A
C143   H155    1.083   .     S
C143   C666    1.393   .     S
C144   Cl173   1.769   .     S
C144   C640    1.431   1_554 S
C144   C665    1.393   1_554 S
H152   C662    1.084   .     S
N157   Zn167   2.019   .     S
N158   Zn168   2.019   .     S
O159   Zn167   1.998   .     S
O160   Zn168   2.003   .     S
O161   Zn167   1.968   .     S
O162   Zn168   1.921   .     S
O163   Zn167   2.003   .     S
O164   Zn168   1.998   .     S
O165   Zn167   1.921   .     S
O166   Zn168   1.968   .     S
C170   O172    1.222   .     D
C170   H171    1.072   .     S
C175   O218    1.288   .     A
C175   C191    1.421   .     S
C175   O217    1.286   .     A
C176   C177    1.416   .     A
C176   C700    1.415   .     S
C176   C724    1.431   .     S
C177   C184    1.410   .     A
C177   C181    1.423   .     A
C178   C182    1.387   .     A
C178   C698    1.415   1_554 S
C178   C701    1.419   1_554 S
C179   C180    1.388   .     A
C179   C700    1.419   .     S
C179   C720    1.404   .     S
C180   C181    1.388   .     A
C180   H209    1.084   .     S
C181   Cl232   1.765   .     S
C182   C199    1.389   .     A
C182   H211    1.078   .     S
C183   C198    1.392   .     A
C183   H203    1.083   .     S
C183   C199    1.399   .     A
C184   C200    1.398   .     A
C184   C186    1.456   .     S
C185   H214    1.084   .     S
C185   C191    1.396   .     A
C185   C361    1.369   .     S
C186   O220    1.297   .     A
C186   O219    1.294   .     A
C187   H204    1.084   .     S
C187   C188    1.399   .     A
C188   C189    1.396   .     A
C188   C196    1.421   .     S
C189   H205    1.084   .     S
C190   H206    1.084   .     S
C190   C191    1.399   .     A
C190   C363    1.369   .     S
C192   N216    1.361   .     A
C192   H207    1.082   .     S
C192   C251    1.416   .     S
C193   Cl227   1.754   .     S
C193   N215    1.377   .     A
C193   C308    1.416   1_455 S
C194   H208    1.083   .     S
C194   N215    1.354   .     A
C194   C311    1.421   1_455 S
C195   C228    1.483   .     S
C195   N216    1.389   .     A
C195   C252    1.421   .     S
C196   O222    1.286   .     A
C196   O221    1.288   .     A
C197   C199    1.449   .     S
C197   O223    1.296   .     A
C197   O224    1.292   .     A
C198   C701    1.404   1_554 S
C198   H732    1.084   1_554 S
C200   H212    1.084   .     S
C200   C201    1.385   .     A
C201   H213    1.083   .     S
C201   C724    1.393   .     S
C202   Cl231   1.769   .     S
C202   C698    1.431   1_554 S
C202   C723    1.393   1_554 S
H210   C720    1.084   .     S
N215   Zn225   2.019   .     S
N216   Zn226   2.019   .     S
O217   Zn225   1.998   .     S
O218   Zn226   2.003   .     S
O219   Zn225   1.968   .     S
O220   Zn226   1.921   .     S
O221   Zn225   2.003   .     S
O222   Zn226   1.998   .     S
O223   Zn225   1.921   .     S
O224   Zn226   1.968   .     S
C228   O230    1.222   .     D
C228   H229    1.072   .     S
C233   O276    1.288   .     A
C233   C249    1.421   .     S
C233   O275    1.286   .     A
C234   C235    1.416   .     A
C234   C758    1.415   .     S
C234   C782    1.431   .     S
C235   C242    1.410   .     A
C235   C239    1.423   .     A
C236   C240    1.387   .     A
C236   C756    1.415   1_554 S
C236   C759    1.419   1_554 S
C237   C238    1.388   .     A
C237   C758    1.419   .     S
C237   C778    1.404   .     S
C238   C239    1.388   .     A
C238   H267    1.084   .     S
C239   Cl290   1.765   .     S
C240   C257    1.389   .     A
C240   H269    1.078   .     S
C241   C256    1.392   .     A
C241   H261    1.083   .     S
C241   C257    1.399   .     A
C242   C258    1.398   .     A
C242   C244    1.456   .     S
C243   H272    1.084   .     S
C243   C249    1.396   .     A
C243   C419    1.369   .     S
C244   O278    1.297   .     A
C244   O277    1.294   .     A
C245   H262    1.084   .     S
C245   C246    1.399   .     A
C246   C247    1.396   .     A
C246   C254    1.421   .     S
C247   H263    1.084   .     S
C248   H264    1.084   .     S
C248   C249    1.399   .     A
C248   C421    1.369   .     S
C250   N274    1.361   .     A
C250   H265    1.082   .     S
C250   C309    1.416   .     S
C251   Cl285   1.754   .     S
C251   N273    1.377   .     A
C252   H266    1.083   .     S
C252   N273    1.354   .     A
C253   C286    1.483   .     S
C253   N274    1.389   .     A
C253   C310    1.421   .     S
C254   O280    1.286   .     A
C254   O279    1.288   .     A
C255   C257    1.449   .     S
C255   O281    1.296   .     A
C255   O282    1.292   .     A
C256   C759    1.404   1_554 S
C256   H790    1.084   1_554 S
C258   H270    1.084   .     S
C258   C259    1.385   .     A
C259   H271    1.083   .     S
C259   C782    1.393   .     S
C260   Cl289   1.769   .     S
C260   C756    1.431   1_554 S
C260   C781    1.393   1_554 S
H268   C778    1.084   .     S
N273   Zn283   2.019   .     S
N274   Zn284   2.019   .     S
O275   Zn283   1.998   .     S
O276   Zn284   2.003   .     S
O277   Zn283   1.968   .     S
O278   Zn284   1.921   .     S
O279   Zn283   2.003   .     S
O280   Zn284   1.998   .     S
O281   Zn283   1.921   .     S
O282   Zn284   1.968   .     S
C286   O288    1.222   .     D
C286   H287    1.072   .     S
C291   O334    1.288   .     A
C291   C307    1.421   .     S
C291   O333    1.286   .     A
C292   C293    1.416   .     A
C292   C816    1.415   .     S
C292   C840    1.431   .     S
C293   C300    1.410   .     A
C293   C297    1.423   .     A
C294   C298    1.387   .     A
C294   C814    1.415   1_554 S
C294   C817    1.419   1_554 S
C295   C296    1.388   .     A
C295   C816    1.419   .     S
C295   C836    1.404   .     S
C296   C297    1.388   .     A
C296   H325    1.084   .     S
C297   Cl348   1.765   .     S
C298   C315    1.389   .     A
C298   H327    1.078   .     S
C299   C314    1.392   .     A
C299   H319    1.083   .     S
C299   C315    1.399   .     A
C300   C316    1.398   .     A
C300   C302    1.456   .     S
C301   H330    1.084   .     S
C301   C307    1.396   .     A
C301   C477    1.369   .     S
C302   O336    1.297   .     A
C302   O335    1.294   .     A
C303   H320    1.084   .     S
C303   C304    1.399   .     A
C304   C305    1.396   .     A
C304   C312    1.421   .     S
C305   H321    1.084   .     S
C306   H322    1.084   .     S
C306   C307    1.399   .     A
C306   C479    1.369   .     S
C308   N332    1.361   .     A
C308   H323    1.082   .     S
C308   C193    1.416   1_655 S
C309   Cl343   1.754   .     S
C309   N331    1.377   .     A
C310   H324    1.083   .     S
C310   N331    1.354   .     A
C311   C344    1.483   .     S
C311   N332    1.389   .     A
C311   C194    1.421   1_655 S
C312   O338    1.286   .     A
C312   O337    1.288   .     A
C313   C315    1.449   .     S
C313   O339    1.296   .     A
C313   O340    1.292   .     A
C314   C817    1.404   1_554 S
C314   H848    1.084   1_554 S
C316   H328    1.084   .     S
C316   C317    1.385   .     A
C317   H329    1.083   .     S
C317   C840    1.393   .     S
C318   Cl347   1.769   .     S
C318   C814    1.431   1_554 S
C318   C839    1.393   1_554 S
H326   C836    1.084   .     S
N331   Zn341   2.019   .     S
N332   Zn342   2.019   .     S
O333   Zn341   1.998   .     S
O334   Zn342   2.003   .     S
O335   Zn341   1.968   .     S
O336   Zn342   1.921   .     S
O337   Zn341   2.003   .     S
O338   Zn342   1.998   .     S
O339   Zn341   1.921   .     S
O340   Zn342   1.968   .     S
C344   O346    1.222   .     D
C344   H345    1.072   .     S
C349   O392    1.288   .     A
C349   C365    1.421   .     S
C349   O391    1.286   .     A
C350   C351    1.416   .     A
C350   C874    1.415   .     S
C350   C898    1.431   .     S
C351   C358    1.410   .     A
C351   C355    1.423   .     A
C352   C356    1.387   .     A
C352   C872    1.415   1_554 S
C352   C875    1.419   1_554 S
C353   C354    1.388   .     A
C353   C874    1.419   .     S
C353   C894    1.404   .     S
C354   C355    1.388   .     A
C354   H383    1.084   .     S
C355   Cl406   1.765   .     S
C356   C373    1.389   .     A
C356   H385    1.078   .     S
C357   C372    1.392   .     A
C357   H377    1.083   .     S
C357   C373    1.399   .     A
C358   C374    1.398   .     A
C358   C360    1.456   .     S
C359   H388    1.084   .     S
C359   C365    1.396   .     A
C359   C13     1.369   1_565 S
C360   O394    1.297   .     A
C360   O393    1.294   .     A
C361   H378    1.084   .     S
C361   C362    1.399   .     A
C362   C363    1.396   .     A
C362   C370    1.421   .     S
C363   H379    1.084   .     S
C364   H380    1.084   .     S
C364   C365    1.399   .     A
C364   C15     1.369   1_565 S
C366   N390    1.361   .     A
C366   H381    1.082   .     S
C366   C425    1.416   .     S
C367   Cl401   1.754   .     S
C367   N389    1.377   .     A
C367   C482    1.416   1_455 S
C368   H382    1.083   .     S
C368   N389    1.354   .     A
C368   C485    1.421   1_455 S
C369   C402    1.483   .     S
C369   N390    1.389   .     A
C369   C426    1.421   .     S
C370   O396    1.286   .     A
C370   O395    1.288   .     A
C371   C373    1.449   .     S
C371   O397    1.296   .     A
C371   O398    1.292   .     A
C372   C875    1.404   1_554 S
C372   H906    1.084   1_554 S
C374   H386    1.084   .     S
C374   C375    1.385   .     A
C375   H387    1.083   .     S
C375   C898    1.393   .     S
C376   Cl405   1.769   .     S
C376   C872    1.431   1_554 S
C376   C897    1.393   1_554 S
H384   C894    1.084   .     S
N389   Zn399   2.019   .     S
N390   Zn400   2.019   .     S
O391   Zn399   1.998   .     S
O392   Zn400   2.003   .     S
O393   Zn399   1.968   .     S
O394   Zn400   1.921   .     S
O395   Zn399   2.003   .     S
O396   Zn400   1.998   .     S
O397   Zn399   1.921   .     S
O398   Zn400   1.968   .     S
C402   O404    1.222   .     D
C402   H403    1.072   .     S
C407   O450    1.288   .     A
C407   C423    1.421   .     S
C407   O449    1.286   .     A
C408   C409    1.416   .     A
C408   C932    1.415   .     S
C408   C956    1.431   .     S
C409   C416    1.410   .     A
C409   C413    1.423   .     A
C410   C414    1.387   .     A
C410   C930    1.415   1_554 S
C410   C933    1.419   1_554 S
C411   C412    1.388   .     A
C411   C932    1.419   .     S
C411   C952    1.404   .     S
C412   C413    1.388   .     A
C412   H441    1.084   .     S
C413   Cl464   1.765   .     S
C414   C431    1.389   .     A
C414   H443    1.078   .     S
C415   C430    1.392   .     A
C415   H435    1.083   .     S
C415   C431    1.399   .     A
C416   C432    1.398   .     A
C416   C418    1.456   .     S
C417   H446    1.084   .     S
C417   C423    1.396   .     A
C417   C71     1.369   1_565 S
C418   O452    1.297   .     A
C418   O451    1.294   .     A
C419   H436    1.084   .     S
C419   C420    1.399   .     A
C420   C421    1.396   .     A
C420   C428    1.421   .     S
C421   H437    1.084   .     S
C422   H438    1.084   .     S
C422   C423    1.399   .     A
C422   C73     1.369   1_565 S
C424   N448    1.361   .     A
C424   H439    1.082   .     S
C424   C483    1.416   .     S
C425   Cl459   1.754   .     S
C425   N447    1.377   .     A
C426   H440    1.083   .     S
C426   N447    1.354   .     A
C427   C460    1.483   .     S
C427   N448    1.389   .     A
C427   C484    1.421   .     S
C428   O454    1.286   .     A
C428   O453    1.288   .     A
C429   C431    1.449   .     S
C429   O455    1.296   .     A
C429   O456    1.292   .     A
C430   C933    1.404   1_554 S
C430   H964    1.084   1_554 S
C432   H444    1.084   .     S
C432   C433    1.385   .     A
C433   H445    1.083   .     S
C433   C956    1.393   .     S
C434   Cl463   1.769   .     S
C434   C930    1.431   1_554 S
C434   C955    1.393   1_554 S
H442   C952    1.084   .     S
N447   Zn457   2.019   .     S
N448   Zn458   2.019   .     S
O449   Zn457   1.998   .     S
O450   Zn458   2.003   .     S
O451   Zn457   1.968   .     S
O452   Zn458   1.921   .     S
O453   Zn457   2.003   .     S
O454   Zn458   1.998   .     S
O455   Zn457   1.921   .     S
O456   Zn458   1.968   .     S
C460   O462    1.222   .     D
C460   H461    1.072   .     S
C465   O508    1.288   .     A
C465   C481    1.421   .     S
C465   O507    1.286   .     A
C466   C467    1.416   .     A
C466   C990    1.415   .     S
C466   C1014   1.431   .     S
C467   C474    1.410   .     A
C467   C471    1.423   .     A
C468   C472    1.387   .     A
C468   C988    1.415   1_554 S
C468   C991    1.419   1_554 S
C469   C470    1.388   .     A
C469   C990    1.419   .     S
C469   C1010   1.404   .     S
C470   C471    1.388   .     A
C470   H499    1.084   .     S
C471   Cl522   1.765   .     S
C472   C489    1.389   .     A
C472   H501    1.078   .     S
C473   C488    1.392   .     A
C473   H493    1.083   .     S
C473   C489    1.399   .     A
C474   C490    1.398   .     A
C474   C476    1.456   .     S
C475   H504    1.084   .     S
C475   C481    1.396   .     A
C475   C129    1.369   1_565 S
C476   O510    1.297   .     A
C476   O509    1.294   .     A
C477   H494    1.084   .     S
C477   C478    1.399   .     A
C478   C479    1.396   .     A
C478   C486    1.421   .     S
C479   H495    1.084   .     S
C480   H496    1.084   .     S
C480   C481    1.399   .     A
C480   C131    1.369   1_565 S
C482   N506    1.361   .     A
C482   H497    1.082   .     S
C482   C367    1.416   1_655 S
C483   Cl517   1.754   .     S
C483   N505    1.377   .     A
C484   H498    1.083   .     S
C484   N505    1.354   .     A
C485   C518    1.483   .     S
C485   N506    1.389   .     A
C485   C368    1.421   1_655 S
C486   O512    1.286   .     A
C486   O511    1.288   .     A
C487   C489    1.449   .     S
C487   O513    1.296   .     A
C487   O514    1.292   .     A
C488   C991    1.404   1_554 S
C488   H1022   1.084   1_554 S
C490   H502    1.084   .     S
C490   C491    1.385   .     A
C491   H503    1.083   .     S
C491   C1014   1.393   .     S
C492   Cl521   1.769   .     S
C492   C988    1.431   1_554 S
C492   C1013   1.393   1_554 S
H500   C1010   1.084   .     S
N505   Zn515   2.019   .     S
N506   Zn516   2.019   .     S
O507   Zn515   1.998   .     S
O508   Zn516   2.003   .     S
O509   Zn515   1.968   .     S
O510   Zn516   1.921   .     S
O511   Zn515   2.003   .     S
O512   Zn516   1.998   .     S
O513   Zn515   1.921   .     S
O514   Zn516   1.968   .     S
C518   O520    1.222   .     D
C518   H519    1.072   .     S
C523   O566    1.288   .     A
C523   C539    1.421   .     S
C523   O565    1.286   .     A
C524   C525    1.416   .     A
C524   C4      1.415   1_556 S
C524   C28     1.431   1_556 S
C525   C532    1.410   .     A
C525   C529    1.423   .     A
C526   C530    1.387   .     A
C527   C528    1.388   .     A
C527   C4      1.419   1_556 S
C527   C24     1.404   1_556 S
C528   C529    1.388   .     A
C528   H557    1.084   .     S
C529   Cl580   1.765   .     S
C530   C547    1.389   .     A
C530   H559    1.078   .     S
C531   C546    1.392   .     A
C531   H551    1.083   .     S
C531   C547    1.399   .     A
C532   C548    1.398   .     A
C532   C534    1.456   .     S
C533   H562    1.084   .     S
C533   C539    1.396   .     A
C533   C709    1.369   .     S
C534   O568    1.297   .     A
C534   O567    1.294   .     A
C535   H552    1.084   .     S
C535   C536    1.399   .     A
C535   C881    1.369   1_545 S
C536   C537    1.396   .     A
C536   C544    1.421   .     S
C537   H553    1.084   .     S
C537   C886    1.369   1_545 S
C538   H554    1.084   .     S
C538   C539    1.399   .     A
C538   C711    1.369   .     S
C540   N564    1.361   .     A
C540   H555    1.082   .     S
C540   C599    1.416   .     S
C541   Cl575   1.754   .     S
C541   N563    1.377   .     A
C541   C656    1.416   1_455 S
C542   H556    1.083   .     S
C542   N563    1.354   .     A
C542   C659    1.421   1_455 S
C543   C576    1.483   .     S
C543   N564    1.389   .     A
C543   C600    1.421   .     S
C544   O570    1.286   .     A
C544   O569    1.288   .     A
C545   C547    1.449   .     S
C545   O571    1.296   .     A
C545   O572    1.292   .     A
C548   H560    1.084   .     S
C548   C549    1.385   .     A
C549   H561    1.083   .     S
C549   C28     1.393   1_556 S
C550   Cl579   1.769   .     S
H558   C24     1.084   1_556 S
N563   Zn573   2.019   .     S
N564   Zn574   2.019   .     S
O565   Zn573   1.998   .     S
O566   Zn574   2.003   .     S
O567   Zn573   1.968   .     S
O568   Zn574   1.921   .     S
O569   Zn573   2.003   .     S
O570   Zn574   1.998   .     S
O571   Zn573   1.921   .     S
O572   Zn574   1.968   .     S
C576   O578    1.222   .     D
C576   H577    1.072   .     S
C581   O624    1.288   .     A
C581   C597    1.421   .     S
C581   O623    1.286   .     A
C582   C583    1.416   .     A
C582   C62     1.415   1_556 S
C582   C86     1.431   1_556 S
C583   C590    1.410   .     A
C583   C587    1.423   .     A
C584   C588    1.387   .     A
C585   C586    1.388   .     A
C585   C62     1.419   1_556 S
C585   C82     1.404   1_556 S
C586   C587    1.388   .     A
C586   H615    1.084   .     S
C587   Cl638   1.765   .     S
C588   C605    1.389   .     A
C588   H617    1.078   .     S
C589   C604    1.392   .     A
C589   H609    1.083   .     S
C589   C605    1.399   .     A
C590   C606    1.398   .     A
C590   C592    1.456   .     S
C591   H620    1.084   .     S
C591   C597    1.396   .     A
C591   C767    1.369   .     S
C592   O626    1.297   .     A
C592   O625    1.294   .     A
C593   H610    1.084   .     S
C593   C594    1.399   .     A
C593   C939    1.369   1_545 S
C594   C595    1.396   .     A
C594   C602    1.421   .     S
C595   H611    1.084   .     S
C595   C944    1.369   1_545 S
C596   H612    1.084   .     S
C596   C597    1.399   .     A
C596   C769    1.369   .     S
C598   N622    1.361   .     A
C598   H613    1.082   .     S
C598   C657    1.416   .     S
C599   Cl633   1.754   .     S
C599   N621    1.377   .     A
C600   H614    1.083   .     S
C600   N621    1.354   .     A
C601   C634    1.483   .     S
C601   N622    1.389   .     A
C601   C658    1.421   .     S
C602   O628    1.286   .     A
C602   O627    1.288   .     A
C603   C605    1.449   .     S
C603   O629    1.296   .     A
C603   O630    1.292   .     A
C606   H618    1.084   .     S
C606   C607    1.385   .     A
C607   H619    1.083   .     S
C607   C86     1.393   1_556 S
C608   Cl637   1.769   .     S
H616   C82     1.084   1_556 S
N621   Zn631   2.019   .     S
N622   Zn632   2.019   .     S
O623   Zn631   1.998   .     S
O624   Zn632   2.003   .     S
O625   Zn631   1.968   .     S
O626   Zn632   1.921   .     S
O627   Zn631   2.003   .     S
O628   Zn632   1.998   .     S
O629   Zn631   1.921   .     S
O630   Zn632   1.968   .     S
C634   O636    1.222   .     D
C634   H635    1.072   .     S
C639   O682    1.288   .     A
C639   C655    1.421   .     S
C639   O681    1.286   .     A
C640   C641    1.416   .     A
C640   C120    1.415   1_556 S
C640   C144    1.431   1_556 S
C641   C648    1.410   .     A
C641   C645    1.423   .     A
C642   C646    1.387   .     A
C643   C644    1.388   .     A
C643   C120    1.419   1_556 S
C643   C140    1.404   1_556 S
C644   C645    1.388   .     A
C644   H673    1.084   .     S
C645   Cl696   1.765   .     S
C646   C663    1.389   .     A
C646   H675    1.078   .     S
C647   C662    1.392   .     A
C647   H667    1.083   .     S
C647   C663    1.399   .     A
C648   C664    1.398   .     A
C648   C650    1.456   .     S
C649   H678    1.084   .     S
C649   C655    1.396   .     A
C649   C825    1.369   .     S
C650   O684    1.297   .     A
C650   O683    1.294   .     A
C651   H668    1.084   .     S
C651   C652    1.399   .     A
C651   C997    1.369   1_545 S
C652   C653    1.396   .     A
C652   C660    1.421   .     S
C653   H669    1.084   .     S
C653   C1002   1.369   1_545 S
C654   H670    1.084   .     S
C654   C655    1.399   .     A
C654   C827    1.369   .     S
C656   N680    1.361   .     A
C656   H671    1.082   .     S
C656   C541    1.416   1_655 S
C657   Cl691   1.754   .     S
C657   N679    1.377   .     A
C658   H672    1.083   .     S
C658   N679    1.354   .     A
C659   C692    1.483   .     S
C659   N680    1.389   .     A
C659   C542    1.421   1_655 S
C660   O686    1.286   .     A
C660   O685    1.288   .     A
C661   C663    1.449   .     S
C661   O687    1.296   .     A
C661   O688    1.292   .     A
C664   H676    1.084   .     S
C664   C665    1.385   .     A
C665   H677    1.083   .     S
C665   C144    1.393   1_556 S
C666   Cl695   1.769   .     S
H674   C140    1.084   1_556 S
N679   Zn689   2.019   .     S
N680   Zn690   2.019   .     S
O681   Zn689   1.998   .     S
O682   Zn690   2.003   .     S
O683   Zn689   1.968   .     S
O684   Zn690   1.921   .     S
O685   Zn689   2.003   .     S
O686   Zn690   1.998   .     S
O687   Zn689   1.921   .     S
O688   Zn690   1.968   .     S
C692   O694    1.222   .     D
C692   H693    1.072   .     S
C697   O740    1.288   .     A
C697   C713    1.421   .     S
C697   O739    1.286   .     A
C698   C699    1.416   .     A
C698   C178    1.415   1_556 S
C698   C202    1.431   1_556 S
C699   C706    1.410   .     A
C699   C703    1.423   .     A
C700   C704    1.387   .     A
C701   C702    1.388   .     A
C701   C178    1.419   1_556 S
C701   C198    1.404   1_556 S
C702   C703    1.388   .     A
C702   H731    1.084   .     S
C703   Cl754   1.765   .     S
C704   C721    1.389   .     A
C704   H733    1.078   .     S
C705   C720    1.392   .     A
C705   H725    1.083   .     S
C705   C721    1.399   .     A
C706   C722    1.398   .     A
C706   C708    1.456   .     S
C707   H736    1.084   .     S
C707   C713    1.396   .     A
C707   C883    1.369   .     S
C708   O742    1.297   .     A
C708   O741    1.294   .     A
C709   H726    1.084   .     S
C709   C710    1.399   .     A
C710   C711    1.396   .     A
C710   C718    1.421   .     S
C711   H727    1.084   .     S
C712   H728    1.084   .     S
C712   C713    1.399   .     A
C712   C885    1.369   .     S
C714   N738    1.361   .     A
C714   H729    1.082   .     S
C714   C773    1.416   .     S
C715   Cl749   1.754   .     S
C715   N737    1.377   .     A
C715   C830    1.416   1_455 S
C716   H730    1.083   .     S
C716   N737    1.354   .     A
C716   C833    1.421   1_455 S
C717   C750    1.483   .     S
C717   N738    1.389   .     A
C717   C774    1.421   .     S
C718   O744    1.286   .     A
C718   O743    1.288   .     A
C719   C721    1.449   .     S
C719   O745    1.296   .     A
C719   O746    1.292   .     A
C722   H734    1.084   .     S
C722   C723    1.385   .     A
C723   H735    1.083   .     S
C723   C202    1.393   1_556 S
C724   Cl753   1.769   .     S
H732   C198    1.084   1_556 S
N737   Zn747   2.019   .     S
N738   Zn748   2.019   .     S
O739   Zn747   1.998   .     S
O740   Zn748   2.003   .     S
O741   Zn747   1.968   .     S
O742   Zn748   1.921   .     S
O743   Zn747   2.003   .     S
O744   Zn748   1.998   .     S
O745   Zn747   1.921   .     S
O746   Zn748   1.968   .     S
C750   O752    1.222   .     D
C750   H751    1.072   .     S
C755   O798    1.288   .     A
C755   C771    1.421   .     S
C755   O797    1.286   .     A
C756   C757    1.416   .     A
C756   C236    1.415   1_556 S
C756   C260    1.431   1_556 S
C757   C764    1.410   .     A
C757   C761    1.423   .     A
C758   C762    1.387   .     A
C759   C760    1.388   .     A
C759   C236    1.419   1_556 S
C759   C256    1.404   1_556 S
C760   C761    1.388   .     A
C760   H789    1.084   .     S
C761   Cl812   1.765   .     S
C762   C779    1.389   .     A
C762   H791    1.078   .     S
C763   C778    1.392   .     A
C763   H783    1.083   .     S
C763   C779    1.399   .     A
C764   C780    1.398   .     A
C764   C766    1.456   .     S
C765   H794    1.084   .     S
C765   C771    1.396   .     A
C765   C941    1.369   .     S
C766   O800    1.297   .     A
C766   O799    1.294   .     A
C767   H784    1.084   .     S
C767   C768    1.399   .     A
C768   C769    1.396   .     A
C768   C776    1.421   .     S
C769   H785    1.084   .     S
C770   H786    1.084   .     S
C770   C771    1.399   .     A
C770   C943    1.369   .     S
C772   N796    1.361   .     A
C772   H787    1.082   .     S
C772   C831    1.416   .     S
C773   Cl807   1.754   .     S
C773   N795    1.377   .     A
C774   H788    1.083   .     S
C774   N795    1.354   .     A
C775   C808    1.483   .     S
C775   N796    1.389   .     A
C775   C832    1.421   .     S
C776   O802    1.286   .     A
C776   O801    1.288   .     A
C777   C779    1.449   .     S
C777   O803    1.296   .     A
C777   O804    1.292   .     A
C780   H792    1.084   .     S
C780   C781    1.385   .     A
C781   H793    1.083   .     S
C781   C260    1.393   1_556 S
C782   Cl811   1.769   .     S
H790   C256    1.084   1_556 S
N795   Zn805   2.019   .     S
N796   Zn806   2.019   .     S
O797   Zn805   1.998   .     S
O798   Zn806   2.003   .     S
O799   Zn805   1.968   .     S
O800   Zn806   1.921   .     S
O801   Zn805   2.003   .     S
O802   Zn806   1.998   .     S
O803   Zn805   1.921   .     S
O804   Zn806   1.968   .     S
C808   O810    1.222   .     D
C808   H809    1.072   .     S
C813   O856    1.288   .     A
C813   C829    1.421   .     S
C813   O855    1.286   .     A
C814   C815    1.416   .     A
C814   C294    1.415   1_556 S
C814   C318    1.431   1_556 S
C815   C822    1.410   .     A
C815   C819    1.423   .     A
C816   C820    1.387   .     A
C817   C818    1.388   .     A
C817   C294    1.419   1_556 S
C817   C314    1.404   1_556 S
C818   C819    1.388   .     A
C818   H847    1.084   .     S
C819   Cl870   1.765   .     S
C820   C837    1.389   .     A
C820   H849    1.078   .     S
C821   C836    1.392   .     A
C821   H841    1.083   .     S
C821   C837    1.399   .     A
C822   C838    1.398   .     A
C822   C824    1.456   .     S
C823   H852    1.084   .     S
C823   C829    1.396   .     A
C823   C999    1.369   .     S
C824   O858    1.297   .     A
C824   O857    1.294   .     A
C825   H842    1.084   .     S
C825   C826    1.399   .     A
C826   C827    1.396   .     A
C826   C834    1.421   .     S
C827   H843    1.084   .     S
C828   H844    1.084   .     S
C828   C829    1.399   .     A
C828   C1001   1.369   .     S
C830   N854    1.361   .     A
C830   H845    1.082   .     S
C830   C715    1.416   1_655 S
C831   Cl865   1.754   .     S
C831   N853    1.377   .     A
C832   H846    1.083   .     S
C832   N853    1.354   .     A
C833   C866    1.483   .     S
C833   N854    1.389   .     A
C833   C716    1.421   1_655 S
C834   O860    1.286   .     A
C834   O859    1.288   .     A
C835   C837    1.449   .     S
C835   O861    1.296   .     A
C835   O862    1.292   .     A
C838   H850    1.084   .     S
C838   C839    1.385   .     A
C839   H851    1.083   .     S
C839   C318    1.393   1_556 S
C840   Cl869   1.769   .     S
H848   C314    1.084   1_556 S
N853   Zn863   2.019   .     S
N854   Zn864   2.019   .     S
O855   Zn863   1.998   .     S
O856   Zn864   2.003   .     S
O857   Zn863   1.968   .     S
O858   Zn864   1.921   .     S
O859   Zn863   2.003   .     S
O860   Zn864   1.998   .     S
O861   Zn863   1.921   .     S
O862   Zn864   1.968   .     S
C866   O868    1.222   .     D
C866   H867    1.072   .     S
C871   O914    1.288   .     A
C871   C887    1.421   .     S
C871   O913    1.286   .     A
C872   C873    1.416   .     A
C872   C352    1.415   1_556 S
C872   C376    1.431   1_556 S
C873   C880    1.410   .     A
C873   C877    1.423   .     A
C874   C878    1.387   .     A
C875   C876    1.388   .     A
C875   C352    1.419   1_556 S
C875   C372    1.404   1_556 S
C876   C877    1.388   .     A
C876   H905    1.084   .     S
C877   Cl928   1.765   .     S
C878   C895    1.389   .     A
C878   H907    1.078   .     S
C879   C894    1.392   .     A
C879   H899    1.083   .     S
C879   C895    1.399   .     A
C880   C896    1.398   .     A
C880   C882    1.456   .     S
C881   H910    1.084   .     S
C881   C887    1.396   .     A
C881   C535    1.369   1_565 S
C882   O916    1.297   .     A
C882   O915    1.294   .     A
C883   H900    1.084   .     S
C883   C884    1.399   .     A
C884   C885    1.396   .     A
C884   C892    1.421   .     S
C885   H901    1.084   .     S
C886   H902    1.084   .     S
C886   C887    1.399   .     A
C886   C537    1.369   1_565 S
C888   N912    1.361   .     A
C888   H903    1.082   .     S
C888   C947    1.416   .     S
C889   Cl923   1.754   .     S
C889   N911    1.377   .     A
C889   C1004   1.416   1_455 S
C890   H904    1.083   .     S
C890   N911    1.354   .     A
C890   C1007   1.421   1_455 S
C891   C924    1.483   .     S
C891   N912    1.389   .     A
C891   C948    1.421   .     S
C892   O918    1.286   .     A
C892   O917    1.288   .     A
C893   C895    1.449   .     S
C893   O919    1.296   .     A
C893   O920    1.292   .     A
C896   H908    1.084   .     S
C896   C897    1.385   .     A
C897   H909    1.083   .     S
C897   C376    1.393   1_556 S
C898   Cl927   1.769   .     S
H906   C372    1.084   1_556 S
N911   Zn921   2.019   .     S
N912   Zn922   2.019   .     S
O913   Zn921   1.998   .     S
O914   Zn922   2.003   .     S
O915   Zn921   1.968   .     S
O916   Zn922   1.921   .     S
O917   Zn921   2.003   .     S
O918   Zn922   1.998   .     S
O919   Zn921   1.921   .     S
O920   Zn922   1.968   .     S
C924   O926    1.222   .     D
C924   H925    1.072   .     S
C929   O972    1.288   .     A
C929   C945    1.421   .     S
C929   O971    1.286   .     A
C930   C931    1.416   .     A
C930   C410    1.415   1_556 S
C930   C434    1.431   1_556 S
C931   C938    1.410   .     A
C931   C935    1.423   .     A
C932   C936    1.387   .     A
C933   C934    1.388   .     A
C933   C410    1.419   1_556 S
C933   C430    1.404   1_556 S
C934   C935    1.388   .     A
C934   H963    1.084   .     S
C935   Cl986   1.765   .     S
C936   C953    1.389   .     A
C936   H965    1.078   .     S
C937   C952    1.392   .     A
C937   H957    1.083   .     S
C937   C953    1.399   .     A
C938   C954    1.398   .     A
C938   C940    1.456   .     S
C939   H968    1.084   .     S
C939   C945    1.396   .     A
C939   C593    1.369   1_565 S
C940   O974    1.297   .     A
C940   O973    1.294   .     A
C941   H958    1.084   .     S
C941   C942    1.399   .     A
C942   C943    1.396   .     A
C942   C950    1.421   .     S
C943   H959    1.084   .     S
C944   H960    1.084   .     S
C944   C945    1.399   .     A
C944   C595    1.369   1_565 S
C946   N970    1.361   .     A
C946   H961    1.082   .     S
C946   C1005   1.416   .     S
C947   Cl981   1.754   .     S
C947   N969    1.377   .     A
C948   H962    1.083   .     S
C948   N969    1.354   .     A
C949   C982    1.483   .     S
C949   N970    1.389   .     A
C949   C1006   1.421   .     S
C950   O976    1.286   .     A
C950   O975    1.288   .     A
C951   C953    1.449   .     S
C951   O977    1.296   .     A
C951   O978    1.292   .     A
C954   H966    1.084   .     S
C954   C955    1.385   .     A
C955   H967    1.083   .     S
C955   C434    1.393   1_556 S
C956   Cl985   1.769   .     S
H964   C430    1.084   1_556 S
N969   Zn979   2.019   .     S
N970   Zn980   2.019   .     S
O971   Zn979   1.998   .     S
O972   Zn980   2.003   .     S
O973   Zn979   1.968   .     S
O974   Zn980   1.921   .     S
O975   Zn979   2.003   .     S
O976   Zn980   1.998   .     S
O977   Zn979   1.921   .     S
O978   Zn980   1.968   .     S
C982   O984    1.222   .     D
C982   H983    1.072   .     S
C987   O1030   1.288   .     A
C987   C1003   1.421   .     S
C987   O1029   1.286   .     A
C988   C989    1.416   .     A
C988   C468    1.415   1_556 S
C988   C492    1.431   1_556 S
C989   C996    1.410   .     A
C989   C993    1.423   .     A
C990   C994    1.387   .     A
C991   C992    1.388   .     A
C991   C468    1.419   1_556 S
C991   C488    1.404   1_556 S
C992   C993    1.388   .     A
C992   H1021   1.084   .     S
C993   Cl1044  1.765   .     S
C994   C1011   1.389   .     A
C994   H1023   1.078   .     S
C995   C1010   1.392   .     A
C995   H1015   1.083   .     S
C995   C1011   1.399   .     A
C996   C1012   1.398   .     A
C996   C998    1.456   .     S
C997   H1026   1.084   .     S
C997   C1003   1.396   .     A
C997   C651    1.369   1_565 S
C998   O1032   1.297   .     A
C998   O1031   1.294   .     A
C999   H1016   1.084   .     S
C999   C1000   1.399   .     A
C1000  C1001   1.396   .     A
C1000  C1008   1.421   .     S
C1001  H1017   1.084   .     S
C1002  H1018   1.084   .     S
C1002  C1003   1.399   .     A
C1002  C653    1.369   1_565 S
C1004  N1028   1.361   .     A
C1004  H1019   1.082   .     S
C1004  C889    1.416   1_655 S
C1005  Cl1039  1.754   .     S
C1005  N1027   1.377   .     A
C1006  H1020   1.083   .     S
C1006  N1027   1.354   .     A
C1007  C1040   1.483   .     S
C1007  N1028   1.389   .     A
C1007  C890    1.421   1_655 S
C1008  O1034   1.286   .     A
C1008  O1033   1.288   .     A
C1009  C1011   1.449   .     S
C1009  O1035   1.296   .     A
C1009  O1036   1.292   .     A
C1012  H1024   1.084   .     S
C1012  C1013   1.385   .     A
C1013  H1025   1.083   .     S
C1013  C492    1.393   1_556 S
C1014  Cl1043  1.769   .     S
H1022  C488    1.084   1_556 S
N1027  Zn1037  2.019   .     S
N1028  Zn1038  2.019   .     S
O1029  Zn1037  1.998   .     S
O1030  Zn1038  2.003   .     S
O1031  Zn1037  1.968   .     S
O1032  Zn1038  1.921   .     S
O1033  Zn1037  2.003   .     S
O1034  Zn1038  1.998   .     S
O1035  Zn1037  1.921   .     S
O1036  Zn1038  1.968   .     S
C1040  O1042   1.222   .     D
C1040  H1041   1.072   .     S
