data_str_m3_o1_o17_pcu_sym.72
_audit_creation_date              2020-01-03
_audit_creation_method            'Materials Studio'
_symmetry_space_group_name_H-M    'P1'
_symmetry_Int_Tables_number       1
_symmetry_cell_setting            triclinic
loop_
_symmetry_equiv_pos_as_xyz
  x,y,z
_cell_length_a                    32.3055
_cell_length_b                    29.7137
_cell_length_c                    29.6995
_cell_angle_alpha                 89.7405
_cell_angle_beta                  89.5394
_cell_angle_gamma                 90.0817
loop_
_atom_site_label
_atom_site_type_symbol
_atom_site_fract_x
_atom_site_fract_y
_atom_site_fract_z
_atom_site_U_iso_or_equiv
_atom_site_adp_type
_atom_site_occupancy
C1     C     0.08666   0.16669   0.25036   0.00000  Uiso   1.00
C2     C     0.04246   0.16689   0.25075   0.00000  Uiso   1.00
C3     C     0.18845   0.02412   0.28172   0.00000  Uiso   1.00
C4     C     0.14579   0.30939   0.21754   0.00000  Uiso   1.00
C5     C     0.14470   0.02437   0.21844   0.00000  Uiso   1.00
C6     C     0.18759   0.30912   0.28245   0.00000  Uiso   1.00
C7     C     0.16764   0.16671   0.16363   0.00000  Uiso   1.00
C8     C     0.16564   0.16657   0.33637   0.00000  Uiso   1.00
C9     C     0.20193   0.15674   0.40588   0.00000  Uiso   1.00
C10    C     0.13102   0.17492   0.09416   0.00000  Uiso   1.00
C11    C     0.16551   0.16664   0.38398   0.00000  Uiso   1.00
C12    C     0.24667   0.16674   0.24971   0.00000  Uiso   1.00
C13    C     0.16788   0.16686   0.11599   0.00000  Uiso   1.00
C14    C     0.13019   0.18016   0.40690   0.00000  Uiso   1.00
C15    C     0.20497   0.16093   0.09297   0.00000  Uiso   1.00
C16    C     0.13046   0.18218   0.45369   0.00000  Uiso   1.00
C17    C     0.20557   0.16233   0.04611   0.00000  Uiso   1.00
C18    C     0.16753   0.17169   0.47654   0.00000  Uiso   1.00
C19    C     0.16792   0.17090   0.02336   0.00000  Uiso   1.00
C20    C     0.20418   0.16179   0.45227   0.00000  Uiso   1.00
C21    C     0.13053   0.17822   0.04757   0.00000  Uiso   1.00
C22    C     0.09443   0.19384   0.47785   0.00000  Uiso   1.00
C23    C     0.09388   0.18997   0.02492   0.00000  Uiso   1.00
C24    C     0.24303   0.15687   0.02183   0.00000  Uiso   1.00
C25    C     0.05908   0.25508   0.44105   0.00000  Uiso   1.00
C26    C     0.29267   0.10707   0.05656   0.00000  Uiso   1.00
C27    C     0.05020   0.24329   0.06567   0.00000  Uiso   1.00
C28    C     0.29175   0.19788   0.42769   0.00000  Uiso   1.00
C29    C     0.25442   0.04483   0.31693   0.00000  Uiso   1.00
C30    C     0.14307   0.28866   0.13851   0.00000  Uiso   1.00
C31    C     0.07835   0.04379   0.18289   0.00000  Uiso   1.00
C32    C     0.19250   0.28632   0.36123   0.00000  Uiso   1.00
C33    C     0.24236   0.15755   0.47436   0.00000  Uiso   1.00
C34    C     0.02113   0.12601   0.25055   0.00000  Uiso   1.00
C35    C     0.31212   0.20797   0.25057   0.00000  Uiso   1.00
C36    C     0.31210   0.12606   0.24869   0.00000  Uiso   1.00
C37    C     0.02131   0.20795   0.25080   0.00000  Uiso   1.00
C38    C     0.29087   0.16695   0.24949   0.00000  Uiso   1.00
H39    H     0.22867   0.14646   0.38615   0.00000  Uiso   1.00
H40    H     0.05832   0.27721   0.47105   0.00000  Uiso   1.00
H41    H     0.03162   0.26251   0.42010   0.00000  Uiso   1.00
H42    H     0.08725   0.26276   0.42072   0.00000  Uiso   1.00
H43    H     0.30525   0.17135   0.03184   0.00000  Uiso   1.00
H44    H     0.29889   0.08745   0.02550   0.00000  Uiso   1.00
H45    H     0.26762   0.09030   0.07625   0.00000  Uiso   1.00
H46    H     0.32109   0.10742   0.07733   0.00000  Uiso   1.00
H47    H     0.04667   0.17280   0.07053   0.00000  Uiso   1.00
H48    H     0.01906   0.25528   0.05571   0.00000  Uiso   1.00
H49    H     0.07376   0.26711   0.05195   0.00000  Uiso   1.00
H50    H     0.10329   0.17993   0.11425   0.00000  Uiso   1.00
H51    H     0.05206   0.24341   0.10301   0.00000  Uiso   1.00
H52    H     0.30413   0.13872   0.46300   0.00000  Uiso   1.00
H53    H     0.31947   0.19263   0.40603   0.00000  Uiso   1.00
H54    H     0.29852   0.22326   0.45398   0.00000  Uiso   1.00
H55    H     0.26695   0.21140   0.40592   0.00000  Uiso   1.00
H56    H     0.19489   0.05165   0.34576   0.00000  Uiso   1.00
H57    H     0.26349   0.02338   0.34589   0.00000  Uiso   1.00
H58    H     0.26799   0.07871   0.32204   0.00000  Uiso   1.00
H59    H     0.26726   0.03030   0.28535   0.00000  Uiso   1.00
H60    H     0.09341   0.28711   0.18429   0.00000  Uiso   1.00
H61    H     0.10252   0.18781   0.38793   0.00000  Uiso   1.00
H62    H     0.13521   0.32116   0.12249   0.00000  Uiso   1.00
H63    H     0.13011   0.26196   0.11700   0.00000  Uiso   1.00
H64    H     0.17725   0.28460   0.13955   0.00000  Uiso   1.00
H65    H     0.13798   0.05466   0.15533   0.00000  Uiso   1.00
H66    H     0.07034   0.02249   0.15361   0.00000  Uiso   1.00
H67    H     0.06391   0.07722   0.17766   0.00000  Uiso   1.00
H68    H     0.06548   0.02842   0.21421   0.00000  Uiso   1.00
H69    H     0.24104   0.28718   0.31405   0.00000  Uiso   1.00
H70    H     0.20280   0.31713   0.37871   0.00000  Uiso   1.00
H71    H     0.20405   0.25712   0.38081   0.00000  Uiso   1.00
H72    H     0.23304   0.15561   0.11202   0.00000  Uiso   1.00
H73    H     0.15811   0.28486   0.36094   0.00000  Uiso   1.00
H74    H     0.03700   0.09404   0.25167   0.00000  Uiso   1.00
H75    H     0.29606   0.23996   0.25109   0.00000  Uiso   1.00
H76    H     0.29615   0.09414   0.24674   0.00000  Uiso   1.00
H77    H     0.03745   0.23994   0.25115   0.00000  Uiso   1.00
H78    H     0.03118   0.19935   0.47062   0.00000  Uiso   1.00
N79    N     0.16667   0.28573   0.25000   0.00000  Uiso   1.00
N80    N     0.20929   0.28443   0.31587   0.00000  Uiso   1.00
N81    N     0.16667   0.04760   0.25000   0.00000  Uiso   1.00
N82    N     0.05837   0.20823   0.45468   0.00000  Uiso   1.00
N83    N     0.28116   0.15279   0.04533   0.00000  Uiso   1.00
N84    N     0.05623   0.19806   0.04889   0.00000  Uiso   1.00
N85    N     0.27976   0.15554   0.44848   0.00000  Uiso   1.00
N86    N     0.20984   0.04881   0.31514   0.00000  Uiso   1.00
N87    N     0.12522   0.28499   0.18329   0.00000  Uiso   1.00
N88    N     0.12275   0.04939   0.18549   0.00000  Uiso   1.00
O89    O     0.10559   0.20487   0.24999   0.00000  Uiso   1.00
O90    O     0.22774   0.12846   0.25001   0.00000  Uiso   1.00
O91    O     0.22774   0.20487   0.25001   0.00000  Uiso   1.00
O92    O     0.10559   0.12846   0.24999   0.00000  Uiso   1.00
O93    O     0.16666   0.20489   0.18393   0.00000  Uiso   1.00
O94    O     0.16667   0.12844   0.31607   0.00000  Uiso   1.00
O95    O     0.16667   0.20489   0.31607   0.00000  Uiso   1.00
O96    O     0.16666   0.12844   0.18393   0.00000  Uiso   1.00
Zn97   Zn    0.16667   0.21771   0.25000   0.00000  Uiso   1.00
Zn98   Zn    0.16667   0.11563   0.25000   0.00000  Uiso   1.00
C99    C     0.41999   0.16669   0.25036   0.00000  Uiso   1.00
C100   C     0.37579   0.16689   0.25075   0.00000  Uiso   1.00
C101   C     0.52178   0.02412   0.28172   0.00000  Uiso   1.00
C102   C     0.47912   0.30939   0.21754   0.00000  Uiso   1.00
C103   C     0.47803   0.02437   0.21844   0.00000  Uiso   1.00
C104   C     0.52092   0.30912   0.28245   0.00000  Uiso   1.00
C105   C     0.50098   0.16671   0.16363   0.00000  Uiso   1.00
C106   C     0.49898   0.16657   0.33637   0.00000  Uiso   1.00
C107   C     0.53526   0.15674   0.40588   0.00000  Uiso   1.00
C108   C     0.46435   0.17492   0.09416   0.00000  Uiso   1.00
C109   C     0.49884   0.16664   0.38398   0.00000  Uiso   1.00
C110   C     0.58001   0.16674   0.24971   0.00000  Uiso   1.00
C111   C     0.50122   0.16686   0.11599   0.00000  Uiso   1.00
C112   C     0.46353   0.18016   0.40690   0.00000  Uiso   1.00
C113   C     0.53830   0.16093   0.09297   0.00000  Uiso   1.00
C114   C     0.46380   0.18218   0.45369   0.00000  Uiso   1.00
C115   C     0.53890   0.16233   0.04611   0.00000  Uiso   1.00
C116   C     0.50087   0.17169   0.47654   0.00000  Uiso   1.00
C117   C     0.50126   0.17090   0.02336   0.00000  Uiso   1.00
C118   C     0.53751   0.16179   0.45227   0.00000  Uiso   1.00
C119   C     0.46386   0.17822   0.04757   0.00000  Uiso   1.00
C120   C     0.42776   0.19384   0.47785   0.00000  Uiso   1.00
C121   C     0.42721   0.18997   0.02492   0.00000  Uiso   1.00
C122   C     0.57636   0.15687   0.02183   0.00000  Uiso   1.00
C123   C     0.39241   0.25508   0.44105   0.00000  Uiso   1.00
C124   C     0.62600   0.10707   0.05656   0.00000  Uiso   1.00
C125   C     0.38353   0.24329   0.06567   0.00000  Uiso   1.00
C126   C     0.62509   0.19788   0.42769   0.00000  Uiso   1.00
C127   C     0.58775   0.04483   0.31693   0.00000  Uiso   1.00
C128   C     0.47640   0.28866   0.13851   0.00000  Uiso   1.00
C129   C     0.41169   0.04379   0.18289   0.00000  Uiso   1.00
C130   C     0.52583   0.28632   0.36123   0.00000  Uiso   1.00
C131   C     0.57570   0.15755   0.47436   0.00000  Uiso   1.00
C132   C     0.35446   0.12601   0.25055   0.00000  Uiso   1.00
C133   C     0.64546   0.20797   0.25057   0.00000  Uiso   1.00
C134   C     0.64543   0.12606   0.24869   0.00000  Uiso   1.00
C135   C     0.35465   0.20795   0.25080   0.00000  Uiso   1.00
C136   C     0.62421   0.16695   0.24949   0.00000  Uiso   1.00
H137   H     0.56200   0.14646   0.38615   0.00000  Uiso   1.00
H138   H     0.39165   0.27721   0.47105   0.00000  Uiso   1.00
H139   H     0.36495   0.26251   0.42010   0.00000  Uiso   1.00
H140   H     0.42058   0.26276   0.42072   0.00000  Uiso   1.00
H141   H     0.63859   0.17135   0.03184   0.00000  Uiso   1.00
H142   H     0.63223   0.08745   0.02550   0.00000  Uiso   1.00
H143   H     0.60095   0.09030   0.07625   0.00000  Uiso   1.00
H144   H     0.65442   0.10742   0.07733   0.00000  Uiso   1.00
H145   H     0.38001   0.17280   0.07053   0.00000  Uiso   1.00
H146   H     0.35239   0.25528   0.05571   0.00000  Uiso   1.00
H147   H     0.40709   0.26711   0.05195   0.00000  Uiso   1.00
H148   H     0.43663   0.17993   0.11425   0.00000  Uiso   1.00
H149   H     0.38539   0.24341   0.10301   0.00000  Uiso   1.00
H150   H     0.63746   0.13872   0.46300   0.00000  Uiso   1.00
H151   H     0.65280   0.19263   0.40603   0.00000  Uiso   1.00
H152   H     0.63186   0.22326   0.45398   0.00000  Uiso   1.00
H153   H     0.60029   0.21140   0.40592   0.00000  Uiso   1.00
H154   H     0.52822   0.05165   0.34576   0.00000  Uiso   1.00
H155   H     0.59682   0.02338   0.34589   0.00000  Uiso   1.00
H156   H     0.60132   0.07871   0.32204   0.00000  Uiso   1.00
H157   H     0.60059   0.03030   0.28535   0.00000  Uiso   1.00
H158   H     0.42675   0.28711   0.18429   0.00000  Uiso   1.00
H159   H     0.43586   0.18781   0.38793   0.00000  Uiso   1.00
H160   H     0.46854   0.32116   0.12249   0.00000  Uiso   1.00
H161   H     0.46344   0.26196   0.11700   0.00000  Uiso   1.00
H162   H     0.51058   0.28460   0.13955   0.00000  Uiso   1.00
H163   H     0.47131   0.05466   0.15533   0.00000  Uiso   1.00
H164   H     0.40367   0.02249   0.15361   0.00000  Uiso   1.00
H165   H     0.39724   0.07722   0.17766   0.00000  Uiso   1.00
H166   H     0.39882   0.02842   0.21421   0.00000  Uiso   1.00
H167   H     0.57437   0.28718   0.31405   0.00000  Uiso   1.00
H168   H     0.53613   0.31713   0.37871   0.00000  Uiso   1.00
H169   H     0.53738   0.25712   0.38081   0.00000  Uiso   1.00
H170   H     0.56637   0.15561   0.11202   0.00000  Uiso   1.00
H171   H     0.49144   0.28486   0.36094   0.00000  Uiso   1.00
H172   H     0.37033   0.09404   0.25167   0.00000  Uiso   1.00
H173   H     0.62940   0.23996   0.25109   0.00000  Uiso   1.00
H174   H     0.62948   0.09414   0.24674   0.00000  Uiso   1.00
H175   H     0.37079   0.23994   0.25115   0.00000  Uiso   1.00
H176   H     0.36452   0.19935   0.47062   0.00000  Uiso   1.00
N177   N     0.50000   0.28573   0.25000   0.00000  Uiso   1.00
N178   N     0.54262   0.28443   0.31587   0.00000  Uiso   1.00
N179   N     0.50000   0.04760   0.25000   0.00000  Uiso   1.00
N180   N     0.39170   0.20823   0.45468   0.00000  Uiso   1.00
N181   N     0.61450   0.15279   0.04533   0.00000  Uiso   1.00
N182   N     0.38956   0.19806   0.04889   0.00000  Uiso   1.00
N183   N     0.61310   0.15554   0.44848   0.00000  Uiso   1.00
N184   N     0.54317   0.04881   0.31514   0.00000  Uiso   1.00
N185   N     0.45855   0.28499   0.18329   0.00000  Uiso   1.00
N186   N     0.45609   0.04939   0.18549   0.00000  Uiso   1.00
O187   O     0.43892   0.20487   0.24999   0.00000  Uiso   1.00
O188   O     0.56108   0.12846   0.25001   0.00000  Uiso   1.00
O189   O     0.56108   0.20487   0.25001   0.00000  Uiso   1.00
O190   O     0.43892   0.12846   0.24999   0.00000  Uiso   1.00
O191   O     0.49999   0.20489   0.18393   0.00000  Uiso   1.00
O192   O     0.50001   0.12844   0.31607   0.00000  Uiso   1.00
O193   O     0.50001   0.20489   0.31607   0.00000  Uiso   1.00
O194   O     0.49999   0.12844   0.18393   0.00000  Uiso   1.00
Zn195  Zn    0.50000   0.21771   0.25000   0.00000  Uiso   1.00
Zn196  Zn    0.50000   0.11563   0.25000   0.00000  Uiso   1.00
C197   C     0.75333   0.16669   0.25036   0.00000  Uiso   1.00
C198   C     0.70912   0.16689   0.25075   0.00000  Uiso   1.00
C199   C     0.85511   0.02412   0.28172   0.00000  Uiso   1.00
C200   C     0.81245   0.30939   0.21754   0.00000  Uiso   1.00
C201   C     0.81137   0.02437   0.21844   0.00000  Uiso   1.00
C202   C     0.85426   0.30912   0.28245   0.00000  Uiso   1.00
C203   C     0.83431   0.16671   0.16363   0.00000  Uiso   1.00
C204   C     0.83231   0.16657   0.33637   0.00000  Uiso   1.00
C205   C     0.86860   0.15674   0.40588   0.00000  Uiso   1.00
C206   C     0.79768   0.17492   0.09416   0.00000  Uiso   1.00
C207   C     0.83218   0.16664   0.38398   0.00000  Uiso   1.00
C208   C     0.91334   0.16674   0.24971   0.00000  Uiso   1.00
C209   C     0.83455   0.16686   0.11599   0.00000  Uiso   1.00
C210   C     0.79686   0.18016   0.40690   0.00000  Uiso   1.00
C211   C     0.87164   0.16093   0.09297   0.00000  Uiso   1.00
C212   C     0.79713   0.18218   0.45369   0.00000  Uiso   1.00
C213   C     0.87224   0.16233   0.04611   0.00000  Uiso   1.00
C214   C     0.83420   0.17169   0.47654   0.00000  Uiso   1.00
C215   C     0.83459   0.17090   0.02336   0.00000  Uiso   1.00
C216   C     0.87085   0.16179   0.45227   0.00000  Uiso   1.00
C217   C     0.79719   0.17822   0.04757   0.00000  Uiso   1.00
C218   C     0.76109   0.19384   0.47785   0.00000  Uiso   1.00
C219   C     0.76055   0.18997   0.02492   0.00000  Uiso   1.00
C220   C     0.90969   0.15687   0.02183   0.00000  Uiso   1.00
C221   C     0.72575   0.25508   0.44105   0.00000  Uiso   1.00
C222   C     0.95933   0.10707   0.05656   0.00000  Uiso   1.00
C223   C     0.71686   0.24329   0.06567   0.00000  Uiso   1.00
C224   C     0.95842   0.19788   0.42769   0.00000  Uiso   1.00
C225   C     0.92108   0.04483   0.31693   0.00000  Uiso   1.00
C226   C     0.80974   0.28866   0.13851   0.00000  Uiso   1.00
C227   C     0.74502   0.04379   0.18289   0.00000  Uiso   1.00
C228   C     0.85917   0.28632   0.36123   0.00000  Uiso   1.00
C229   C     0.90903   0.15755   0.47436   0.00000  Uiso   1.00
C230   C     0.68780   0.12601   0.25055   0.00000  Uiso   1.00
C231   C     0.97879   0.20797   0.25057   0.00000  Uiso   1.00
C232   C     0.97877   0.12606   0.24869   0.00000  Uiso   1.00
C233   C     0.68798   0.20795   0.25080   0.00000  Uiso   1.00
C234   C     0.95754   0.16695   0.24949   0.00000  Uiso   1.00
H235   H     0.89534   0.14646   0.38615   0.00000  Uiso   1.00
H236   H     0.72499   0.27721   0.47105   0.00000  Uiso   1.00
H237   H     0.69828   0.26251   0.42010   0.00000  Uiso   1.00
H238   H     0.75391   0.26276   0.42072   0.00000  Uiso   1.00
H239   H     0.97192   0.17135   0.03184   0.00000  Uiso   1.00
H240   H     0.96556   0.08745   0.02550   0.00000  Uiso   1.00
H241   H     0.93428   0.09030   0.07625   0.00000  Uiso   1.00
H242   H     0.98776   0.10742   0.07733   0.00000  Uiso   1.00
H243   H     0.71334   0.17280   0.07053   0.00000  Uiso   1.00
H244   H     0.68572   0.25528   0.05571   0.00000  Uiso   1.00
H245   H     0.74042   0.26711   0.05195   0.00000  Uiso   1.00
H246   H     0.76996   0.17993   0.11425   0.00000  Uiso   1.00
H247   H     0.71872   0.24341   0.10301   0.00000  Uiso   1.00
H248   H     0.97080   0.13872   0.46300   0.00000  Uiso   1.00
H249   H     0.98613   0.19263   0.40603   0.00000  Uiso   1.00
H250   H     0.96519   0.22326   0.45398   0.00000  Uiso   1.00
H251   H     0.93362   0.21140   0.40592   0.00000  Uiso   1.00
H252   H     0.86155   0.05165   0.34576   0.00000  Uiso   1.00
H253   H     0.93015   0.02338   0.34589   0.00000  Uiso   1.00
H254   H     0.93466   0.07871   0.32204   0.00000  Uiso   1.00
H255   H     0.93393   0.03030   0.28535   0.00000  Uiso   1.00
H256   H     0.76008   0.28711   0.18429   0.00000  Uiso   1.00
H257   H     0.76919   0.18781   0.38793   0.00000  Uiso   1.00
H258   H     0.80188   0.32116   0.12249   0.00000  Uiso   1.00
H259   H     0.79677   0.26196   0.11700   0.00000  Uiso   1.00
H260   H     0.84391   0.28460   0.13955   0.00000  Uiso   1.00
H261   H     0.80465   0.05466   0.15533   0.00000  Uiso   1.00
H262   H     0.73700   0.02249   0.15361   0.00000  Uiso   1.00
H263   H     0.73058   0.07722   0.17766   0.00000  Uiso   1.00
H264   H     0.73215   0.02842   0.21421   0.00000  Uiso   1.00
H265   H     0.90770   0.28718   0.31405   0.00000  Uiso   1.00
H266   H     0.86946   0.31713   0.37871   0.00000  Uiso   1.00
H267   H     0.87071   0.25712   0.38081   0.00000  Uiso   1.00
H268   H     0.89970   0.15561   0.11202   0.00000  Uiso   1.00
H269   H     0.82477   0.28486   0.36094   0.00000  Uiso   1.00
H270   H     0.70367   0.09404   0.25167   0.00000  Uiso   1.00
H271   H     0.96273   0.23996   0.25109   0.00000  Uiso   1.00
H272   H     0.96281   0.09414   0.24674   0.00000  Uiso   1.00
H273   H     0.70412   0.23994   0.25115   0.00000  Uiso   1.00
H274   H     0.69785   0.19935   0.47062   0.00000  Uiso   1.00
N275   N     0.83333   0.28573   0.25000   0.00000  Uiso   1.00
N276   N     0.87595   0.28443   0.31587   0.00000  Uiso   1.00
N277   N     0.83333   0.04760   0.25000   0.00000  Uiso   1.00
N278   N     0.72503   0.20823   0.45468   0.00000  Uiso   1.00
N279   N     0.94783   0.15279   0.04533   0.00000  Uiso   1.00
N280   N     0.72289   0.19806   0.04889   0.00000  Uiso   1.00
N281   N     0.94643   0.15554   0.44848   0.00000  Uiso   1.00
N282   N     0.87651   0.04881   0.31514   0.00000  Uiso   1.00
N283   N     0.79188   0.28499   0.18329   0.00000  Uiso   1.00
N284   N     0.78942   0.04939   0.18549   0.00000  Uiso   1.00
O285   O     0.77226   0.20487   0.24999   0.00000  Uiso   1.00
O286   O     0.89441   0.12846   0.25001   0.00000  Uiso   1.00
O287   O     0.89441   0.20487   0.25001   0.00000  Uiso   1.00
O288   O     0.77226   0.12846   0.24999   0.00000  Uiso   1.00
O289   O     0.83333   0.20489   0.18393   0.00000  Uiso   1.00
O290   O     0.83334   0.12844   0.31607   0.00000  Uiso   1.00
O291   O     0.83334   0.20489   0.31607   0.00000  Uiso   1.00
O292   O     0.83333   0.12844   0.18393   0.00000  Uiso   1.00
Zn293  Zn    0.83333   0.21771   0.25000   0.00000  Uiso   1.00
Zn294  Zn    0.83333   0.11563   0.25000   0.00000  Uiso   1.00
C295   C     0.08666   0.50003   0.25036   0.00000  Uiso   1.00
C296   C     0.04246   0.50022   0.25075   0.00000  Uiso   1.00
C297   C     0.18845   0.35745   0.28172   0.00000  Uiso   1.00
C298   C     0.14579   0.64272   0.21754   0.00000  Uiso   1.00
C299   C     0.14470   0.35770   0.21844   0.00000  Uiso   1.00
C300   C     0.18759   0.64245   0.28245   0.00000  Uiso   1.00
C301   C     0.16764   0.50004   0.16363   0.00000  Uiso   1.00
C302   C     0.16564   0.49990   0.33637   0.00000  Uiso   1.00
C303   C     0.20193   0.49008   0.40588   0.00000  Uiso   1.00
C304   C     0.13102   0.50825   0.09416   0.00000  Uiso   1.00
C305   C     0.16551   0.49998   0.38398   0.00000  Uiso   1.00
C306   C     0.24667   0.50007   0.24971   0.00000  Uiso   1.00
C307   C     0.16788   0.50019   0.11599   0.00000  Uiso   1.00
C308   C     0.13019   0.51349   0.40690   0.00000  Uiso   1.00
C309   C     0.20497   0.49427   0.09297   0.00000  Uiso   1.00
C310   C     0.13046   0.51551   0.45369   0.00000  Uiso   1.00
C311   C     0.20557   0.49566   0.04611   0.00000  Uiso   1.00
C312   C     0.16753   0.50502   0.47654   0.00000  Uiso   1.00
C313   C     0.16792   0.50423   0.02336   0.00000  Uiso   1.00
C314   C     0.20418   0.49512   0.45227   0.00000  Uiso   1.00
C315   C     0.13053   0.51155   0.04757   0.00000  Uiso   1.00
C316   C     0.09443   0.52717   0.47785   0.00000  Uiso   1.00
C317   C     0.09388   0.52330   0.02492   0.00000  Uiso   1.00
C318   C     0.24303   0.49020   0.02183   0.00000  Uiso   1.00
C319   C     0.05908   0.58841   0.44105   0.00000  Uiso   1.00
C320   C     0.29267   0.44041   0.05656   0.00000  Uiso   1.00
C321   C     0.05020   0.57662   0.06567   0.00000  Uiso   1.00
C322   C     0.29175   0.53121   0.42769   0.00000  Uiso   1.00
C323   C     0.25442   0.37816   0.31693   0.00000  Uiso   1.00
C324   C     0.14307   0.62200   0.13851   0.00000  Uiso   1.00
C325   C     0.07835   0.37712   0.18289   0.00000  Uiso   1.00
C326   C     0.19250   0.61965   0.36123   0.00000  Uiso   1.00
C327   C     0.24236   0.49088   0.47436   0.00000  Uiso   1.00
C328   C     0.02113   0.45934   0.25055   0.00000  Uiso   1.00
C329   C     0.31212   0.54131   0.25057   0.00000  Uiso   1.00
C330   C     0.31210   0.45939   0.24869   0.00000  Uiso   1.00
C331   C     0.02131   0.54129   0.25080   0.00000  Uiso   1.00
C332   C     0.29087   0.50028   0.24949   0.00000  Uiso   1.00
H333   H     0.22867   0.47980   0.38615   0.00000  Uiso   1.00
H334   H     0.05832   0.61054   0.47105   0.00000  Uiso   1.00
H335   H     0.03162   0.59585   0.42010   0.00000  Uiso   1.00
H336   H     0.08725   0.59609   0.42072   0.00000  Uiso   1.00
H337   H     0.30525   0.50469   0.03184   0.00000  Uiso   1.00
H338   H     0.29889   0.42078   0.02550   0.00000  Uiso   1.00
H339   H     0.26762   0.42364   0.07625   0.00000  Uiso   1.00
H340   H     0.32109   0.44075   0.07733   0.00000  Uiso   1.00
H341   H     0.04667   0.50614   0.07053   0.00000  Uiso   1.00
H342   H     0.01906   0.58861   0.05571   0.00000  Uiso   1.00
H343   H     0.07376   0.60045   0.05195   0.00000  Uiso   1.00
H344   H     0.10329   0.51327   0.11425   0.00000  Uiso   1.00
H345   H     0.05206   0.57674   0.10301   0.00000  Uiso   1.00
H346   H     0.30413   0.47206   0.46300   0.00000  Uiso   1.00
H347   H     0.31947   0.52597   0.40603   0.00000  Uiso   1.00
H348   H     0.29852   0.55659   0.45398   0.00000  Uiso   1.00
H349   H     0.26695   0.54474   0.40592   0.00000  Uiso   1.00
H350   H     0.19489   0.38498   0.34576   0.00000  Uiso   1.00
H351   H     0.26349   0.35672   0.34589   0.00000  Uiso   1.00
H352   H     0.26799   0.41204   0.32204   0.00000  Uiso   1.00
H353   H     0.26726   0.36363   0.28535   0.00000  Uiso   1.00
H354   H     0.09341   0.62044   0.18429   0.00000  Uiso   1.00
H355   H     0.10252   0.52115   0.38793   0.00000  Uiso   1.00
H356   H     0.13521   0.65449   0.12249   0.00000  Uiso   1.00
H357   H     0.13011   0.59529   0.11700   0.00000  Uiso   1.00
H358   H     0.17725   0.61794   0.13955   0.00000  Uiso   1.00
H359   H     0.13798   0.38800   0.15533   0.00000  Uiso   1.00
H360   H     0.07034   0.35583   0.15361   0.00000  Uiso   1.00
H361   H     0.06391   0.41055   0.17766   0.00000  Uiso   1.00
H362   H     0.06548   0.36176   0.21421   0.00000  Uiso   1.00
H363   H     0.24104   0.62051   0.31405   0.00000  Uiso   1.00
H364   H     0.20280   0.65047   0.37871   0.00000  Uiso   1.00
H365   H     0.20405   0.59045   0.38081   0.00000  Uiso   1.00
H366   H     0.23304   0.48895   0.11202   0.00000  Uiso   1.00
H367   H     0.15811   0.61820   0.36094   0.00000  Uiso   1.00
H368   H     0.03700   0.42737   0.25167   0.00000  Uiso   1.00
H369   H     0.29606   0.57329   0.25109   0.00000  Uiso   1.00
H370   H     0.29615   0.42748   0.24674   0.00000  Uiso   1.00
H371   H     0.03745   0.57327   0.25115   0.00000  Uiso   1.00
H372   H     0.03118   0.53268   0.47062   0.00000  Uiso   1.00
N373   N     0.16667   0.61907   0.25000   0.00000  Uiso   1.00
N374   N     0.20929   0.61776   0.31587   0.00000  Uiso   1.00
N375   N     0.16667   0.38093   0.25000   0.00000  Uiso   1.00
N376   N     0.05837   0.54156   0.45468   0.00000  Uiso   1.00
N377   N     0.28116   0.48612   0.04533   0.00000  Uiso   1.00
N378   N     0.05623   0.53139   0.04889   0.00000  Uiso   1.00
N379   N     0.27976   0.48887   0.44848   0.00000  Uiso   1.00
N380   N     0.20984   0.38215   0.31514   0.00000  Uiso   1.00
N381   N     0.12522   0.61832   0.18329   0.00000  Uiso   1.00
N382   N     0.12275   0.38272   0.18549   0.00000  Uiso   1.00
O383   O     0.10559   0.53821   0.24999   0.00000  Uiso   1.00
O384   O     0.22774   0.46179   0.25001   0.00000  Uiso   1.00
O385   O     0.22774   0.53821   0.25001   0.00000  Uiso   1.00
O386   O     0.10559   0.46179   0.24999   0.00000  Uiso   1.00
O387   O     0.16666   0.53823   0.18393   0.00000  Uiso   1.00
O388   O     0.16667   0.46177   0.31607   0.00000  Uiso   1.00
O389   O     0.16667   0.53823   0.31607   0.00000  Uiso   1.00
O390   O     0.16666   0.46177   0.18393   0.00000  Uiso   1.00
Zn391  Zn    0.16667   0.55104   0.25000   0.00000  Uiso   1.00
Zn392  Zn    0.16667   0.44896   0.25000   0.00000  Uiso   1.00
C393   C     0.41999   0.50003   0.25036   0.00000  Uiso   1.00
C394   C     0.37579   0.50022   0.25075   0.00000  Uiso   1.00
C395   C     0.52178   0.35745   0.28172   0.00000  Uiso   1.00
C396   C     0.47912   0.64272   0.21754   0.00000  Uiso   1.00
C397   C     0.47803   0.35770   0.21844   0.00000  Uiso   1.00
C398   C     0.52092   0.64245   0.28245   0.00000  Uiso   1.00
C399   C     0.50098   0.50004   0.16363   0.00000  Uiso   1.00
C400   C     0.49898   0.49990   0.33637   0.00000  Uiso   1.00
C401   C     0.53526   0.49008   0.40588   0.00000  Uiso   1.00
C402   C     0.46435   0.50825   0.09416   0.00000  Uiso   1.00
C403   C     0.49884   0.49998   0.38398   0.00000  Uiso   1.00
C404   C     0.58001   0.50007   0.24971   0.00000  Uiso   1.00
C405   C     0.50122   0.50019   0.11599   0.00000  Uiso   1.00
C406   C     0.46353   0.51349   0.40690   0.00000  Uiso   1.00
C407   C     0.53830   0.49427   0.09297   0.00000  Uiso   1.00
C408   C     0.46380   0.51551   0.45369   0.00000  Uiso   1.00
C409   C     0.53890   0.49566   0.04611   0.00000  Uiso   1.00
C410   C     0.50087   0.50502   0.47654   0.00000  Uiso   1.00
C411   C     0.50126   0.50423   0.02336   0.00000  Uiso   1.00
C412   C     0.53751   0.49512   0.45227   0.00000  Uiso   1.00
C413   C     0.46386   0.51155   0.04757   0.00000  Uiso   1.00
C414   C     0.42776   0.52717   0.47785   0.00000  Uiso   1.00
C415   C     0.42721   0.52330   0.02492   0.00000  Uiso   1.00
C416   C     0.57636   0.49020   0.02183   0.00000  Uiso   1.00
C417   C     0.39241   0.58841   0.44105   0.00000  Uiso   1.00
C418   C     0.62600   0.44041   0.05656   0.00000  Uiso   1.00
C419   C     0.38353   0.57662   0.06567   0.00000  Uiso   1.00
C420   C     0.62509   0.53121   0.42769   0.00000  Uiso   1.00
C421   C     0.58775   0.37816   0.31693   0.00000  Uiso   1.00
C422   C     0.47640   0.62200   0.13851   0.00000  Uiso   1.00
C423   C     0.41169   0.37712   0.18289   0.00000  Uiso   1.00
C424   C     0.52583   0.61965   0.36123   0.00000  Uiso   1.00
C425   C     0.57570   0.49088   0.47436   0.00000  Uiso   1.00
C426   C     0.35446   0.45934   0.25055   0.00000  Uiso   1.00
C427   C     0.64546   0.54131   0.25057   0.00000  Uiso   1.00
C428   C     0.64543   0.45939   0.24869   0.00000  Uiso   1.00
C429   C     0.35465   0.54129   0.25080   0.00000  Uiso   1.00
C430   C     0.62421   0.50028   0.24949   0.00000  Uiso   1.00
H431   H     0.56200   0.47980   0.38615   0.00000  Uiso   1.00
H432   H     0.39165   0.61054   0.47105   0.00000  Uiso   1.00
H433   H     0.36495   0.59585   0.42010   0.00000  Uiso   1.00
H434   H     0.42058   0.59609   0.42072   0.00000  Uiso   1.00
H435   H     0.63859   0.50469   0.03184   0.00000  Uiso   1.00
H436   H     0.63223   0.42078   0.02550   0.00000  Uiso   1.00
H437   H     0.60095   0.42364   0.07625   0.00000  Uiso   1.00
H438   H     0.65442   0.44075   0.07733   0.00000  Uiso   1.00
H439   H     0.38001   0.50614   0.07053   0.00000  Uiso   1.00
H440   H     0.35239   0.58861   0.05571   0.00000  Uiso   1.00
H441   H     0.40709   0.60045   0.05195   0.00000  Uiso   1.00
H442   H     0.43663   0.51327   0.11425   0.00000  Uiso   1.00
H443   H     0.38539   0.57674   0.10301   0.00000  Uiso   1.00
H444   H     0.63746   0.47206   0.46300   0.00000  Uiso   1.00
H445   H     0.65280   0.52597   0.40603   0.00000  Uiso   1.00
H446   H     0.63186   0.55659   0.45398   0.00000  Uiso   1.00
H447   H     0.60029   0.54474   0.40592   0.00000  Uiso   1.00
H448   H     0.52822   0.38498   0.34576   0.00000  Uiso   1.00
H449   H     0.59682   0.35672   0.34589   0.00000  Uiso   1.00
H450   H     0.60132   0.41204   0.32204   0.00000  Uiso   1.00
H451   H     0.60059   0.36363   0.28535   0.00000  Uiso   1.00
H452   H     0.42675   0.62044   0.18429   0.00000  Uiso   1.00
H453   H     0.43586   0.52115   0.38793   0.00000  Uiso   1.00
H454   H     0.46854   0.65449   0.12249   0.00000  Uiso   1.00
H455   H     0.46344   0.59529   0.11700   0.00000  Uiso   1.00
H456   H     0.51058   0.61794   0.13955   0.00000  Uiso   1.00
H457   H     0.47131   0.38800   0.15533   0.00000  Uiso   1.00
H458   H     0.40367   0.35583   0.15361   0.00000  Uiso   1.00
H459   H     0.39724   0.41055   0.17766   0.00000  Uiso   1.00
H460   H     0.39882   0.36176   0.21421   0.00000  Uiso   1.00
H461   H     0.57437   0.62051   0.31405   0.00000  Uiso   1.00
H462   H     0.53613   0.65047   0.37871   0.00000  Uiso   1.00
H463   H     0.53738   0.59045   0.38081   0.00000  Uiso   1.00
H464   H     0.56637   0.48895   0.11202   0.00000  Uiso   1.00
H465   H     0.49144   0.61820   0.36094   0.00000  Uiso   1.00
H466   H     0.37033   0.42737   0.25167   0.00000  Uiso   1.00
H467   H     0.62940   0.57329   0.25109   0.00000  Uiso   1.00
H468   H     0.62948   0.42748   0.24674   0.00000  Uiso   1.00
H469   H     0.37079   0.57327   0.25115   0.00000  Uiso   1.00
H470   H     0.36452   0.53268   0.47062   0.00000  Uiso   1.00
N471   N     0.50000   0.61907   0.25000   0.00000  Uiso   1.00
N472   N     0.54262   0.61776   0.31587   0.00000  Uiso   1.00
N473   N     0.50000   0.38093   0.25000   0.00000  Uiso   1.00
N474   N     0.39170   0.54156   0.45468   0.00000  Uiso   1.00
N475   N     0.61450   0.48612   0.04533   0.00000  Uiso   1.00
N476   N     0.38956   0.53139   0.04889   0.00000  Uiso   1.00
N477   N     0.61310   0.48887   0.44848   0.00000  Uiso   1.00
N478   N     0.54317   0.38215   0.31514   0.00000  Uiso   1.00
N479   N     0.45855   0.61832   0.18329   0.00000  Uiso   1.00
N480   N     0.45609   0.38272   0.18549   0.00000  Uiso   1.00
O481   O     0.43892   0.53821   0.24999   0.00000  Uiso   1.00
O482   O     0.56108   0.46179   0.25001   0.00000  Uiso   1.00
O483   O     0.56108   0.53821   0.25001   0.00000  Uiso   1.00
O484   O     0.43892   0.46179   0.24999   0.00000  Uiso   1.00
O485   O     0.49999   0.53823   0.18393   0.00000  Uiso   1.00
O486   O     0.50001   0.46177   0.31607   0.00000  Uiso   1.00
O487   O     0.50001   0.53823   0.31607   0.00000  Uiso   1.00
O488   O     0.49999   0.46177   0.18393   0.00000  Uiso   1.00
Zn489  Zn    0.50000   0.55104   0.25000   0.00000  Uiso   1.00
Zn490  Zn    0.50000   0.44896   0.25000   0.00000  Uiso   1.00
C491   C     0.75333   0.50003   0.25036   0.00000  Uiso   1.00
C492   C     0.70912   0.50022   0.25075   0.00000  Uiso   1.00
C493   C     0.85511   0.35745   0.28172   0.00000  Uiso   1.00
C494   C     0.81245   0.64272   0.21754   0.00000  Uiso   1.00
C495   C     0.81137   0.35770   0.21844   0.00000  Uiso   1.00
C496   C     0.85426   0.64245   0.28245   0.00000  Uiso   1.00
C497   C     0.83431   0.50004   0.16363   0.00000  Uiso   1.00
C498   C     0.83231   0.49990   0.33637   0.00000  Uiso   1.00
C499   C     0.86860   0.49008   0.40588   0.00000  Uiso   1.00
C500   C     0.79768   0.50825   0.09416   0.00000  Uiso   1.00
C501   C     0.83218   0.49998   0.38398   0.00000  Uiso   1.00
C502   C     0.91334   0.50007   0.24971   0.00000  Uiso   1.00
C503   C     0.83455   0.50019   0.11599   0.00000  Uiso   1.00
C504   C     0.79686   0.51349   0.40690   0.00000  Uiso   1.00
C505   C     0.87164   0.49427   0.09297   0.00000  Uiso   1.00
C506   C     0.79713   0.51551   0.45369   0.00000  Uiso   1.00
C507   C     0.87224   0.49566   0.04611   0.00000  Uiso   1.00
C508   C     0.83420   0.50502   0.47654   0.00000  Uiso   1.00
C509   C     0.83459   0.50423   0.02336   0.00000  Uiso   1.00
C510   C     0.87085   0.49512   0.45227   0.00000  Uiso   1.00
C511   C     0.79719   0.51155   0.04757   0.00000  Uiso   1.00
C512   C     0.76109   0.52717   0.47785   0.00000  Uiso   1.00
C513   C     0.76055   0.52330   0.02492   0.00000  Uiso   1.00
C514   C     0.90969   0.49020   0.02183   0.00000  Uiso   1.00
C515   C     0.72575   0.58841   0.44105   0.00000  Uiso   1.00
C516   C     0.95933   0.44041   0.05656   0.00000  Uiso   1.00
C517   C     0.71686   0.57662   0.06567   0.00000  Uiso   1.00
C518   C     0.95842   0.53121   0.42769   0.00000  Uiso   1.00
C519   C     0.92108   0.37816   0.31693   0.00000  Uiso   1.00
C520   C     0.80974   0.62200   0.13851   0.00000  Uiso   1.00
C521   C     0.74502   0.37712   0.18289   0.00000  Uiso   1.00
C522   C     0.85917   0.61965   0.36123   0.00000  Uiso   1.00
C523   C     0.90903   0.49088   0.47436   0.00000  Uiso   1.00
C524   C     0.68780   0.45934   0.25055   0.00000  Uiso   1.00
C525   C     0.97879   0.54131   0.25057   0.00000  Uiso   1.00
C526   C     0.97877   0.45939   0.24869   0.00000  Uiso   1.00
C527   C     0.68798   0.54129   0.25080   0.00000  Uiso   1.00
C528   C     0.95754   0.50028   0.24949   0.00000  Uiso   1.00
H529   H     0.89534   0.47980   0.38615   0.00000  Uiso   1.00
H530   H     0.72499   0.61054   0.47105   0.00000  Uiso   1.00
H531   H     0.69828   0.59585   0.42010   0.00000  Uiso   1.00
H532   H     0.75391   0.59609   0.42072   0.00000  Uiso   1.00
H533   H     0.97192   0.50469   0.03184   0.00000  Uiso   1.00
H534   H     0.96556   0.42078   0.02550   0.00000  Uiso   1.00
H535   H     0.93428   0.42364   0.07625   0.00000  Uiso   1.00
H536   H     0.98776   0.44075   0.07733   0.00000  Uiso   1.00
H537   H     0.71334   0.50614   0.07053   0.00000  Uiso   1.00
H538   H     0.68572   0.58861   0.05571   0.00000  Uiso   1.00
H539   H     0.74042   0.60045   0.05195   0.00000  Uiso   1.00
H540   H     0.76996   0.51327   0.11425   0.00000  Uiso   1.00
H541   H     0.71872   0.57674   0.10301   0.00000  Uiso   1.00
H542   H     0.97080   0.47206   0.46300   0.00000  Uiso   1.00
H543   H     0.98613   0.52597   0.40603   0.00000  Uiso   1.00
H544   H     0.96519   0.55659   0.45398   0.00000  Uiso   1.00
H545   H     0.93362   0.54474   0.40592   0.00000  Uiso   1.00
H546   H     0.86155   0.38498   0.34576   0.00000  Uiso   1.00
H547   H     0.93015   0.35672   0.34589   0.00000  Uiso   1.00
H548   H     0.93466   0.41204   0.32204   0.00000  Uiso   1.00
H549   H     0.93393   0.36363   0.28535   0.00000  Uiso   1.00
H550   H     0.76008   0.62044   0.18429   0.00000  Uiso   1.00
H551   H     0.76919   0.52115   0.38793   0.00000  Uiso   1.00
H552   H     0.80188   0.65449   0.12249   0.00000  Uiso   1.00
H553   H     0.79677   0.59529   0.11700   0.00000  Uiso   1.00
H554   H     0.84391   0.61794   0.13955   0.00000  Uiso   1.00
H555   H     0.80465   0.38800   0.15533   0.00000  Uiso   1.00
H556   H     0.73700   0.35583   0.15361   0.00000  Uiso   1.00
H557   H     0.73058   0.41055   0.17766   0.00000  Uiso   1.00
H558   H     0.73215   0.36176   0.21421   0.00000  Uiso   1.00
H559   H     0.90770   0.62051   0.31405   0.00000  Uiso   1.00
H560   H     0.86946   0.65047   0.37871   0.00000  Uiso   1.00
H561   H     0.87071   0.59045   0.38081   0.00000  Uiso   1.00
H562   H     0.89970   0.48895   0.11202   0.00000  Uiso   1.00
H563   H     0.82477   0.61820   0.36094   0.00000  Uiso   1.00
H564   H     0.70367   0.42737   0.25167   0.00000  Uiso   1.00
H565   H     0.96273   0.57329   0.25109   0.00000  Uiso   1.00
H566   H     0.96281   0.42748   0.24674   0.00000  Uiso   1.00
H567   H     0.70412   0.57327   0.25115   0.00000  Uiso   1.00
H568   H     0.69785   0.53268   0.47062   0.00000  Uiso   1.00
N569   N     0.83333   0.61907   0.25000   0.00000  Uiso   1.00
N570   N     0.87595   0.61776   0.31587   0.00000  Uiso   1.00
N571   N     0.83333   0.38093   0.25000   0.00000  Uiso   1.00
N572   N     0.72503   0.54156   0.45468   0.00000  Uiso   1.00
N573   N     0.94783   0.48612   0.04533   0.00000  Uiso   1.00
N574   N     0.72289   0.53139   0.04889   0.00000  Uiso   1.00
N575   N     0.94643   0.48887   0.44848   0.00000  Uiso   1.00
N576   N     0.87651   0.38215   0.31514   0.00000  Uiso   1.00
N577   N     0.79188   0.61832   0.18329   0.00000  Uiso   1.00
N578   N     0.78942   0.38272   0.18549   0.00000  Uiso   1.00
O579   O     0.77226   0.53821   0.24999   0.00000  Uiso   1.00
O580   O     0.89441   0.46179   0.25001   0.00000  Uiso   1.00
O581   O     0.89441   0.53821   0.25001   0.00000  Uiso   1.00
O582   O     0.77226   0.46179   0.24999   0.00000  Uiso   1.00
O583   O     0.83333   0.53823   0.18393   0.00000  Uiso   1.00
O584   O     0.83334   0.46177   0.31607   0.00000  Uiso   1.00
O585   O     0.83334   0.53823   0.31607   0.00000  Uiso   1.00
O586   O     0.83333   0.46177   0.18393   0.00000  Uiso   1.00
Zn587  Zn    0.83333   0.55104   0.25000   0.00000  Uiso   1.00
Zn588  Zn    0.83333   0.44896   0.25000   0.00000  Uiso   1.00
C589   C     0.08666   0.83336   0.25036   0.00000  Uiso   1.00
C590   C     0.04246   0.83356   0.25075   0.00000  Uiso   1.00
C591   C     0.18845   0.69078   0.28172   0.00000  Uiso   1.00
C592   C     0.14579   0.97605   0.21754   0.00000  Uiso   1.00
C593   C     0.14470   0.69104   0.21844   0.00000  Uiso   1.00
C594   C     0.18759   0.97579   0.28245   0.00000  Uiso   1.00
C595   C     0.16764   0.83337   0.16363   0.00000  Uiso   1.00
C596   C     0.16564   0.83324   0.33637   0.00000  Uiso   1.00
C597   C     0.20193   0.82341   0.40588   0.00000  Uiso   1.00
C598   C     0.13102   0.84159   0.09416   0.00000  Uiso   1.00
C599   C     0.16551   0.83331   0.38398   0.00000  Uiso   1.00
C600   C     0.24667   0.83340   0.24971   0.00000  Uiso   1.00
C601   C     0.16788   0.83352   0.11599   0.00000  Uiso   1.00
C602   C     0.13019   0.84683   0.40690   0.00000  Uiso   1.00
C603   C     0.20497   0.82760   0.09297   0.00000  Uiso   1.00
C604   C     0.13046   0.84884   0.45369   0.00000  Uiso   1.00
C605   C     0.20557   0.82900   0.04611   0.00000  Uiso   1.00
C606   C     0.16753   0.83835   0.47654   0.00000  Uiso   1.00
C607   C     0.16792   0.83757   0.02336   0.00000  Uiso   1.00
C608   C     0.20418   0.82845   0.45227   0.00000  Uiso   1.00
C609   C     0.13053   0.84489   0.04757   0.00000  Uiso   1.00
C610   C     0.09443   0.86050   0.47785   0.00000  Uiso   1.00
C611   C     0.09388   0.85664   0.02492   0.00000  Uiso   1.00
C612   C     0.24303   0.82353   0.02183   0.00000  Uiso   1.00
C613   C     0.05908   0.92174   0.44105   0.00000  Uiso   1.00
C614   C     0.29267   0.77374   0.05656   0.00000  Uiso   1.00
C615   C     0.05020   0.90996   0.06567   0.00000  Uiso   1.00
C616   C     0.29175   0.86454   0.42769   0.00000  Uiso   1.00
C617   C     0.25442   0.71149   0.31693   0.00000  Uiso   1.00
C618   C     0.14307   0.95533   0.13851   0.00000  Uiso   1.00
C619   C     0.07835   0.71046   0.18289   0.00000  Uiso   1.00
C620   C     0.19250   0.95298   0.36123   0.00000  Uiso   1.00
C621   C     0.24236   0.82422   0.47436   0.00000  Uiso   1.00
C622   C     0.02113   0.79267   0.25055   0.00000  Uiso   1.00
C623   C     0.31212   0.87464   0.25057   0.00000  Uiso   1.00
C624   C     0.31210   0.79272   0.24869   0.00000  Uiso   1.00
C625   C     0.02131   0.87462   0.25080   0.00000  Uiso   1.00
C626   C     0.29087   0.83362   0.24949   0.00000  Uiso   1.00
H627   H     0.22867   0.81313   0.38615   0.00000  Uiso   1.00
H628   H     0.05832   0.94388   0.47105   0.00000  Uiso   1.00
H629   H     0.03162   0.92918   0.42010   0.00000  Uiso   1.00
H630   H     0.08725   0.92942   0.42072   0.00000  Uiso   1.00
H631   H     0.30525   0.83802   0.03184   0.00000  Uiso   1.00
H632   H     0.29889   0.75412   0.02550   0.00000  Uiso   1.00
H633   H     0.26762   0.75697   0.07625   0.00000  Uiso   1.00
H634   H     0.32109   0.77408   0.07733   0.00000  Uiso   1.00
H635   H     0.04667   0.83947   0.07053   0.00000  Uiso   1.00
H636   H     0.01906   0.92194   0.05571   0.00000  Uiso   1.00
H637   H     0.07376   0.93378   0.05195   0.00000  Uiso   1.00
H638   H     0.10329   0.84660   0.11425   0.00000  Uiso   1.00
H639   H     0.05206   0.91007   0.10301   0.00000  Uiso   1.00
H640   H     0.30413   0.80539   0.46300   0.00000  Uiso   1.00
H641   H     0.31947   0.85930   0.40603   0.00000  Uiso   1.00
H642   H     0.29852   0.88993   0.45398   0.00000  Uiso   1.00
H643   H     0.26695   0.87807   0.40592   0.00000  Uiso   1.00
H644   H     0.19489   0.71832   0.34576   0.00000  Uiso   1.00
H645   H     0.26349   0.69005   0.34589   0.00000  Uiso   1.00
H646   H     0.26799   0.74537   0.32204   0.00000  Uiso   1.00
H647   H     0.26726   0.69697   0.28535   0.00000  Uiso   1.00
H648   H     0.09341   0.95378   0.18429   0.00000  Uiso   1.00
H649   H     0.10252   0.85448   0.38793   0.00000  Uiso   1.00
H650   H     0.13521   0.98783   0.12249   0.00000  Uiso   1.00
H651   H     0.13011   0.92862   0.11700   0.00000  Uiso   1.00
H652   H     0.17725   0.95127   0.13955   0.00000  Uiso   1.00
H653   H     0.13798   0.72133   0.15533   0.00000  Uiso   1.00
H654   H     0.07034   0.68916   0.15361   0.00000  Uiso   1.00
H655   H     0.06391   0.74389   0.17766   0.00000  Uiso   1.00
H656   H     0.06548   0.69509   0.21421   0.00000  Uiso   1.00
H657   H     0.24104   0.95384   0.31405   0.00000  Uiso   1.00
H658   H     0.20280   0.98380   0.37871   0.00000  Uiso   1.00
H659   H     0.20405   0.92379   0.38081   0.00000  Uiso   1.00
H660   H     0.23304   0.82228   0.11202   0.00000  Uiso   1.00
H661   H     0.15811   0.95153   0.36094   0.00000  Uiso   1.00
H662   H     0.03700   0.76070   0.25167   0.00000  Uiso   1.00
H663   H     0.29606   0.90663   0.25109   0.00000  Uiso   1.00
H664   H     0.29615   0.76081   0.24674   0.00000  Uiso   1.00
H665   H     0.03745   0.90661   0.25115   0.00000  Uiso   1.00
H666   H     0.03118   0.86601   0.47062   0.00000  Uiso   1.00
N667   N     0.16667   0.95240   0.25000   0.00000  Uiso   1.00
N668   N     0.20929   0.95110   0.31587   0.00000  Uiso   1.00
N669   N     0.16667   0.71427   0.25000   0.00000  Uiso   1.00
N670   N     0.05837   0.87489   0.45468   0.00000  Uiso   1.00
N671   N     0.28116   0.81946   0.04533   0.00000  Uiso   1.00
N672   N     0.05623   0.86472   0.04889   0.00000  Uiso   1.00
N673   N     0.27976   0.82221   0.44848   0.00000  Uiso   1.00
N674   N     0.20984   0.71548   0.31514   0.00000  Uiso   1.00
N675   N     0.12522   0.95166   0.18329   0.00000  Uiso   1.00
N676   N     0.12275   0.71606   0.18549   0.00000  Uiso   1.00
O677   O     0.10559   0.87154   0.24999   0.00000  Uiso   1.00
O678   O     0.22774   0.79513   0.25001   0.00000  Uiso   1.00
O679   O     0.22774   0.87154   0.25001   0.00000  Uiso   1.00
O680   O     0.10559   0.79513   0.24999   0.00000  Uiso   1.00
O681   O     0.16666   0.87156   0.18393   0.00000  Uiso   1.00
O682   O     0.16667   0.79511   0.31607   0.00000  Uiso   1.00
O683   O     0.16667   0.87156   0.31607   0.00000  Uiso   1.00
O684   O     0.16666   0.79511   0.18393   0.00000  Uiso   1.00
Zn685  Zn    0.16667   0.88437   0.25000   0.00000  Uiso   1.00
Zn686  Zn    0.16667   0.78229   0.25000   0.00000  Uiso   1.00
C687   C     0.41999   0.83336   0.25036   0.00000  Uiso   1.00
C688   C     0.37579   0.83356   0.25075   0.00000  Uiso   1.00
C689   C     0.52178   0.69078   0.28172   0.00000  Uiso   1.00
C690   C     0.47912   0.97605   0.21754   0.00000  Uiso   1.00
C691   C     0.47803   0.69104   0.21844   0.00000  Uiso   1.00
C692   C     0.52092   0.97579   0.28245   0.00000  Uiso   1.00
C693   C     0.50098   0.83337   0.16363   0.00000  Uiso   1.00
C694   C     0.49898   0.83324   0.33637   0.00000  Uiso   1.00
C695   C     0.53526   0.82341   0.40588   0.00000  Uiso   1.00
C696   C     0.46435   0.84159   0.09416   0.00000  Uiso   1.00
C697   C     0.49884   0.83331   0.38398   0.00000  Uiso   1.00
C698   C     0.58001   0.83340   0.24971   0.00000  Uiso   1.00
C699   C     0.50122   0.83352   0.11599   0.00000  Uiso   1.00
C700   C     0.46353   0.84683   0.40690   0.00000  Uiso   1.00
C701   C     0.53830   0.82760   0.09297   0.00000  Uiso   1.00
C702   C     0.46380   0.84884   0.45369   0.00000  Uiso   1.00
C703   C     0.53890   0.82900   0.04611   0.00000  Uiso   1.00
C704   C     0.50087   0.83835   0.47654   0.00000  Uiso   1.00
C705   C     0.50126   0.83757   0.02336   0.00000  Uiso   1.00
C706   C     0.53751   0.82845   0.45227   0.00000  Uiso   1.00
C707   C     0.46386   0.84489   0.04757   0.00000  Uiso   1.00
C708   C     0.42776   0.86050   0.47785   0.00000  Uiso   1.00
C709   C     0.42721   0.85664   0.02492   0.00000  Uiso   1.00
C710   C     0.57636   0.82353   0.02183   0.00000  Uiso   1.00
C711   C     0.39241   0.92174   0.44105   0.00000  Uiso   1.00
C712   C     0.62600   0.77374   0.05656   0.00000  Uiso   1.00
C713   C     0.38353   0.90996   0.06567   0.00000  Uiso   1.00
C714   C     0.62509   0.86454   0.42769   0.00000  Uiso   1.00
C715   C     0.58775   0.71149   0.31693   0.00000  Uiso   1.00
C716   C     0.47640   0.95533   0.13851   0.00000  Uiso   1.00
C717   C     0.41169   0.71046   0.18289   0.00000  Uiso   1.00
C718   C     0.52583   0.95298   0.36123   0.00000  Uiso   1.00
C719   C     0.57570   0.82422   0.47436   0.00000  Uiso   1.00
C720   C     0.35446   0.79267   0.25055   0.00000  Uiso   1.00
C721   C     0.64546   0.87464   0.25057   0.00000  Uiso   1.00
C722   C     0.64543   0.79272   0.24869   0.00000  Uiso   1.00
C723   C     0.35465   0.87462   0.25080   0.00000  Uiso   1.00
C724   C     0.62421   0.83362   0.24949   0.00000  Uiso   1.00
H725   H     0.56200   0.81313   0.38615   0.00000  Uiso   1.00
H726   H     0.39165   0.94388   0.47105   0.00000  Uiso   1.00
H727   H     0.36495   0.92918   0.42010   0.00000  Uiso   1.00
H728   H     0.42058   0.92942   0.42072   0.00000  Uiso   1.00
H729   H     0.63859   0.83802   0.03184   0.00000  Uiso   1.00
H730   H     0.63223   0.75412   0.02550   0.00000  Uiso   1.00
H731   H     0.60095   0.75697   0.07625   0.00000  Uiso   1.00
H732   H     0.65442   0.77408   0.07733   0.00000  Uiso   1.00
H733   H     0.38001   0.83947   0.07053   0.00000  Uiso   1.00
H734   H     0.35239   0.92194   0.05571   0.00000  Uiso   1.00
H735   H     0.40709   0.93378   0.05195   0.00000  Uiso   1.00
H736   H     0.43663   0.84660   0.11425   0.00000  Uiso   1.00
H737   H     0.38539   0.91007   0.10301   0.00000  Uiso   1.00
H738   H     0.63746   0.80539   0.46300   0.00000  Uiso   1.00
H739   H     0.65280   0.85930   0.40603   0.00000  Uiso   1.00
H740   H     0.63186   0.88993   0.45398   0.00000  Uiso   1.00
H741   H     0.60029   0.87807   0.40592   0.00000  Uiso   1.00
H742   H     0.52822   0.71832   0.34576   0.00000  Uiso   1.00
H743   H     0.59682   0.69005   0.34589   0.00000  Uiso   1.00
H744   H     0.60132   0.74537   0.32204   0.00000  Uiso   1.00
H745   H     0.60059   0.69697   0.28535   0.00000  Uiso   1.00
H746   H     0.42675   0.95378   0.18429   0.00000  Uiso   1.00
H747   H     0.43586   0.85448   0.38793   0.00000  Uiso   1.00
H748   H     0.46854   0.98783   0.12249   0.00000  Uiso   1.00
H749   H     0.46344   0.92862   0.11700   0.00000  Uiso   1.00
H750   H     0.51058   0.95127   0.13955   0.00000  Uiso   1.00
H751   H     0.47131   0.72133   0.15533   0.00000  Uiso   1.00
H752   H     0.40367   0.68916   0.15361   0.00000  Uiso   1.00
H753   H     0.39724   0.74389   0.17766   0.00000  Uiso   1.00
H754   H     0.39882   0.69509   0.21421   0.00000  Uiso   1.00
H755   H     0.57437   0.95384   0.31405   0.00000  Uiso   1.00
H756   H     0.53613   0.98380   0.37871   0.00000  Uiso   1.00
H757   H     0.53738   0.92379   0.38081   0.00000  Uiso   1.00
H758   H     0.56637   0.82228   0.11202   0.00000  Uiso   1.00
H759   H     0.49144   0.95153   0.36094   0.00000  Uiso   1.00
H760   H     0.37033   0.76070   0.25167   0.00000  Uiso   1.00
H761   H     0.62940   0.90663   0.25109   0.00000  Uiso   1.00
H762   H     0.62948   0.76081   0.24674   0.00000  Uiso   1.00
H763   H     0.37079   0.90661   0.25115   0.00000  Uiso   1.00
H764   H     0.36452   0.86601   0.47062   0.00000  Uiso   1.00
N765   N     0.50000   0.95240   0.25000   0.00000  Uiso   1.00
N766   N     0.54262   0.95110   0.31587   0.00000  Uiso   1.00
N767   N     0.50000   0.71427   0.25000   0.00000  Uiso   1.00
N768   N     0.39170   0.87489   0.45468   0.00000  Uiso   1.00
N769   N     0.61450   0.81946   0.04533   0.00000  Uiso   1.00
N770   N     0.38956   0.86472   0.04889   0.00000  Uiso   1.00
N771   N     0.61310   0.82221   0.44848   0.00000  Uiso   1.00
N772   N     0.54317   0.71548   0.31514   0.00000  Uiso   1.00
N773   N     0.45855   0.95166   0.18329   0.00000  Uiso   1.00
N774   N     0.45609   0.71606   0.18549   0.00000  Uiso   1.00
O775   O     0.43892   0.87154   0.24999   0.00000  Uiso   1.00
O776   O     0.56108   0.79513   0.25001   0.00000  Uiso   1.00
O777   O     0.56108   0.87154   0.25001   0.00000  Uiso   1.00
O778   O     0.43892   0.79513   0.24999   0.00000  Uiso   1.00
O779   O     0.49999   0.87156   0.18393   0.00000  Uiso   1.00
O780   O     0.50001   0.79511   0.31607   0.00000  Uiso   1.00
O781   O     0.50001   0.87156   0.31607   0.00000  Uiso   1.00
O782   O     0.49999   0.79511   0.18393   0.00000  Uiso   1.00
Zn783  Zn    0.50000   0.88437   0.25000   0.00000  Uiso   1.00
Zn784  Zn    0.50000   0.78229   0.25000   0.00000  Uiso   1.00
C785   C     0.75333   0.83336   0.25036   0.00000  Uiso   1.00
C786   C     0.70912   0.83356   0.25075   0.00000  Uiso   1.00
C787   C     0.85511   0.69078   0.28172   0.00000  Uiso   1.00
C788   C     0.81245   0.97605   0.21754   0.00000  Uiso   1.00
C789   C     0.81137   0.69104   0.21844   0.00000  Uiso   1.00
C790   C     0.85426   0.97579   0.28245   0.00000  Uiso   1.00
C791   C     0.83431   0.83337   0.16363   0.00000  Uiso   1.00
C792   C     0.83231   0.83324   0.33637   0.00000  Uiso   1.00
C793   C     0.86860   0.82341   0.40588   0.00000  Uiso   1.00
C794   C     0.79768   0.84159   0.09416   0.00000  Uiso   1.00
C795   C     0.83218   0.83331   0.38398   0.00000  Uiso   1.00
C796   C     0.91334   0.83340   0.24971   0.00000  Uiso   1.00
C797   C     0.83455   0.83352   0.11599   0.00000  Uiso   1.00
C798   C     0.79686   0.84683   0.40690   0.00000  Uiso   1.00
C799   C     0.87164   0.82760   0.09297   0.00000  Uiso   1.00
C800   C     0.79713   0.84884   0.45369   0.00000  Uiso   1.00
C801   C     0.87224   0.82900   0.04611   0.00000  Uiso   1.00
C802   C     0.83420   0.83835   0.47654   0.00000  Uiso   1.00
C803   C     0.83459   0.83757   0.02336   0.00000  Uiso   1.00
C804   C     0.87085   0.82845   0.45227   0.00000  Uiso   1.00
C805   C     0.79719   0.84489   0.04757   0.00000  Uiso   1.00
C806   C     0.76109   0.86050   0.47785   0.00000  Uiso   1.00
C807   C     0.76055   0.85664   0.02492   0.00000  Uiso   1.00
C808   C     0.90969   0.82353   0.02183   0.00000  Uiso   1.00
C809   C     0.72575   0.92174   0.44105   0.00000  Uiso   1.00
C810   C     0.95933   0.77374   0.05656   0.00000  Uiso   1.00
C811   C     0.71686   0.90996   0.06567   0.00000  Uiso   1.00
C812   C     0.95842   0.86454   0.42769   0.00000  Uiso   1.00
C813   C     0.92108   0.71149   0.31693   0.00000  Uiso   1.00
C814   C     0.80974   0.95533   0.13851   0.00000  Uiso   1.00
C815   C     0.74502   0.71046   0.18289   0.00000  Uiso   1.00
C816   C     0.85917   0.95298   0.36123   0.00000  Uiso   1.00
C817   C     0.90903   0.82422   0.47436   0.00000  Uiso   1.00
C818   C     0.68780   0.79267   0.25055   0.00000  Uiso   1.00
C819   C     0.97879   0.87464   0.25057   0.00000  Uiso   1.00
C820   C     0.97877   0.79272   0.24869   0.00000  Uiso   1.00
C821   C     0.68798   0.87462   0.25080   0.00000  Uiso   1.00
C822   C     0.95754   0.83362   0.24949   0.00000  Uiso   1.00
H823   H     0.89534   0.81313   0.38615   0.00000  Uiso   1.00
H824   H     0.72499   0.94388   0.47105   0.00000  Uiso   1.00
H825   H     0.69828   0.92918   0.42010   0.00000  Uiso   1.00
H826   H     0.75391   0.92942   0.42072   0.00000  Uiso   1.00
H827   H     0.97192   0.83802   0.03184   0.00000  Uiso   1.00
H828   H     0.96556   0.75412   0.02550   0.00000  Uiso   1.00
H829   H     0.93428   0.75697   0.07625   0.00000  Uiso   1.00
H830   H     0.98776   0.77408   0.07733   0.00000  Uiso   1.00
H831   H     0.71334   0.83947   0.07053   0.00000  Uiso   1.00
H832   H     0.68572   0.92194   0.05571   0.00000  Uiso   1.00
H833   H     0.74042   0.93378   0.05195   0.00000  Uiso   1.00
H834   H     0.76996   0.84660   0.11425   0.00000  Uiso   1.00
H835   H     0.71872   0.91007   0.10301   0.00000  Uiso   1.00
H836   H     0.97080   0.80539   0.46300   0.00000  Uiso   1.00
H837   H     0.98613   0.85930   0.40603   0.00000  Uiso   1.00
H838   H     0.96519   0.88993   0.45398   0.00000  Uiso   1.00
H839   H     0.93362   0.87807   0.40592   0.00000  Uiso   1.00
H840   H     0.86155   0.71832   0.34576   0.00000  Uiso   1.00
H841   H     0.93015   0.69005   0.34589   0.00000  Uiso   1.00
H842   H     0.93466   0.74537   0.32204   0.00000  Uiso   1.00
H843   H     0.93393   0.69697   0.28535   0.00000  Uiso   1.00
H844   H     0.76008   0.95378   0.18429   0.00000  Uiso   1.00
H845   H     0.76919   0.85448   0.38793   0.00000  Uiso   1.00
H846   H     0.80188   0.98783   0.12249   0.00000  Uiso   1.00
H847   H     0.79677   0.92862   0.11700   0.00000  Uiso   1.00
H848   H     0.84391   0.95127   0.13955   0.00000  Uiso   1.00
H849   H     0.80465   0.72133   0.15533   0.00000  Uiso   1.00
H850   H     0.73700   0.68916   0.15361   0.00000  Uiso   1.00
H851   H     0.73058   0.74389   0.17766   0.00000  Uiso   1.00
H852   H     0.73215   0.69509   0.21421   0.00000  Uiso   1.00
H853   H     0.90770   0.95384   0.31405   0.00000  Uiso   1.00
H854   H     0.86946   0.98380   0.37871   0.00000  Uiso   1.00
H855   H     0.87071   0.92379   0.38081   0.00000  Uiso   1.00
H856   H     0.89970   0.82228   0.11202   0.00000  Uiso   1.00
H857   H     0.82477   0.95153   0.36094   0.00000  Uiso   1.00
H858   H     0.70367   0.76070   0.25167   0.00000  Uiso   1.00
H859   H     0.96273   0.90663   0.25109   0.00000  Uiso   1.00
H860   H     0.96281   0.76081   0.24674   0.00000  Uiso   1.00
H861   H     0.70412   0.90661   0.25115   0.00000  Uiso   1.00
H862   H     0.69785   0.86601   0.47062   0.00000  Uiso   1.00
N863   N     0.83333   0.95240   0.25000   0.00000  Uiso   1.00
N864   N     0.87595   0.95110   0.31587   0.00000  Uiso   1.00
N865   N     0.83333   0.71427   0.25000   0.00000  Uiso   1.00
N866   N     0.72503   0.87489   0.45468   0.00000  Uiso   1.00
N867   N     0.94783   0.81946   0.04533   0.00000  Uiso   1.00
N868   N     0.72289   0.86472   0.04889   0.00000  Uiso   1.00
N869   N     0.94643   0.82221   0.44848   0.00000  Uiso   1.00
N870   N     0.87651   0.71548   0.31514   0.00000  Uiso   1.00
N871   N     0.79188   0.95166   0.18329   0.00000  Uiso   1.00
N872   N     0.78942   0.71606   0.18549   0.00000  Uiso   1.00
O873   O     0.77226   0.87154   0.24999   0.00000  Uiso   1.00
O874   O     0.89441   0.79513   0.25001   0.00000  Uiso   1.00
O875   O     0.89441   0.87154   0.25001   0.00000  Uiso   1.00
O876   O     0.77226   0.79513   0.24999   0.00000  Uiso   1.00
O877   O     0.83333   0.87156   0.18393   0.00000  Uiso   1.00
O878   O     0.83334   0.79511   0.31607   0.00000  Uiso   1.00
O879   O     0.83334   0.87156   0.31607   0.00000  Uiso   1.00
O880   O     0.83333   0.79511   0.18393   0.00000  Uiso   1.00
Zn881  Zn    0.83333   0.88437   0.25000   0.00000  Uiso   1.00
Zn882  Zn    0.83333   0.78229   0.25000   0.00000  Uiso   1.00
C883   C     0.08666   0.16669   0.75036   0.00000  Uiso   1.00
C884   C     0.04246   0.16689   0.75075   0.00000  Uiso   1.00
C885   C     0.18845   0.02412   0.78172   0.00000  Uiso   1.00
C886   C     0.14579   0.30939   0.71754   0.00000  Uiso   1.00
C887   C     0.14470   0.02437   0.71844   0.00000  Uiso   1.00
C888   C     0.18759   0.30912   0.78245   0.00000  Uiso   1.00
C889   C     0.16764   0.16671   0.66363   0.00000  Uiso   1.00
C890   C     0.16564   0.16657   0.83637   0.00000  Uiso   1.00
C891   C     0.20193   0.15674   0.90588   0.00000  Uiso   1.00
C892   C     0.13102   0.17492   0.59416   0.00000  Uiso   1.00
C893   C     0.16551   0.16664   0.88398   0.00000  Uiso   1.00
C894   C     0.24667   0.16674   0.74971   0.00000  Uiso   1.00
C895   C     0.16788   0.16686   0.61599   0.00000  Uiso   1.00
C896   C     0.13019   0.18016   0.90690   0.00000  Uiso   1.00
C897   C     0.20497   0.16093   0.59297   0.00000  Uiso   1.00
C898   C     0.13046   0.18218   0.95369   0.00000  Uiso   1.00
C899   C     0.20557   0.16233   0.54611   0.00000  Uiso   1.00
C900   C     0.16753   0.17169   0.97654   0.00000  Uiso   1.00
C901   C     0.16792   0.17090   0.52336   0.00000  Uiso   1.00
C902   C     0.20418   0.16179   0.95227   0.00000  Uiso   1.00
C903   C     0.13053   0.17822   0.54757   0.00000  Uiso   1.00
C904   C     0.09443   0.19384   0.97785   0.00000  Uiso   1.00
C905   C     0.09388   0.18997   0.52492   0.00000  Uiso   1.00
C906   C     0.24303   0.15687   0.52183   0.00000  Uiso   1.00
C907   C     0.05908   0.25508   0.94105   0.00000  Uiso   1.00
C908   C     0.29267   0.10707   0.55656   0.00000  Uiso   1.00
C909   C     0.05020   0.24329   0.56567   0.00000  Uiso   1.00
C910   C     0.29175   0.19788   0.92769   0.00000  Uiso   1.00
C911   C     0.25442   0.04483   0.81693   0.00000  Uiso   1.00
C912   C     0.14307   0.28866   0.63851   0.00000  Uiso   1.00
C913   C     0.07835   0.04379   0.68289   0.00000  Uiso   1.00
C914   C     0.19250   0.28632   0.86123   0.00000  Uiso   1.00
C915   C     0.24236   0.15755   0.97436   0.00000  Uiso   1.00
C916   C     0.02113   0.12601   0.75055   0.00000  Uiso   1.00
C917   C     0.31212   0.20797   0.75057   0.00000  Uiso   1.00
C918   C     0.31210   0.12606   0.74869   0.00000  Uiso   1.00
C919   C     0.02131   0.20795   0.75080   0.00000  Uiso   1.00
C920   C     0.29087   0.16695   0.74949   0.00000  Uiso   1.00
H921   H     0.22867   0.14646   0.88615   0.00000  Uiso   1.00
H922   H     0.05832   0.27721   0.97105   0.00000  Uiso   1.00
H923   H     0.03162   0.26251   0.92010   0.00000  Uiso   1.00
H924   H     0.08725   0.26276   0.92072   0.00000  Uiso   1.00
H925   H     0.30525   0.17135   0.53184   0.00000  Uiso   1.00
H926   H     0.29889   0.08745   0.52550   0.00000  Uiso   1.00
H927   H     0.26762   0.09030   0.57625   0.00000  Uiso   1.00
H928   H     0.32109   0.10742   0.57733   0.00000  Uiso   1.00
H929   H     0.04667   0.17280   0.57053   0.00000  Uiso   1.00
H930   H     0.01906   0.25528   0.55571   0.00000  Uiso   1.00
H931   H     0.07376   0.26711   0.55195   0.00000  Uiso   1.00
H932   H     0.10329   0.17993   0.61425   0.00000  Uiso   1.00
H933   H     0.05206   0.24341   0.60301   0.00000  Uiso   1.00
H934   H     0.30413   0.13872   0.96300   0.00000  Uiso   1.00
H935   H     0.31947   0.19263   0.90603   0.00000  Uiso   1.00
H936   H     0.29852   0.22326   0.95398   0.00000  Uiso   1.00
H937   H     0.26695   0.21140   0.90592   0.00000  Uiso   1.00
H938   H     0.19489   0.05165   0.84576   0.00000  Uiso   1.00
H939   H     0.26349   0.02338   0.84589   0.00000  Uiso   1.00
H940   H     0.26799   0.07871   0.82204   0.00000  Uiso   1.00
H941   H     0.26726   0.03030   0.78535   0.00000  Uiso   1.00
H942   H     0.09341   0.28711   0.68429   0.00000  Uiso   1.00
H943   H     0.10252   0.18781   0.88793   0.00000  Uiso   1.00
H944   H     0.13521   0.32116   0.62249   0.00000  Uiso   1.00
H945   H     0.13011   0.26196   0.61700   0.00000  Uiso   1.00
H946   H     0.17725   0.28460   0.63955   0.00000  Uiso   1.00
H947   H     0.13798   0.05466   0.65533   0.00000  Uiso   1.00
H948   H     0.07034   0.02249   0.65361   0.00000  Uiso   1.00
H949   H     0.06391   0.07722   0.67766   0.00000  Uiso   1.00
H950   H     0.06548   0.02842   0.71421   0.00000  Uiso   1.00
H951   H     0.24104   0.28718   0.81405   0.00000  Uiso   1.00
H952   H     0.20280   0.31713   0.87871   0.00000  Uiso   1.00
H953   H     0.20405   0.25712   0.88081   0.00000  Uiso   1.00
H954   H     0.23304   0.15561   0.61202   0.00000  Uiso   1.00
H955   H     0.15811   0.28486   0.86094   0.00000  Uiso   1.00
H956   H     0.03700   0.09404   0.75167   0.00000  Uiso   1.00
H957   H     0.29606   0.23996   0.75109   0.00000  Uiso   1.00
H958   H     0.29615   0.09414   0.74674   0.00000  Uiso   1.00
H959   H     0.03745   0.23994   0.75115   0.00000  Uiso   1.00
H960   H     0.03118   0.19935   0.97062   0.00000  Uiso   1.00
N961   N     0.16667   0.28573   0.75000   0.00000  Uiso   1.00
N962   N     0.20929   0.28443   0.81587   0.00000  Uiso   1.00
N963   N     0.16667   0.04760   0.75000   0.00000  Uiso   1.00
N964   N     0.05837   0.20823   0.95468   0.00000  Uiso   1.00
N965   N     0.28116   0.15279   0.54533   0.00000  Uiso   1.00
N966   N     0.05623   0.19806   0.54889   0.00000  Uiso   1.00
N967   N     0.27976   0.15554   0.94848   0.00000  Uiso   1.00
N968   N     0.20984   0.04881   0.81514   0.00000  Uiso   1.00
N969   N     0.12522   0.28499   0.68329   0.00000  Uiso   1.00
N970   N     0.12275   0.04939   0.68549   0.00000  Uiso   1.00
O971   O     0.10559   0.20487   0.74999   0.00000  Uiso   1.00
O972   O     0.22774   0.12846   0.75001   0.00000  Uiso   1.00
O973   O     0.22774   0.20487   0.75001   0.00000  Uiso   1.00
O974   O     0.10559   0.12846   0.74999   0.00000  Uiso   1.00
O975   O     0.16666   0.20489   0.68393   0.00000  Uiso   1.00
O976   O     0.16667   0.12844   0.81607   0.00000  Uiso   1.00
O977   O     0.16667   0.20489   0.81607   0.00000  Uiso   1.00
O978   O     0.16666   0.12844   0.68393   0.00000  Uiso   1.00
Zn979  Zn    0.16667   0.21771   0.75000   0.00000  Uiso   1.00
Zn980  Zn    0.16667   0.11563   0.75000   0.00000  Uiso   1.00
C981   C     0.41999   0.16669   0.75036   0.00000  Uiso   1.00
C982   C     0.37579   0.16689   0.75075   0.00000  Uiso   1.00
C983   C     0.52178   0.02412   0.78172   0.00000  Uiso   1.00
C984   C     0.47912   0.30939   0.71754   0.00000  Uiso   1.00
C985   C     0.47803   0.02437   0.71844   0.00000  Uiso   1.00
C986   C     0.52092   0.30912   0.78245   0.00000  Uiso   1.00
C987   C     0.50098   0.16671   0.66363   0.00000  Uiso   1.00
C988   C     0.49898   0.16657   0.83637   0.00000  Uiso   1.00
C989   C     0.53526   0.15674   0.90588   0.00000  Uiso   1.00
C990   C     0.46435   0.17492   0.59416   0.00000  Uiso   1.00
C991   C     0.49884   0.16664   0.88398   0.00000  Uiso   1.00
C992   C     0.58001   0.16674   0.74971   0.00000  Uiso   1.00
C993   C     0.50122   0.16686   0.61599   0.00000  Uiso   1.00
C994   C     0.46353   0.18016   0.90690   0.00000  Uiso   1.00
C995   C     0.53830   0.16093   0.59297   0.00000  Uiso   1.00
C996   C     0.46380   0.18218   0.95369   0.00000  Uiso   1.00
C997   C     0.53890   0.16233   0.54611   0.00000  Uiso   1.00
C998   C     0.50087   0.17169   0.97654   0.00000  Uiso   1.00
C999   C     0.50126   0.17090   0.52336   0.00000  Uiso   1.00
C1000  C     0.53751   0.16179   0.95227   0.00000  Uiso   1.00
C1001  C     0.46386   0.17822   0.54757   0.00000  Uiso   1.00
C1002  C     0.42776   0.19384   0.97785   0.00000  Uiso   1.00
C1003  C     0.42721   0.18997   0.52492   0.00000  Uiso   1.00
C1004  C     0.57636   0.15687   0.52183   0.00000  Uiso   1.00
C1005  C     0.39241   0.25508   0.94105   0.00000  Uiso   1.00
C1006  C     0.62600   0.10707   0.55656   0.00000  Uiso   1.00
C1007  C     0.38353   0.24329   0.56567   0.00000  Uiso   1.00
C1008  C     0.62509   0.19788   0.92769   0.00000  Uiso   1.00
C1009  C     0.58775   0.04483   0.81693   0.00000  Uiso   1.00
C1010  C     0.47640   0.28866   0.63851   0.00000  Uiso   1.00
C1011  C     0.41169   0.04379   0.68289   0.00000  Uiso   1.00
C1012  C     0.52583   0.28632   0.86123   0.00000  Uiso   1.00
C1013  C     0.57570   0.15755   0.97436   0.00000  Uiso   1.00
C1014  C     0.35446   0.12601   0.75055   0.00000  Uiso   1.00
C1015  C     0.64546   0.20797   0.75057   0.00000  Uiso   1.00
C1016  C     0.64543   0.12606   0.74869   0.00000  Uiso   1.00
C1017  C     0.35465   0.20795   0.75080   0.00000  Uiso   1.00
C1018  C     0.62421   0.16695   0.74949   0.00000  Uiso   1.00
H1019  H     0.56200   0.14646   0.88615   0.00000  Uiso   1.00
H1020  H     0.39165   0.27721   0.97105   0.00000  Uiso   1.00
H1021  H     0.36495   0.26251   0.92010   0.00000  Uiso   1.00
H1022  H     0.42058   0.26276   0.92072   0.00000  Uiso   1.00
H1023  H     0.63859   0.17135   0.53184   0.00000  Uiso   1.00
H1024  H     0.63223   0.08745   0.52550   0.00000  Uiso   1.00
H1025  H     0.60095   0.09030   0.57625   0.00000  Uiso   1.00
H1026  H     0.65442   0.10742   0.57733   0.00000  Uiso   1.00
H1027  H     0.38001   0.17280   0.57053   0.00000  Uiso   1.00
H1028  H     0.35239   0.25528   0.55571   0.00000  Uiso   1.00
H1029  H     0.40709   0.26711   0.55195   0.00000  Uiso   1.00
H1030  H     0.43663   0.17993   0.61425   0.00000  Uiso   1.00
H1031  H     0.38539   0.24341   0.60301   0.00000  Uiso   1.00
H1032  H     0.63746   0.13872   0.96300   0.00000  Uiso   1.00
H1033  H     0.65280   0.19263   0.90603   0.00000  Uiso   1.00
H1034  H     0.63186   0.22326   0.95398   0.00000  Uiso   1.00
H1035  H     0.60029   0.21140   0.90592   0.00000  Uiso   1.00
H1036  H     0.52822   0.05165   0.84576   0.00000  Uiso   1.00
H1037  H     0.59682   0.02338   0.84589   0.00000  Uiso   1.00
H1038  H     0.60132   0.07871   0.82204   0.00000  Uiso   1.00
H1039  H     0.60059   0.03030   0.78535   0.00000  Uiso   1.00
H1040  H     0.42675   0.28711   0.68429   0.00000  Uiso   1.00
H1041  H     0.43586   0.18781   0.88793   0.00000  Uiso   1.00
H1042  H     0.46854   0.32116   0.62249   0.00000  Uiso   1.00
H1043  H     0.46344   0.26196   0.61700   0.00000  Uiso   1.00
H1044  H     0.51058   0.28460   0.63955   0.00000  Uiso   1.00
H1045  H     0.47131   0.05466   0.65533   0.00000  Uiso   1.00
H1046  H     0.40367   0.02249   0.65361   0.00000  Uiso   1.00
H1047  H     0.39724   0.07722   0.67766   0.00000  Uiso   1.00
H1048  H     0.39882   0.02842   0.71421   0.00000  Uiso   1.00
H1049  H     0.57437   0.28718   0.81405   0.00000  Uiso   1.00
H1050  H     0.53613   0.31713   0.87871   0.00000  Uiso   1.00
H1051  H     0.53738   0.25712   0.88081   0.00000  Uiso   1.00
H1052  H     0.56637   0.15561   0.61202   0.00000  Uiso   1.00
H1053  H     0.49144   0.28486   0.86094   0.00000  Uiso   1.00
H1054  H     0.37033   0.09404   0.75167   0.00000  Uiso   1.00
H1055  H     0.62940   0.23996   0.75109   0.00000  Uiso   1.00
H1056  H     0.62948   0.09414   0.74674   0.00000  Uiso   1.00
H1057  H     0.37079   0.23994   0.75115   0.00000  Uiso   1.00
H1058  H     0.36452   0.19935   0.97062   0.00000  Uiso   1.00
N1059  N     0.50000   0.28573   0.75000   0.00000  Uiso   1.00
N1060  N     0.54262   0.28443   0.81587   0.00000  Uiso   1.00
N1061  N     0.50000   0.04760   0.75000   0.00000  Uiso   1.00
N1062  N     0.39170   0.20823   0.95468   0.00000  Uiso   1.00
N1063  N     0.61450   0.15279   0.54533   0.00000  Uiso   1.00
N1064  N     0.38956   0.19806   0.54889   0.00000  Uiso   1.00
N1065  N     0.61310   0.15554   0.94848   0.00000  Uiso   1.00
N1066  N     0.54317   0.04881   0.81514   0.00000  Uiso   1.00
N1067  N     0.45855   0.28499   0.68329   0.00000  Uiso   1.00
N1068  N     0.45609   0.04939   0.68549   0.00000  Uiso   1.00
O1069  O     0.43892   0.20487   0.74999   0.00000  Uiso   1.00
O1070  O     0.56108   0.12846   0.75001   0.00000  Uiso   1.00
O1071  O     0.56108   0.20487   0.75001   0.00000  Uiso   1.00
O1072  O     0.43892   0.12846   0.74999   0.00000  Uiso   1.00
O1073  O     0.49999   0.20489   0.68393   0.00000  Uiso   1.00
O1074  O     0.50001   0.12844   0.81607   0.00000  Uiso   1.00
O1075  O     0.50001   0.20489   0.81607   0.00000  Uiso   1.00
O1076  O     0.49999   0.12844   0.68393   0.00000  Uiso   1.00
Zn1077 Zn    0.50000   0.21771   0.75000   0.00000  Uiso   1.00
Zn1078 Zn    0.50000   0.11563   0.75000   0.00000  Uiso   1.00
C1079  C     0.75333   0.16669   0.75036   0.00000  Uiso   1.00
C1080  C     0.70912   0.16689   0.75075   0.00000  Uiso   1.00
C1081  C     0.85511   0.02412   0.78172   0.00000  Uiso   1.00
C1082  C     0.81245   0.30939   0.71754   0.00000  Uiso   1.00
C1083  C     0.81137   0.02437   0.71844   0.00000  Uiso   1.00
C1084  C     0.85426   0.30912   0.78245   0.00000  Uiso   1.00
C1085  C     0.83431   0.16671   0.66363   0.00000  Uiso   1.00
C1086  C     0.83231   0.16657   0.83637   0.00000  Uiso   1.00
C1087  C     0.86860   0.15674   0.90588   0.00000  Uiso   1.00
C1088  C     0.79768   0.17492   0.59416   0.00000  Uiso   1.00
C1089  C     0.83218   0.16664   0.88398   0.00000  Uiso   1.00
C1090  C     0.91334   0.16674   0.74971   0.00000  Uiso   1.00
C1091  C     0.83455   0.16686   0.61599   0.00000  Uiso   1.00
C1092  C     0.79686   0.18016   0.90690   0.00000  Uiso   1.00
C1093  C     0.87164   0.16093   0.59297   0.00000  Uiso   1.00
C1094  C     0.79713   0.18218   0.95369   0.00000  Uiso   1.00
C1095  C     0.87224   0.16233   0.54611   0.00000  Uiso   1.00
C1096  C     0.83420   0.17169   0.97654   0.00000  Uiso   1.00
C1097  C     0.83459   0.17090   0.52336   0.00000  Uiso   1.00
C1098  C     0.87085   0.16179   0.95227   0.00000  Uiso   1.00
C1099  C     0.79719   0.17822   0.54757   0.00000  Uiso   1.00
C1100  C     0.76109   0.19384   0.97785   0.00000  Uiso   1.00
C1101  C     0.76055   0.18997   0.52492   0.00000  Uiso   1.00
C1102  C     0.90969   0.15687   0.52183   0.00000  Uiso   1.00
C1103  C     0.72575   0.25508   0.94105   0.00000  Uiso   1.00
C1104  C     0.95933   0.10707   0.55656   0.00000  Uiso   1.00
C1105  C     0.71686   0.24329   0.56567   0.00000  Uiso   1.00
C1106  C     0.95842   0.19788   0.92769   0.00000  Uiso   1.00
C1107  C     0.92108   0.04483   0.81693   0.00000  Uiso   1.00
C1108  C     0.80974   0.28866   0.63851   0.00000  Uiso   1.00
C1109  C     0.74502   0.04379   0.68289   0.00000  Uiso   1.00
C1110  C     0.85917   0.28632   0.86123   0.00000  Uiso   1.00
C1111  C     0.90903   0.15755   0.97436   0.00000  Uiso   1.00
C1112  C     0.68780   0.12601   0.75055   0.00000  Uiso   1.00
C1113  C     0.97879   0.20797   0.75057   0.00000  Uiso   1.00
C1114  C     0.97877   0.12606   0.74869   0.00000  Uiso   1.00
C1115  C     0.68798   0.20795   0.75080   0.00000  Uiso   1.00
C1116  C     0.95754   0.16695   0.74949   0.00000  Uiso   1.00
H1117  H     0.89534   0.14646   0.88615   0.00000  Uiso   1.00
H1118  H     0.72499   0.27721   0.97105   0.00000  Uiso   1.00
H1119  H     0.69828   0.26251   0.92010   0.00000  Uiso   1.00
H1120  H     0.75391   0.26276   0.92072   0.00000  Uiso   1.00
H1121  H     0.97192   0.17135   0.53184   0.00000  Uiso   1.00
H1122  H     0.96556   0.08745   0.52550   0.00000  Uiso   1.00
H1123  H     0.93428   0.09030   0.57625   0.00000  Uiso   1.00
H1124  H     0.98776   0.10742   0.57733   0.00000  Uiso   1.00
H1125  H     0.71334   0.17280   0.57053   0.00000  Uiso   1.00
H1126  H     0.68572   0.25528   0.55571   0.00000  Uiso   1.00
H1127  H     0.74042   0.26711   0.55195   0.00000  Uiso   1.00
H1128  H     0.76996   0.17993   0.61425   0.00000  Uiso   1.00
H1129  H     0.71872   0.24341   0.60301   0.00000  Uiso   1.00
H1130  H     0.97080   0.13872   0.96300   0.00000  Uiso   1.00
H1131  H     0.98613   0.19263   0.90603   0.00000  Uiso   1.00
H1132  H     0.96519   0.22326   0.95398   0.00000  Uiso   1.00
H1133  H     0.93362   0.21140   0.90592   0.00000  Uiso   1.00
H1134  H     0.86155   0.05165   0.84576   0.00000  Uiso   1.00
H1135  H     0.93015   0.02338   0.84589   0.00000  Uiso   1.00
H1136  H     0.93466   0.07871   0.82204   0.00000  Uiso   1.00
H1137  H     0.93393   0.03030   0.78535   0.00000  Uiso   1.00
H1138  H     0.76008   0.28711   0.68429   0.00000  Uiso   1.00
H1139  H     0.76919   0.18781   0.88793   0.00000  Uiso   1.00
H1140  H     0.80188   0.32116   0.62249   0.00000  Uiso   1.00
H1141  H     0.79677   0.26196   0.61700   0.00000  Uiso   1.00
H1142  H     0.84391   0.28460   0.63955   0.00000  Uiso   1.00
H1143  H     0.80465   0.05466   0.65533   0.00000  Uiso   1.00
H1144  H     0.73700   0.02249   0.65361   0.00000  Uiso   1.00
H1145  H     0.73058   0.07722   0.67766   0.00000  Uiso   1.00
H1146  H     0.73215   0.02842   0.71421   0.00000  Uiso   1.00
H1147  H     0.90770   0.28718   0.81405   0.00000  Uiso   1.00
H1148  H     0.86946   0.31713   0.87871   0.00000  Uiso   1.00
H1149  H     0.87071   0.25712   0.88081   0.00000  Uiso   1.00
H1150  H     0.89970   0.15561   0.61202   0.00000  Uiso   1.00
H1151  H     0.82477   0.28486   0.86094   0.00000  Uiso   1.00
H1152  H     0.70367   0.09404   0.75167   0.00000  Uiso   1.00
H1153  H     0.96273   0.23996   0.75109   0.00000  Uiso   1.00
H1154  H     0.96281   0.09414   0.74674   0.00000  Uiso   1.00
H1155  H     0.70412   0.23994   0.75115   0.00000  Uiso   1.00
H1156  H     0.69785   0.19935   0.97062   0.00000  Uiso   1.00
N1157  N     0.83333   0.28573   0.75000   0.00000  Uiso   1.00
N1158  N     0.87595   0.28443   0.81587   0.00000  Uiso   1.00
N1159  N     0.83333   0.04760   0.75000   0.00000  Uiso   1.00
N1160  N     0.72503   0.20823   0.95468   0.00000  Uiso   1.00
N1161  N     0.94783   0.15279   0.54533   0.00000  Uiso   1.00
N1162  N     0.72289   0.19806   0.54889   0.00000  Uiso   1.00
N1163  N     0.94643   0.15554   0.94848   0.00000  Uiso   1.00
N1164  N     0.87651   0.04881   0.81514   0.00000  Uiso   1.00
N1165  N     0.79188   0.28499   0.68329   0.00000  Uiso   1.00
N1166  N     0.78942   0.04939   0.68549   0.00000  Uiso   1.00
O1167  O     0.77226   0.20487   0.74999   0.00000  Uiso   1.00
O1168  O     0.89441   0.12846   0.75001   0.00000  Uiso   1.00
O1169  O     0.89441   0.20487   0.75001   0.00000  Uiso   1.00
O1170  O     0.77226   0.12846   0.74999   0.00000  Uiso   1.00
O1171  O     0.83333   0.20489   0.68393   0.00000  Uiso   1.00
O1172  O     0.83334   0.12844   0.81607   0.00000  Uiso   1.00
O1173  O     0.83334   0.20489   0.81607   0.00000  Uiso   1.00
O1174  O     0.83333   0.12844   0.68393   0.00000  Uiso   1.00
Zn1175 Zn    0.83333   0.21771   0.75000   0.00000  Uiso   1.00
Zn1176 Zn    0.83333   0.11563   0.75000   0.00000  Uiso   1.00
C1177  C     0.08666   0.50003   0.75036   0.00000  Uiso   1.00
C1178  C     0.04246   0.50022   0.75075   0.00000  Uiso   1.00
C1179  C     0.18845   0.35745   0.78172   0.00000  Uiso   1.00
C1180  C     0.14579   0.64272   0.71754   0.00000  Uiso   1.00
C1181  C     0.14470   0.35770   0.71844   0.00000  Uiso   1.00
C1182  C     0.18759   0.64245   0.78245   0.00000  Uiso   1.00
C1183  C     0.16764   0.50004   0.66363   0.00000  Uiso   1.00
C1184  C     0.16564   0.49990   0.83637   0.00000  Uiso   1.00
C1185  C     0.20193   0.49008   0.90588   0.00000  Uiso   1.00
C1186  C     0.13102   0.50825   0.59416   0.00000  Uiso   1.00
C1187  C     0.16551   0.49998   0.88398   0.00000  Uiso   1.00
C1188  C     0.24667   0.50007   0.74971   0.00000  Uiso   1.00
C1189  C     0.16788   0.50019   0.61599   0.00000  Uiso   1.00
C1190  C     0.13019   0.51349   0.90690   0.00000  Uiso   1.00
C1191  C     0.20497   0.49427   0.59297   0.00000  Uiso   1.00
C1192  C     0.13046   0.51551   0.95369   0.00000  Uiso   1.00
C1193  C     0.20557   0.49566   0.54611   0.00000  Uiso   1.00
C1194  C     0.16753   0.50502   0.97654   0.00000  Uiso   1.00
C1195  C     0.16792   0.50423   0.52336   0.00000  Uiso   1.00
C1196  C     0.20418   0.49512   0.95227   0.00000  Uiso   1.00
C1197  C     0.13053   0.51155   0.54757   0.00000  Uiso   1.00
C1198  C     0.09443   0.52717   0.97785   0.00000  Uiso   1.00
C1199  C     0.09388   0.52330   0.52492   0.00000  Uiso   1.00
C1200  C     0.24303   0.49020   0.52183   0.00000  Uiso   1.00
C1201  C     0.05908   0.58841   0.94105   0.00000  Uiso   1.00
C1202  C     0.29267   0.44041   0.55656   0.00000  Uiso   1.00
C1203  C     0.05020   0.57662   0.56567   0.00000  Uiso   1.00
C1204  C     0.29175   0.53121   0.92769   0.00000  Uiso   1.00
C1205  C     0.25442   0.37816   0.81693   0.00000  Uiso   1.00
C1206  C     0.14307   0.62200   0.63851   0.00000  Uiso   1.00
C1207  C     0.07835   0.37712   0.68289   0.00000  Uiso   1.00
C1208  C     0.19250   0.61965   0.86123   0.00000  Uiso   1.00
C1209  C     0.24236   0.49088   0.97436   0.00000  Uiso   1.00
C1210  C     0.02113   0.45934   0.75055   0.00000  Uiso   1.00
C1211  C     0.31212   0.54131   0.75057   0.00000  Uiso   1.00
C1212  C     0.31210   0.45939   0.74869   0.00000  Uiso   1.00
C1213  C     0.02131   0.54129   0.75080   0.00000  Uiso   1.00
C1214  C     0.29087   0.50028   0.74949   0.00000  Uiso   1.00
H1215  H     0.22867   0.47980   0.88615   0.00000  Uiso   1.00
H1216  H     0.05832   0.61054   0.97105   0.00000  Uiso   1.00
H1217  H     0.03162   0.59585   0.92010   0.00000  Uiso   1.00
H1218  H     0.08725   0.59609   0.92072   0.00000  Uiso   1.00
H1219  H     0.30525   0.50469   0.53184   0.00000  Uiso   1.00
H1220  H     0.29889   0.42078   0.52550   0.00000  Uiso   1.00
H1221  H     0.26762   0.42364   0.57625   0.00000  Uiso   1.00
H1222  H     0.32109   0.44075   0.57733   0.00000  Uiso   1.00
H1223  H     0.04667   0.50614   0.57053   0.00000  Uiso   1.00
H1224  H     0.01906   0.58861   0.55571   0.00000  Uiso   1.00
H1225  H     0.07376   0.60045   0.55195   0.00000  Uiso   1.00
H1226  H     0.10329   0.51327   0.61425   0.00000  Uiso   1.00
H1227  H     0.05206   0.57674   0.60301   0.00000  Uiso   1.00
H1228  H     0.30413   0.47206   0.96300   0.00000  Uiso   1.00
H1229  H     0.31947   0.52597   0.90603   0.00000  Uiso   1.00
H1230  H     0.29852   0.55659   0.95398   0.00000  Uiso   1.00
H1231  H     0.26695   0.54474   0.90592   0.00000  Uiso   1.00
H1232  H     0.19489   0.38498   0.84576   0.00000  Uiso   1.00
H1233  H     0.26349   0.35672   0.84589   0.00000  Uiso   1.00
H1234  H     0.26799   0.41204   0.82204   0.00000  Uiso   1.00
H1235  H     0.26726   0.36363   0.78535   0.00000  Uiso   1.00
H1236  H     0.09341   0.62044   0.68429   0.00000  Uiso   1.00
H1237  H     0.10252   0.52115   0.88793   0.00000  Uiso   1.00
H1238  H     0.13521   0.65449   0.62249   0.00000  Uiso   1.00
H1239  H     0.13011   0.59529   0.61700   0.00000  Uiso   1.00
H1240  H     0.17725   0.61794   0.63955   0.00000  Uiso   1.00
H1241  H     0.13798   0.38800   0.65533   0.00000  Uiso   1.00
H1242  H     0.07034   0.35583   0.65361   0.00000  Uiso   1.00
H1243  H     0.06391   0.41055   0.67766   0.00000  Uiso   1.00
H1244  H     0.06548   0.36176   0.71421   0.00000  Uiso   1.00
H1245  H     0.24104   0.62051   0.81405   0.00000  Uiso   1.00
H1246  H     0.20280   0.65047   0.87871   0.00000  Uiso   1.00
H1247  H     0.20405   0.59045   0.88081   0.00000  Uiso   1.00
H1248  H     0.23304   0.48895   0.61202   0.00000  Uiso   1.00
H1249  H     0.15811   0.61820   0.86094   0.00000  Uiso   1.00
H1250  H     0.03700   0.42737   0.75167   0.00000  Uiso   1.00
H1251  H     0.29606   0.57329   0.75109   0.00000  Uiso   1.00
H1252  H     0.29615   0.42748   0.74674   0.00000  Uiso   1.00
H1253  H     0.03745   0.57327   0.75115   0.00000  Uiso   1.00
H1254  H     0.03118   0.53268   0.97062   0.00000  Uiso   1.00
N1255  N     0.16667   0.61907   0.75000   0.00000  Uiso   1.00
N1256  N     0.20929   0.61776   0.81587   0.00000  Uiso   1.00
N1257  N     0.16667   0.38093   0.75000   0.00000  Uiso   1.00
N1258  N     0.05837   0.54156   0.95468   0.00000  Uiso   1.00
N1259  N     0.28116   0.48612   0.54533   0.00000  Uiso   1.00
N1260  N     0.05623   0.53139   0.54889   0.00000  Uiso   1.00
N1261  N     0.27976   0.48887   0.94848   0.00000  Uiso   1.00
N1262  N     0.20984   0.38215   0.81514   0.00000  Uiso   1.00
N1263  N     0.12522   0.61832   0.68329   0.00000  Uiso   1.00
N1264  N     0.12275   0.38272   0.68549   0.00000  Uiso   1.00
O1265  O     0.10559   0.53821   0.74999   0.00000  Uiso   1.00
O1266  O     0.22774   0.46179   0.75001   0.00000  Uiso   1.00
O1267  O     0.22774   0.53821   0.75001   0.00000  Uiso   1.00
O1268  O     0.10559   0.46179   0.74999   0.00000  Uiso   1.00
O1269  O     0.16666   0.53823   0.68393   0.00000  Uiso   1.00
O1270  O     0.16667   0.46177   0.81607   0.00000  Uiso   1.00
O1271  O     0.16667   0.53823   0.81607   0.00000  Uiso   1.00
O1272  O     0.16666   0.46177   0.68393   0.00000  Uiso   1.00
Zn1273 Zn    0.16667   0.55104   0.75000   0.00000  Uiso   1.00
Zn1274 Zn    0.16667   0.44896   0.75000   0.00000  Uiso   1.00
C1275  C     0.41999   0.50003   0.75036   0.00000  Uiso   1.00
C1276  C     0.37579   0.50022   0.75075   0.00000  Uiso   1.00
C1277  C     0.52178   0.35745   0.78172   0.00000  Uiso   1.00
C1278  C     0.47912   0.64272   0.71754   0.00000  Uiso   1.00
C1279  C     0.47803   0.35770   0.71844   0.00000  Uiso   1.00
C1280  C     0.52092   0.64245   0.78245   0.00000  Uiso   1.00
C1281  C     0.50098   0.50004   0.66363   0.00000  Uiso   1.00
C1282  C     0.49898   0.49990   0.83637   0.00000  Uiso   1.00
C1283  C     0.53526   0.49008   0.90588   0.00000  Uiso   1.00
C1284  C     0.46435   0.50825   0.59416   0.00000  Uiso   1.00
C1285  C     0.49884   0.49998   0.88398   0.00000  Uiso   1.00
C1286  C     0.58001   0.50007   0.74971   0.00000  Uiso   1.00
C1287  C     0.50122   0.50019   0.61599   0.00000  Uiso   1.00
C1288  C     0.46353   0.51349   0.90690   0.00000  Uiso   1.00
C1289  C     0.53830   0.49427   0.59297   0.00000  Uiso   1.00
C1290  C     0.46380   0.51551   0.95369   0.00000  Uiso   1.00
C1291  C     0.53890   0.49566   0.54611   0.00000  Uiso   1.00
C1292  C     0.50087   0.50502   0.97654   0.00000  Uiso   1.00
C1293  C     0.50126   0.50423   0.52336   0.00000  Uiso   1.00
C1294  C     0.53751   0.49512   0.95227   0.00000  Uiso   1.00
C1295  C     0.46386   0.51155   0.54757   0.00000  Uiso   1.00
C1296  C     0.42776   0.52717   0.97785   0.00000  Uiso   1.00
C1297  C     0.42721   0.52330   0.52492   0.00000  Uiso   1.00
C1298  C     0.57636   0.49020   0.52183   0.00000  Uiso   1.00
C1299  C     0.39241   0.58841   0.94105   0.00000  Uiso   1.00
C1300  C     0.62600   0.44041   0.55656   0.00000  Uiso   1.00
C1301  C     0.38353   0.57662   0.56567   0.00000  Uiso   1.00
C1302  C     0.62509   0.53121   0.92769   0.00000  Uiso   1.00
C1303  C     0.58775   0.37816   0.81693   0.00000  Uiso   1.00
C1304  C     0.47640   0.62200   0.63851   0.00000  Uiso   1.00
C1305  C     0.41169   0.37712   0.68289   0.00000  Uiso   1.00
C1306  C     0.52583   0.61965   0.86123   0.00000  Uiso   1.00
C1307  C     0.57570   0.49088   0.97436   0.00000  Uiso   1.00
C1308  C     0.35446   0.45934   0.75055   0.00000  Uiso   1.00
C1309  C     0.64546   0.54131   0.75057   0.00000  Uiso   1.00
C1310  C     0.64543   0.45939   0.74869   0.00000  Uiso   1.00
C1311  C     0.35465   0.54129   0.75080   0.00000  Uiso   1.00
C1312  C     0.62421   0.50028   0.74949   0.00000  Uiso   1.00
H1313  H     0.56200   0.47980   0.88615   0.00000  Uiso   1.00
H1314  H     0.39165   0.61054   0.97105   0.00000  Uiso   1.00
H1315  H     0.36495   0.59585   0.92010   0.00000  Uiso   1.00
H1316  H     0.42058   0.59609   0.92072   0.00000  Uiso   1.00
H1317  H     0.63859   0.50469   0.53184   0.00000  Uiso   1.00
H1318  H     0.63223   0.42078   0.52550   0.00000  Uiso   1.00
H1319  H     0.60095   0.42364   0.57625   0.00000  Uiso   1.00
H1320  H     0.65442   0.44075   0.57733   0.00000  Uiso   1.00
H1321  H     0.38001   0.50614   0.57053   0.00000  Uiso   1.00
H1322  H     0.35239   0.58861   0.55571   0.00000  Uiso   1.00
H1323  H     0.40709   0.60045   0.55195   0.00000  Uiso   1.00
H1324  H     0.43663   0.51327   0.61425   0.00000  Uiso   1.00
H1325  H     0.38539   0.57674   0.60301   0.00000  Uiso   1.00
H1326  H     0.63746   0.47206   0.96300   0.00000  Uiso   1.00
H1327  H     0.65280   0.52597   0.90603   0.00000  Uiso   1.00
H1328  H     0.63186   0.55659   0.95398   0.00000  Uiso   1.00
H1329  H     0.60029   0.54474   0.90592   0.00000  Uiso   1.00
H1330  H     0.52822   0.38498   0.84576   0.00000  Uiso   1.00
H1331  H     0.59682   0.35672   0.84589   0.00000  Uiso   1.00
H1332  H     0.60132   0.41204   0.82204   0.00000  Uiso   1.00
H1333  H     0.60059   0.36363   0.78535   0.00000  Uiso   1.00
H1334  H     0.42675   0.62044   0.68429   0.00000  Uiso   1.00
H1335  H     0.43586   0.52115   0.88793   0.00000  Uiso   1.00
H1336  H     0.46854   0.65449   0.62249   0.00000  Uiso   1.00
H1337  H     0.46344   0.59529   0.61700   0.00000  Uiso   1.00
H1338  H     0.51058   0.61794   0.63955   0.00000  Uiso   1.00
H1339  H     0.47131   0.38800   0.65533   0.00000  Uiso   1.00
H1340  H     0.40367   0.35583   0.65361   0.00000  Uiso   1.00
H1341  H     0.39724   0.41055   0.67766   0.00000  Uiso   1.00
H1342  H     0.39882   0.36176   0.71421   0.00000  Uiso   1.00
H1343  H     0.57437   0.62051   0.81405   0.00000  Uiso   1.00
H1344  H     0.53613   0.65047   0.87871   0.00000  Uiso   1.00
H1345  H     0.53738   0.59045   0.88081   0.00000  Uiso   1.00
H1346  H     0.56637   0.48895   0.61202   0.00000  Uiso   1.00
H1347  H     0.49144   0.61820   0.86094   0.00000  Uiso   1.00
H1348  H     0.37033   0.42737   0.75167   0.00000  Uiso   1.00
H1349  H     0.62940   0.57329   0.75109   0.00000  Uiso   1.00
H1350  H     0.62948   0.42748   0.74674   0.00000  Uiso   1.00
H1351  H     0.37079   0.57327   0.75115   0.00000  Uiso   1.00
H1352  H     0.36452   0.53268   0.97062   0.00000  Uiso   1.00
N1353  N     0.50000   0.61907   0.75000   0.00000  Uiso   1.00
N1354  N     0.54262   0.61776   0.81587   0.00000  Uiso   1.00
N1355  N     0.50000   0.38093   0.75000   0.00000  Uiso   1.00
N1356  N     0.39170   0.54156   0.95468   0.00000  Uiso   1.00
N1357  N     0.61450   0.48612   0.54533   0.00000  Uiso   1.00
N1358  N     0.38956   0.53139   0.54889   0.00000  Uiso   1.00
N1359  N     0.61310   0.48887   0.94848   0.00000  Uiso   1.00
N1360  N     0.54317   0.38215   0.81514   0.00000  Uiso   1.00
N1361  N     0.45855   0.61832   0.68329   0.00000  Uiso   1.00
N1362  N     0.45609   0.38272   0.68549   0.00000  Uiso   1.00
O1363  O     0.43892   0.53821   0.74999   0.00000  Uiso   1.00
O1364  O     0.56108   0.46179   0.75001   0.00000  Uiso   1.00
O1365  O     0.56108   0.53821   0.75001   0.00000  Uiso   1.00
O1366  O     0.43892   0.46179   0.74999   0.00000  Uiso   1.00
O1367  O     0.49999   0.53823   0.68393   0.00000  Uiso   1.00
O1368  O     0.50001   0.46177   0.81607   0.00000  Uiso   1.00
O1369  O     0.50001   0.53823   0.81607   0.00000  Uiso   1.00
O1370  O     0.49999   0.46177   0.68393   0.00000  Uiso   1.00
Zn1371 Zn    0.50000   0.55104   0.75000   0.00000  Uiso   1.00
Zn1372 Zn    0.50000   0.44896   0.75000   0.00000  Uiso   1.00
C1373  C     0.75333   0.50003   0.75036   0.00000  Uiso   1.00
C1374  C     0.70912   0.50022   0.75075   0.00000  Uiso   1.00
C1375  C     0.85511   0.35745   0.78172   0.00000  Uiso   1.00
C1376  C     0.81245   0.64272   0.71754   0.00000  Uiso   1.00
C1377  C     0.81137   0.35770   0.71844   0.00000  Uiso   1.00
C1378  C     0.85426   0.64245   0.78245   0.00000  Uiso   1.00
C1379  C     0.83431   0.50004   0.66363   0.00000  Uiso   1.00
C1380  C     0.83231   0.49990   0.83637   0.00000  Uiso   1.00
C1381  C     0.86860   0.49008   0.90588   0.00000  Uiso   1.00
C1382  C     0.79768   0.50825   0.59416   0.00000  Uiso   1.00
C1383  C     0.83218   0.49998   0.88398   0.00000  Uiso   1.00
C1384  C     0.91334   0.50007   0.74971   0.00000  Uiso   1.00
C1385  C     0.83455   0.50019   0.61599   0.00000  Uiso   1.00
C1386  C     0.79686   0.51349   0.90690   0.00000  Uiso   1.00
C1387  C     0.87164   0.49427   0.59297   0.00000  Uiso   1.00
C1388  C     0.79713   0.51551   0.95369   0.00000  Uiso   1.00
C1389  C     0.87224   0.49566   0.54611   0.00000  Uiso   1.00
C1390  C     0.83420   0.50502   0.97654   0.00000  Uiso   1.00
C1391  C     0.83459   0.50423   0.52336   0.00000  Uiso   1.00
C1392  C     0.87085   0.49512   0.95227   0.00000  Uiso   1.00
C1393  C     0.79719   0.51155   0.54757   0.00000  Uiso   1.00
C1394  C     0.76109   0.52717   0.97785   0.00000  Uiso   1.00
C1395  C     0.76055   0.52330   0.52492   0.00000  Uiso   1.00
C1396  C     0.90969   0.49020   0.52183   0.00000  Uiso   1.00
C1397  C     0.72575   0.58841   0.94105   0.00000  Uiso   1.00
C1398  C     0.95933   0.44041   0.55656   0.00000  Uiso   1.00
C1399  C     0.71686   0.57662   0.56567   0.00000  Uiso   1.00
C1400  C     0.95842   0.53121   0.92769   0.00000  Uiso   1.00
C1401  C     0.92108   0.37816   0.81693   0.00000  Uiso   1.00
C1402  C     0.80974   0.62200   0.63851   0.00000  Uiso   1.00
C1403  C     0.74502   0.37712   0.68289   0.00000  Uiso   1.00
C1404  C     0.85917   0.61965   0.86123   0.00000  Uiso   1.00
C1405  C     0.90903   0.49088   0.97436   0.00000  Uiso   1.00
C1406  C     0.68780   0.45934   0.75055   0.00000  Uiso   1.00
C1407  C     0.97879   0.54131   0.75057   0.00000  Uiso   1.00
C1408  C     0.97877   0.45939   0.74869   0.00000  Uiso   1.00
C1409  C     0.68798   0.54129   0.75080   0.00000  Uiso   1.00
C1410  C     0.95754   0.50028   0.74949   0.00000  Uiso   1.00
H1411  H     0.89534   0.47980   0.88615   0.00000  Uiso   1.00
H1412  H     0.72499   0.61054   0.97105   0.00000  Uiso   1.00
H1413  H     0.69828   0.59585   0.92010   0.00000  Uiso   1.00
H1414  H     0.75391   0.59609   0.92072   0.00000  Uiso   1.00
H1415  H     0.97192   0.50469   0.53184   0.00000  Uiso   1.00
H1416  H     0.96556   0.42078   0.52550   0.00000  Uiso   1.00
H1417  H     0.93428   0.42364   0.57625   0.00000  Uiso   1.00
H1418  H     0.98776   0.44075   0.57733   0.00000  Uiso   1.00
H1419  H     0.71334   0.50614   0.57053   0.00000  Uiso   1.00
H1420  H     0.68572   0.58861   0.55571   0.00000  Uiso   1.00
H1421  H     0.74042   0.60045   0.55195   0.00000  Uiso   1.00
H1422  H     0.76996   0.51327   0.61425   0.00000  Uiso   1.00
H1423  H     0.71872   0.57674   0.60301   0.00000  Uiso   1.00
H1424  H     0.97080   0.47206   0.96300   0.00000  Uiso   1.00
H1425  H     0.98613   0.52597   0.90603   0.00000  Uiso   1.00
H1426  H     0.96519   0.55659   0.95398   0.00000  Uiso   1.00
H1427  H     0.93362   0.54474   0.90592   0.00000  Uiso   1.00
H1428  H     0.86155   0.38498   0.84576   0.00000  Uiso   1.00
H1429  H     0.93015   0.35672   0.84589   0.00000  Uiso   1.00
H1430  H     0.93466   0.41204   0.82204   0.00000  Uiso   1.00
H1431  H     0.93393   0.36363   0.78535   0.00000  Uiso   1.00
H1432  H     0.76008   0.62044   0.68429   0.00000  Uiso   1.00
H1433  H     0.76919   0.52115   0.88793   0.00000  Uiso   1.00
H1434  H     0.80188   0.65449   0.62249   0.00000  Uiso   1.00
H1435  H     0.79677   0.59529   0.61700   0.00000  Uiso   1.00
H1436  H     0.84391   0.61794   0.63955   0.00000  Uiso   1.00
H1437  H     0.80465   0.38800   0.65533   0.00000  Uiso   1.00
H1438  H     0.73700   0.35583   0.65361   0.00000  Uiso   1.00
H1439  H     0.73058   0.41055   0.67766   0.00000  Uiso   1.00
H1440  H     0.73215   0.36176   0.71421   0.00000  Uiso   1.00
H1441  H     0.90770   0.62051   0.81405   0.00000  Uiso   1.00
H1442  H     0.86946   0.65047   0.87871   0.00000  Uiso   1.00
H1443  H     0.87071   0.59045   0.88081   0.00000  Uiso   1.00
H1444  H     0.89970   0.48895   0.61202   0.00000  Uiso   1.00
H1445  H     0.82477   0.61820   0.86094   0.00000  Uiso   1.00
H1446  H     0.70367   0.42737   0.75167   0.00000  Uiso   1.00
H1447  H     0.96273   0.57329   0.75109   0.00000  Uiso   1.00
H1448  H     0.96281   0.42748   0.74674   0.00000  Uiso   1.00
H1449  H     0.70412   0.57327   0.75115   0.00000  Uiso   1.00
H1450  H     0.69785   0.53268   0.97062   0.00000  Uiso   1.00
N1451  N     0.83333   0.61907   0.75000   0.00000  Uiso   1.00
N1452  N     0.87595   0.61776   0.81587   0.00000  Uiso   1.00
N1453  N     0.83333   0.38093   0.75000   0.00000  Uiso   1.00
N1454  N     0.72503   0.54156   0.95468   0.00000  Uiso   1.00
N1455  N     0.94783   0.48612   0.54533   0.00000  Uiso   1.00
N1456  N     0.72289   0.53139   0.54889   0.00000  Uiso   1.00
N1457  N     0.94643   0.48887   0.94848   0.00000  Uiso   1.00
N1458  N     0.87651   0.38215   0.81514   0.00000  Uiso   1.00
N1459  N     0.79188   0.61832   0.68329   0.00000  Uiso   1.00
N1460  N     0.78942   0.38272   0.68549   0.00000  Uiso   1.00
O1461  O     0.77226   0.53821   0.74999   0.00000  Uiso   1.00
O1462  O     0.89441   0.46179   0.75001   0.00000  Uiso   1.00
O1463  O     0.89441   0.53821   0.75001   0.00000  Uiso   1.00
O1464  O     0.77226   0.46179   0.74999   0.00000  Uiso   1.00
O1465  O     0.83333   0.53823   0.68393   0.00000  Uiso   1.00
O1466  O     0.83334   0.46177   0.81607   0.00000  Uiso   1.00
O1467  O     0.83334   0.53823   0.81607   0.00000  Uiso   1.00
O1468  O     0.83333   0.46177   0.68393   0.00000  Uiso   1.00
Zn1469 Zn    0.83333   0.55104   0.75000   0.00000  Uiso   1.00
Zn1470 Zn    0.83333   0.44896   0.75000   0.00000  Uiso   1.00
C1471  C     0.08666   0.83336   0.75036   0.00000  Uiso   1.00
C1472  C     0.04246   0.83356   0.75075   0.00000  Uiso   1.00
C1473  C     0.18845   0.69078   0.78172   0.00000  Uiso   1.00
C1474  C     0.14579   0.97605   0.71754   0.00000  Uiso   1.00
C1475  C     0.14470   0.69104   0.71844   0.00000  Uiso   1.00
C1476  C     0.18759   0.97579   0.78245   0.00000  Uiso   1.00
C1477  C     0.16764   0.83337   0.66363   0.00000  Uiso   1.00
C1478  C     0.16564   0.83324   0.83637   0.00000  Uiso   1.00
C1479  C     0.20193   0.82341   0.90588   0.00000  Uiso   1.00
C1480  C     0.13102   0.84159   0.59416   0.00000  Uiso   1.00
C1481  C     0.16551   0.83331   0.88398   0.00000  Uiso   1.00
C1482  C     0.24667   0.83340   0.74971   0.00000  Uiso   1.00
C1483  C     0.16788   0.83352   0.61599   0.00000  Uiso   1.00
C1484  C     0.13019   0.84683   0.90690   0.00000  Uiso   1.00
C1485  C     0.20497   0.82760   0.59297   0.00000  Uiso   1.00
C1486  C     0.13046   0.84884   0.95369   0.00000  Uiso   1.00
C1487  C     0.20557   0.82900   0.54611   0.00000  Uiso   1.00
C1488  C     0.16753   0.83835   0.97654   0.00000  Uiso   1.00
C1489  C     0.16792   0.83757   0.52336   0.00000  Uiso   1.00
C1490  C     0.20418   0.82845   0.95227   0.00000  Uiso   1.00
C1491  C     0.13053   0.84489   0.54757   0.00000  Uiso   1.00
C1492  C     0.09443   0.86050   0.97785   0.00000  Uiso   1.00
C1493  C     0.09388   0.85664   0.52492   0.00000  Uiso   1.00
C1494  C     0.24303   0.82353   0.52183   0.00000  Uiso   1.00
C1495  C     0.05908   0.92174   0.94105   0.00000  Uiso   1.00
C1496  C     0.29267   0.77374   0.55656   0.00000  Uiso   1.00
C1497  C     0.05020   0.90996   0.56567   0.00000  Uiso   1.00
C1498  C     0.29175   0.86454   0.92769   0.00000  Uiso   1.00
C1499  C     0.25442   0.71149   0.81693   0.00000  Uiso   1.00
C1500  C     0.14307   0.95533   0.63851   0.00000  Uiso   1.00
C1501  C     0.07835   0.71046   0.68289   0.00000  Uiso   1.00
C1502  C     0.19250   0.95298   0.86123   0.00000  Uiso   1.00
C1503  C     0.24236   0.82422   0.97436   0.00000  Uiso   1.00
C1504  C     0.02113   0.79267   0.75055   0.00000  Uiso   1.00
C1505  C     0.31212   0.87464   0.75057   0.00000  Uiso   1.00
C1506  C     0.31210   0.79272   0.74869   0.00000  Uiso   1.00
C1507  C     0.02131   0.87462   0.75080   0.00000  Uiso   1.00
C1508  C     0.29087   0.83362   0.74949   0.00000  Uiso   1.00
H1509  H     0.22867   0.81313   0.88615   0.00000  Uiso   1.00
H1510  H     0.05832   0.94388   0.97105   0.00000  Uiso   1.00
H1511  H     0.03162   0.92918   0.92010   0.00000  Uiso   1.00
H1512  H     0.08725   0.92942   0.92072   0.00000  Uiso   1.00
H1513  H     0.30525   0.83802   0.53184   0.00000  Uiso   1.00
H1514  H     0.29889   0.75412   0.52550   0.00000  Uiso   1.00
H1515  H     0.26762   0.75697   0.57625   0.00000  Uiso   1.00
H1516  H     0.32109   0.77408   0.57733   0.00000  Uiso   1.00
H1517  H     0.04667   0.83947   0.57053   0.00000  Uiso   1.00
H1518  H     0.01906   0.92194   0.55571   0.00000  Uiso   1.00
H1519  H     0.07376   0.93378   0.55195   0.00000  Uiso   1.00
H1520  H     0.10329   0.84660   0.61425   0.00000  Uiso   1.00
H1521  H     0.05206   0.91007   0.60301   0.00000  Uiso   1.00
H1522  H     0.30413   0.80539   0.96300   0.00000  Uiso   1.00
H1523  H     0.31947   0.85930   0.90603   0.00000  Uiso   1.00
H1524  H     0.29852   0.88993   0.95398   0.00000  Uiso   1.00
H1525  H     0.26695   0.87807   0.90592   0.00000  Uiso   1.00
H1526  H     0.19489   0.71832   0.84576   0.00000  Uiso   1.00
H1527  H     0.26349   0.69005   0.84589   0.00000  Uiso   1.00
H1528  H     0.26799   0.74537   0.82204   0.00000  Uiso   1.00
H1529  H     0.26726   0.69697   0.78535   0.00000  Uiso   1.00
H1530  H     0.09341   0.95378   0.68429   0.00000  Uiso   1.00
H1531  H     0.10252   0.85448   0.88793   0.00000  Uiso   1.00
H1532  H     0.13521   0.98783   0.62249   0.00000  Uiso   1.00
H1533  H     0.13011   0.92862   0.61700   0.00000  Uiso   1.00
H1534  H     0.17725   0.95127   0.63955   0.00000  Uiso   1.00
H1535  H     0.13798   0.72133   0.65533   0.00000  Uiso   1.00
H1536  H     0.07034   0.68916   0.65361   0.00000  Uiso   1.00
H1537  H     0.06391   0.74389   0.67766   0.00000  Uiso   1.00
H1538  H     0.06548   0.69509   0.71421   0.00000  Uiso   1.00
H1539  H     0.24104   0.95384   0.81405   0.00000  Uiso   1.00
H1540  H     0.20280   0.98380   0.87871   0.00000  Uiso   1.00
H1541  H     0.20405   0.92379   0.88081   0.00000  Uiso   1.00
H1542  H     0.23304   0.82228   0.61202   0.00000  Uiso   1.00
H1543  H     0.15811   0.95153   0.86094   0.00000  Uiso   1.00
H1544  H     0.03700   0.76070   0.75167   0.00000  Uiso   1.00
H1545  H     0.29606   0.90663   0.75109   0.00000  Uiso   1.00
H1546  H     0.29615   0.76081   0.74674   0.00000  Uiso   1.00
H1547  H     0.03745   0.90661   0.75115   0.00000  Uiso   1.00
H1548  H     0.03118   0.86601   0.97062   0.00000  Uiso   1.00
N1549  N     0.16667   0.95240   0.75000   0.00000  Uiso   1.00
N1550  N     0.20929   0.95110   0.81587   0.00000  Uiso   1.00
N1551  N     0.16667   0.71427   0.75000   0.00000  Uiso   1.00
N1552  N     0.05837   0.87489   0.95468   0.00000  Uiso   1.00
N1553  N     0.28116   0.81946   0.54533   0.00000  Uiso   1.00
N1554  N     0.05623   0.86472   0.54889   0.00000  Uiso   1.00
N1555  N     0.27976   0.82221   0.94848   0.00000  Uiso   1.00
N1556  N     0.20984   0.71548   0.81514   0.00000  Uiso   1.00
N1557  N     0.12522   0.95166   0.68329   0.00000  Uiso   1.00
N1558  N     0.12275   0.71606   0.68549   0.00000  Uiso   1.00
O1559  O     0.10559   0.87154   0.74999   0.00000  Uiso   1.00
O1560  O     0.22774   0.79513   0.75001   0.00000  Uiso   1.00
O1561  O     0.22774   0.87154   0.75001   0.00000  Uiso   1.00
O1562  O     0.10559   0.79513   0.74999   0.00000  Uiso   1.00
O1563  O     0.16666   0.87156   0.68393   0.00000  Uiso   1.00
O1564  O     0.16667   0.79511   0.81607   0.00000  Uiso   1.00
O1565  O     0.16667   0.87156   0.81607   0.00000  Uiso   1.00
O1566  O     0.16666   0.79511   0.68393   0.00000  Uiso   1.00
Zn1567 Zn    0.16667   0.88437   0.75000   0.00000  Uiso   1.00
Zn1568 Zn    0.16667   0.78229   0.75000   0.00000  Uiso   1.00
C1569  C     0.41999   0.83336   0.75036   0.00000  Uiso   1.00
C1570  C     0.37579   0.83356   0.75075   0.00000  Uiso   1.00
C1571  C     0.52178   0.69078   0.78172   0.00000  Uiso   1.00
C1572  C     0.47912   0.97605   0.71754   0.00000  Uiso   1.00
C1573  C     0.47803   0.69104   0.71844   0.00000  Uiso   1.00
C1574  C     0.52092   0.97579   0.78245   0.00000  Uiso   1.00
C1575  C     0.50098   0.83337   0.66363   0.00000  Uiso   1.00
C1576  C     0.49898   0.83324   0.83637   0.00000  Uiso   1.00
C1577  C     0.53526   0.82341   0.90588   0.00000  Uiso   1.00
C1578  C     0.46435   0.84159   0.59416   0.00000  Uiso   1.00
C1579  C     0.49884   0.83331   0.88398   0.00000  Uiso   1.00
C1580  C     0.58001   0.83340   0.74971   0.00000  Uiso   1.00
C1581  C     0.50122   0.83352   0.61599   0.00000  Uiso   1.00
C1582  C     0.46353   0.84683   0.90690   0.00000  Uiso   1.00
C1583  C     0.53830   0.82760   0.59297   0.00000  Uiso   1.00
C1584  C     0.46380   0.84884   0.95369   0.00000  Uiso   1.00
C1585  C     0.53890   0.82900   0.54611   0.00000  Uiso   1.00
C1586  C     0.50087   0.83835   0.97654   0.00000  Uiso   1.00
C1587  C     0.50126   0.83757   0.52336   0.00000  Uiso   1.00
C1588  C     0.53751   0.82845   0.95227   0.00000  Uiso   1.00
C1589  C     0.46386   0.84489   0.54757   0.00000  Uiso   1.00
C1590  C     0.42776   0.86050   0.97785   0.00000  Uiso   1.00
C1591  C     0.42721   0.85664   0.52492   0.00000  Uiso   1.00
C1592  C     0.57636   0.82353   0.52183   0.00000  Uiso   1.00
C1593  C     0.39241   0.92174   0.94105   0.00000  Uiso   1.00
C1594  C     0.62600   0.77374   0.55656   0.00000  Uiso   1.00
C1595  C     0.38353   0.90996   0.56567   0.00000  Uiso   1.00
C1596  C     0.62509   0.86454   0.92769   0.00000  Uiso   1.00
C1597  C     0.58775   0.71149   0.81693   0.00000  Uiso   1.00
C1598  C     0.47640   0.95533   0.63851   0.00000  Uiso   1.00
C1599  C     0.41169   0.71046   0.68289   0.00000  Uiso   1.00
C1600  C     0.52583   0.95298   0.86123   0.00000  Uiso   1.00
C1601  C     0.57570   0.82422   0.97436   0.00000  Uiso   1.00
C1602  C     0.35446   0.79267   0.75055   0.00000  Uiso   1.00
C1603  C     0.64546   0.87464   0.75057   0.00000  Uiso   1.00
C1604  C     0.64543   0.79272   0.74869   0.00000  Uiso   1.00
C1605  C     0.35465   0.87462   0.75080   0.00000  Uiso   1.00
C1606  C     0.62421   0.83362   0.74949   0.00000  Uiso   1.00
H1607  H     0.56200   0.81313   0.88615   0.00000  Uiso   1.00
H1608  H     0.39165   0.94388   0.97105   0.00000  Uiso   1.00
H1609  H     0.36495   0.92918   0.92010   0.00000  Uiso   1.00
H1610  H     0.42058   0.92942   0.92072   0.00000  Uiso   1.00
H1611  H     0.63859   0.83802   0.53184   0.00000  Uiso   1.00
H1612  H     0.63223   0.75412   0.52550   0.00000  Uiso   1.00
H1613  H     0.60095   0.75697   0.57625   0.00000  Uiso   1.00
H1614  H     0.65442   0.77408   0.57733   0.00000  Uiso   1.00
H1615  H     0.38001   0.83947   0.57053   0.00000  Uiso   1.00
H1616  H     0.35239   0.92194   0.55571   0.00000  Uiso   1.00
H1617  H     0.40709   0.93378   0.55195   0.00000  Uiso   1.00
H1618  H     0.43663   0.84660   0.61425   0.00000  Uiso   1.00
H1619  H     0.38539   0.91007   0.60301   0.00000  Uiso   1.00
H1620  H     0.63746   0.80539   0.96300   0.00000  Uiso   1.00
H1621  H     0.65280   0.85930   0.90603   0.00000  Uiso   1.00
H1622  H     0.63186   0.88993   0.95398   0.00000  Uiso   1.00
H1623  H     0.60029   0.87807   0.90592   0.00000  Uiso   1.00
H1624  H     0.52822   0.71832   0.84576   0.00000  Uiso   1.00
H1625  H     0.59682   0.69005   0.84589   0.00000  Uiso   1.00
H1626  H     0.60132   0.74537   0.82204   0.00000  Uiso   1.00
H1627  H     0.60059   0.69697   0.78535   0.00000  Uiso   1.00
H1628  H     0.42675   0.95378   0.68429   0.00000  Uiso   1.00
H1629  H     0.43586   0.85448   0.88793   0.00000  Uiso   1.00
H1630  H     0.46854   0.98783   0.62249   0.00000  Uiso   1.00
H1631  H     0.46344   0.92862   0.61700   0.00000  Uiso   1.00
H1632  H     0.51058   0.95127   0.63955   0.00000  Uiso   1.00
H1633  H     0.47131   0.72133   0.65533   0.00000  Uiso   1.00
H1634  H     0.40367   0.68916   0.65361   0.00000  Uiso   1.00
H1635  H     0.39724   0.74389   0.67766   0.00000  Uiso   1.00
H1636  H     0.39882   0.69509   0.71421   0.00000  Uiso   1.00
H1637  H     0.57437   0.95384   0.81405   0.00000  Uiso   1.00
H1638  H     0.53613   0.98380   0.87871   0.00000  Uiso   1.00
H1639  H     0.53738   0.92379   0.88081   0.00000  Uiso   1.00
H1640  H     0.56637   0.82228   0.61202   0.00000  Uiso   1.00
H1641  H     0.49144   0.95153   0.86094   0.00000  Uiso   1.00
H1642  H     0.37033   0.76070   0.75167   0.00000  Uiso   1.00
H1643  H     0.62940   0.90663   0.75109   0.00000  Uiso   1.00
H1644  H     0.62948   0.76081   0.74674   0.00000  Uiso   1.00
H1645  H     0.37079   0.90661   0.75115   0.00000  Uiso   1.00
H1646  H     0.36452   0.86601   0.97062   0.00000  Uiso   1.00
N1647  N     0.50000   0.95240   0.75000   0.00000  Uiso   1.00
N1648  N     0.54262   0.95110   0.81587   0.00000  Uiso   1.00
N1649  N     0.50000   0.71427   0.75000   0.00000  Uiso   1.00
N1650  N     0.39170   0.87489   0.95468   0.00000  Uiso   1.00
N1651  N     0.61450   0.81946   0.54533   0.00000  Uiso   1.00
N1652  N     0.38956   0.86472   0.54889   0.00000  Uiso   1.00
N1653  N     0.61310   0.82221   0.94848   0.00000  Uiso   1.00
N1654  N     0.54317   0.71548   0.81514   0.00000  Uiso   1.00
N1655  N     0.45855   0.95166   0.68329   0.00000  Uiso   1.00
N1656  N     0.45609   0.71606   0.68549   0.00000  Uiso   1.00
O1657  O     0.43892   0.87154   0.74999   0.00000  Uiso   1.00
O1658  O     0.56108   0.79513   0.75001   0.00000  Uiso   1.00
O1659  O     0.56108   0.87154   0.75001   0.00000  Uiso   1.00
O1660  O     0.43892   0.79513   0.74999   0.00000  Uiso   1.00
O1661  O     0.49999   0.87156   0.68393   0.00000  Uiso   1.00
O1662  O     0.50001   0.79511   0.81607   0.00000  Uiso   1.00
O1663  O     0.50001   0.87156   0.81607   0.00000  Uiso   1.00
O1664  O     0.49999   0.79511   0.68393   0.00000  Uiso   1.00
Zn1665 Zn    0.50000   0.88437   0.75000   0.00000  Uiso   1.00
Zn1666 Zn    0.50000   0.78229   0.75000   0.00000  Uiso   1.00
C1667  C     0.75333   0.83336   0.75036   0.00000  Uiso   1.00
C1668  C     0.70912   0.83356   0.75075   0.00000  Uiso   1.00
C1669  C     0.85511   0.69078   0.78172   0.00000  Uiso   1.00
C1670  C     0.81245   0.97605   0.71754   0.00000  Uiso   1.00
C1671  C     0.81137   0.69104   0.71844   0.00000  Uiso   1.00
C1672  C     0.85426   0.97579   0.78245   0.00000  Uiso   1.00
C1673  C     0.83431   0.83337   0.66363   0.00000  Uiso   1.00
C1674  C     0.83231   0.83324   0.83637   0.00000  Uiso   1.00
C1675  C     0.86860   0.82341   0.90588   0.00000  Uiso   1.00
C1676  C     0.79768   0.84159   0.59416   0.00000  Uiso   1.00
C1677  C     0.83218   0.83331   0.88398   0.00000  Uiso   1.00
C1678  C     0.91334   0.83340   0.74971   0.00000  Uiso   1.00
C1679  C     0.83455   0.83352   0.61599   0.00000  Uiso   1.00
C1680  C     0.79686   0.84683   0.90690   0.00000  Uiso   1.00
C1681  C     0.87164   0.82760   0.59297   0.00000  Uiso   1.00
C1682  C     0.79713   0.84884   0.95369   0.00000  Uiso   1.00
C1683  C     0.87224   0.82900   0.54611   0.00000  Uiso   1.00
C1684  C     0.83420   0.83835   0.97654   0.00000  Uiso   1.00
C1685  C     0.83459   0.83757   0.52336   0.00000  Uiso   1.00
C1686  C     0.87085   0.82845   0.95227   0.00000  Uiso   1.00
C1687  C     0.79719   0.84489   0.54757   0.00000  Uiso   1.00
C1688  C     0.76109   0.86050   0.97785   0.00000  Uiso   1.00
C1689  C     0.76055   0.85664   0.52492   0.00000  Uiso   1.00
C1690  C     0.90969   0.82353   0.52183   0.00000  Uiso   1.00
C1691  C     0.72575   0.92174   0.94105   0.00000  Uiso   1.00
C1692  C     0.95933   0.77374   0.55656   0.00000  Uiso   1.00
C1693  C     0.71686   0.90996   0.56567   0.00000  Uiso   1.00
C1694  C     0.95842   0.86454   0.92769   0.00000  Uiso   1.00
C1695  C     0.92108   0.71149   0.81693   0.00000  Uiso   1.00
C1696  C     0.80974   0.95533   0.63851   0.00000  Uiso   1.00
C1697  C     0.74502   0.71046   0.68289   0.00000  Uiso   1.00
C1698  C     0.85917   0.95298   0.86123   0.00000  Uiso   1.00
C1699  C     0.90903   0.82422   0.97436   0.00000  Uiso   1.00
C1700  C     0.68780   0.79267   0.75055   0.00000  Uiso   1.00
C1701  C     0.97879   0.87464   0.75057   0.00000  Uiso   1.00
C1702  C     0.97877   0.79272   0.74869   0.00000  Uiso   1.00
C1703  C     0.68798   0.87462   0.75080   0.00000  Uiso   1.00
C1704  C     0.95754   0.83362   0.74949   0.00000  Uiso   1.00
H1705  H     0.89534   0.81313   0.88615   0.00000  Uiso   1.00
H1706  H     0.72499   0.94388   0.97105   0.00000  Uiso   1.00
H1707  H     0.69828   0.92918   0.92010   0.00000  Uiso   1.00
H1708  H     0.75391   0.92942   0.92072   0.00000  Uiso   1.00
H1709  H     0.97192   0.83802   0.53184   0.00000  Uiso   1.00
H1710  H     0.96556   0.75412   0.52550   0.00000  Uiso   1.00
H1711  H     0.93428   0.75697   0.57625   0.00000  Uiso   1.00
H1712  H     0.98776   0.77408   0.57733   0.00000  Uiso   1.00
H1713  H     0.71334   0.83947   0.57053   0.00000  Uiso   1.00
H1714  H     0.68572   0.92194   0.55571   0.00000  Uiso   1.00
H1715  H     0.74042   0.93378   0.55195   0.00000  Uiso   1.00
H1716  H     0.76996   0.84660   0.61425   0.00000  Uiso   1.00
H1717  H     0.71872   0.91007   0.60301   0.00000  Uiso   1.00
H1718  H     0.97080   0.80539   0.96300   0.00000  Uiso   1.00
H1719  H     0.98613   0.85930   0.90603   0.00000  Uiso   1.00
H1720  H     0.96519   0.88993   0.95398   0.00000  Uiso   1.00
H1721  H     0.93362   0.87807   0.90592   0.00000  Uiso   1.00
H1722  H     0.86155   0.71832   0.84576   0.00000  Uiso   1.00
H1723  H     0.93015   0.69005   0.84589   0.00000  Uiso   1.00
H1724  H     0.93466   0.74537   0.82204   0.00000  Uiso   1.00
H1725  H     0.93393   0.69697   0.78535   0.00000  Uiso   1.00
H1726  H     0.76008   0.95378   0.68429   0.00000  Uiso   1.00
H1727  H     0.76919   0.85448   0.88793   0.00000  Uiso   1.00
H1728  H     0.80188   0.98783   0.62249   0.00000  Uiso   1.00
H1729  H     0.79677   0.92862   0.61700   0.00000  Uiso   1.00
H1730  H     0.84391   0.95127   0.63955   0.00000  Uiso   1.00
H1731  H     0.80465   0.72133   0.65533   0.00000  Uiso   1.00
H1732  H     0.73700   0.68916   0.65361   0.00000  Uiso   1.00
H1733  H     0.73058   0.74389   0.67766   0.00000  Uiso   1.00
H1734  H     0.73215   0.69509   0.71421   0.00000  Uiso   1.00
H1735  H     0.90770   0.95384   0.81405   0.00000  Uiso   1.00
H1736  H     0.86946   0.98380   0.87871   0.00000  Uiso   1.00
H1737  H     0.87071   0.92379   0.88081   0.00000  Uiso   1.00
H1738  H     0.89970   0.82228   0.61202   0.00000  Uiso   1.00
H1739  H     0.82477   0.95153   0.86094   0.00000  Uiso   1.00
H1740  H     0.70367   0.76070   0.75167   0.00000  Uiso   1.00
H1741  H     0.96273   0.90663   0.75109   0.00000  Uiso   1.00
H1742  H     0.96281   0.76081   0.74674   0.00000  Uiso   1.00
H1743  H     0.70412   0.90661   0.75115   0.00000  Uiso   1.00
H1744  H     0.69785   0.86601   0.97062   0.00000  Uiso   1.00
N1745  N     0.83333   0.95240   0.75000   0.00000  Uiso   1.00
N1746  N     0.87595   0.95110   0.81587   0.00000  Uiso   1.00
N1747  N     0.83333   0.71427   0.75000   0.00000  Uiso   1.00
N1748  N     0.72503   0.87489   0.95468   0.00000  Uiso   1.00
N1749  N     0.94783   0.81946   0.54533   0.00000  Uiso   1.00
N1750  N     0.72289   0.86472   0.54889   0.00000  Uiso   1.00
N1751  N     0.94643   0.82221   0.94848   0.00000  Uiso   1.00
N1752  N     0.87651   0.71548   0.81514   0.00000  Uiso   1.00
N1753  N     0.79188   0.95166   0.68329   0.00000  Uiso   1.00
N1754  N     0.78942   0.71606   0.68549   0.00000  Uiso   1.00
O1755  O     0.77226   0.87154   0.74999   0.00000  Uiso   1.00
O1756  O     0.89441   0.79513   0.75001   0.00000  Uiso   1.00
O1757  O     0.89441   0.87154   0.75001   0.00000  Uiso   1.00
O1758  O     0.77226   0.79513   0.74999   0.00000  Uiso   1.00
O1759  O     0.83333   0.87156   0.68393   0.00000  Uiso   1.00
O1760  O     0.83334   0.79511   0.81607   0.00000  Uiso   1.00
O1761  O     0.83334   0.87156   0.81607   0.00000  Uiso   1.00
O1762  O     0.83333   0.79511   0.68393   0.00000  Uiso   1.00
Zn1763 Zn    0.83333   0.88437   0.75000   0.00000  Uiso   1.00
Zn1764 Zn    0.83333   0.78229   0.75000   0.00000  Uiso   1.00
loop_
_geom_bond_atom_site_label_1
_geom_bond_atom_site_label_2
_geom_bond_distance
_geom_bond_site_symmetry_2
_ccdc_geom_bond_type
C1     C2      1.428   .     S
C1     O89     1.288   .     A
C1     O92     1.291   .     A
C2     C34     1.396   .     A
C2     C37     1.399   .     A
C3     N81     1.369   .     A
C3     N86     1.421   .     S
C3     C594    1.436   1_545 S
C4     N87     1.420   .     S
C4     N79     1.373   .     A
C4     C299    1.436   .     S
C5     N88     1.421   .     S
C5     N81     1.369   .     A
C5     C592    1.436   1_545 S
C6     N80     1.421   .     S
C6     N79     1.373   .     A
C6     C297    1.436   .     S
C7     O93     1.288   .     A
C7     O96     1.285   .     A
C7     C13     1.415   .     S
C8     O95     1.286   .     A
C8     O94     1.286   .     A
C8     C11     1.414   .     S
C9     H39     1.085   .     S
C9     C20     1.389   .     A
C9     C11     1.380   .     A
C10    C21     1.387   .     A
C10    H50     1.083   .     S
C10    C13     1.381   .     A
C11    C14     1.385   .     A
C12    O91     1.288   .     A
C12    O90     1.290   .     A
C12    C38     1.428   .     S
C13    C15     1.387   .     A
C14    H61     1.084   .     S
C14    C16     1.391   .     A
C15    H72     1.084   .     S
C15    C17     1.392   .     A
C16    C22     1.407   .     A
C16    C18     1.416   .     A
C17    C24     1.414   .     A
C17    C19     1.419   .     A
C18    C20     1.413   .     A
C18    C901    1.391   .     S
C19    C21     1.419   .     A
C19    C900    1.391   1_554 S
C20    C33     1.407   .     A
C21    C23     1.410   .     A
C22    N82     1.423   .     S
C22    C905    1.402   .     S
C23    N84     1.426   .     S
C23    C904    1.402   1_554 S
C24    N83     1.426   .     S
C24    C915    1.410   1_554 S
C25    H40     1.110   .     S
C25    H41     1.110   .     S
C25    N82     1.448   .     S
C25    H42     1.111   .     S
C26    N83     1.447   .     S
C26    H45     1.111   .     S
C26    H44     1.111   .     S
C26    H46     1.110   .     S
C27    H48     1.110   .     S
C27    H51     1.111   .     S
C27    N84     1.448   .     S
C27    H49     1.112   .     S
C28    H55     1.108   .     S
C28    H54     1.111   .     S
C28    H53     1.110   .     S
C28    N85     1.450   .     S
C29    H59     1.112   .     S
C29    N86     1.447   .     S
C29    H57     1.110   .     S
C29    H58     1.109   .     S
C30    H64     1.112   .     S
C30    H63     1.105   .     S
C30    H62     1.105   .     S
C30    N87     1.449   .     S
C31    H66     1.110   .     S
C31    H67     1.109   .     S
C31    H68     1.112   .     S
C31    N88     1.446   .     S
C32    H71     1.109   .     S
C32    H73     1.112   .     S
C32    H70     1.107   .     S
C32    N80     1.450   .     S
C33    N85     1.428   .     S
C33    C906    1.410   .     S
C34    H74     1.081   .     S
C34    C232    1.370   1_455 S
C35    H75     1.084   .     S
C35    C38     1.399   .     A
C35    C135    1.374   .     S
C36    H76     1.081   .     S
C36    C38     1.396   .     A
C36    C132    1.370   .     S
C37    H77     1.084   .     S
C37    C231    1.374   1_455 S
H43    N83     1.031   .     S
H47    N84     1.031   .     S
H52    N85     1.030   .     S
H56    N86     1.030   .     S
H60    N87     1.030   .     S
H65    N88     1.030   .     S
H69    N80     1.030   .     S
H78    N82     1.028   .     S
N79    Zn97    2.021   .     S
N81    Zn98    2.021   .     S
O89    Zn97    2.009   .     S
O90    Zn98    2.009   .     S
O91    Zn97    2.010   .     S
O92    Zn98    2.010   .     S
O93    Zn97    2.001   .     S
O94    Zn98    2.001   .     S
O95    Zn97    1.997   .     S
O96    Zn98    1.997   .     S
C99    C100    1.428   .     S
C99    O187    1.288   .     A
C99    O190    1.291   .     A
C100   C132    1.396   .     A
C100   C135    1.399   .     A
C101   N179    1.369   .     A
C101   N184    1.421   .     S
C101   C692    1.436   1_545 S
C102   N185    1.420   .     S
C102   N177    1.373   .     A
C102   C397    1.436   .     S
C103   N186    1.421   .     S
C103   N179    1.369   .     A
C103   C690    1.436   1_545 S
C104   N178    1.421   .     S
C104   N177    1.373   .     A
C104   C395    1.436   .     S
C105   O191    1.288   .     A
C105   O194    1.285   .     A
C105   C111    1.415   .     S
C106   O193    1.286   .     A
C106   O192    1.286   .     A
C106   C109    1.414   .     S
C107   H137    1.085   .     S
C107   C118    1.389   .     A
C107   C109    1.380   .     A
C108   C119    1.387   .     A
C108   H148    1.083   .     S
C108   C111    1.381   .     A
C109   C112    1.385   .     A
C110   O189    1.288   .     A
C110   O188    1.290   .     A
C110   C136    1.428   .     S
C111   C113    1.387   .     A
C112   H159    1.084   .     S
C112   C114    1.391   .     A
C113   H170    1.084   .     S
C113   C115    1.392   .     A
C114   C120    1.407   .     A
C114   C116    1.416   .     A
C115   C122    1.414   .     A
C115   C117    1.419   .     A
C116   C118    1.413   .     A
C116   C999    1.391   .     S
C117   C119    1.419   .     A
C117   C998    1.391   1_554 S
C118   C131    1.407   .     A
C119   C121    1.410   .     A
C120   N180    1.423   .     S
C120   C1003   1.402   .     S
C121   N182    1.426   .     S
C121   C1002   1.402   1_554 S
C122   N181    1.426   .     S
C122   C1013   1.410   1_554 S
C123   H138    1.110   .     S
C123   H139    1.110   .     S
C123   N180    1.448   .     S
C123   H140    1.111   .     S
C124   N181    1.447   .     S
C124   H143    1.111   .     S
C124   H142    1.111   .     S
C124   H144    1.110   .     S
C125   H146    1.110   .     S
C125   H149    1.111   .     S
C125   N182    1.448   .     S
C125   H147    1.112   .     S
C126   H153    1.108   .     S
C126   H152    1.111   .     S
C126   H151    1.110   .     S
C126   N183    1.450   .     S
C127   H157    1.112   .     S
C127   N184    1.447   .     S
C127   H155    1.110   .     S
C127   H156    1.109   .     S
C128   H162    1.112   .     S
C128   H161    1.105   .     S
C128   H160    1.105   .     S
C128   N185    1.449   .     S
C129   H164    1.110   .     S
C129   H165    1.109   .     S
C129   H166    1.112   .     S
C129   N186    1.446   .     S
C130   H169    1.109   .     S
C130   H171    1.112   .     S
C130   H168    1.107   .     S
C130   N178    1.450   .     S
C131   N183    1.428   .     S
C131   C1004   1.410   .     S
C132   H172    1.081   .     S
C133   H173    1.084   .     S
C133   C136    1.399   .     A
C133   C233    1.374   .     S
C134   H174    1.081   .     S
C134   C136    1.396   .     A
C134   C230    1.370   .     S
C135   H175    1.084   .     S
H141   N181    1.031   .     S
H145   N182    1.031   .     S
H150   N183    1.030   .     S
H154   N184    1.030   .     S
H158   N185    1.030   .     S
H163   N186    1.030   .     S
H167   N178    1.030   .     S
H176   N180    1.028   .     S
N177   Zn195   2.021   .     S
N179   Zn196   2.021   .     S
O187   Zn195   2.009   .     S
O188   Zn196   2.009   .     S
O189   Zn195   2.010   .     S
O190   Zn196   2.010   .     S
O191   Zn195   2.001   .     S
O192   Zn196   2.001   .     S
O193   Zn195   1.997   .     S
O194   Zn196   1.997   .     S
C197   C198    1.428   .     S
C197   O285    1.288   .     A
C197   O288    1.291   .     A
C198   C230    1.396   .     A
C198   C233    1.399   .     A
C199   N277    1.369   .     A
C199   N282    1.421   .     S
C199   C790    1.436   1_545 S
C200   N283    1.420   .     S
C200   N275    1.373   .     A
C200   C495    1.436   .     S
C201   N284    1.421   .     S
C201   N277    1.369   .     A
C201   C788    1.436   1_545 S
C202   N276    1.421   .     S
C202   N275    1.373   .     A
C202   C493    1.436   .     S
C203   O289    1.288   .     A
C203   O292    1.285   .     A
C203   C209    1.415   .     S
C204   O291    1.286   .     A
C204   O290    1.286   .     A
C204   C207    1.414   .     S
C205   H235    1.085   .     S
C205   C216    1.389   .     A
C205   C207    1.380   .     A
C206   C217    1.387   .     A
C206   H246    1.083   .     S
C206   C209    1.381   .     A
C207   C210    1.385   .     A
C208   O287    1.288   .     A
C208   O286    1.290   .     A
C208   C234    1.428   .     S
C209   C211    1.387   .     A
C210   H257    1.084   .     S
C210   C212    1.391   .     A
C211   H268    1.084   .     S
C211   C213    1.392   .     A
C212   C218    1.407   .     A
C212   C214    1.416   .     A
C213   C220    1.414   .     A
C213   C215    1.419   .     A
C214   C216    1.413   .     A
C214   C1097   1.391   .     S
C215   C217    1.419   .     A
C215   C1096   1.391   1_554 S
C216   C229    1.407   .     A
C217   C219    1.410   .     A
C218   N278    1.423   .     S
C218   C1101   1.402   .     S
C219   N280    1.426   .     S
C219   C1100   1.402   1_554 S
C220   N279    1.426   .     S
C220   C1111   1.410   1_554 S
C221   H236    1.110   .     S
C221   H237    1.110   .     S
C221   N278    1.448   .     S
C221   H238    1.111   .     S
C222   N279    1.447   .     S
C222   H241    1.111   .     S
C222   H240    1.111   .     S
C222   H242    1.110   .     S
C223   H244    1.110   .     S
C223   H247    1.111   .     S
C223   N280    1.448   .     S
C223   H245    1.112   .     S
C224   H251    1.108   .     S
C224   H250    1.111   .     S
C224   H249    1.110   .     S
C224   N281    1.450   .     S
C225   H255    1.112   .     S
C225   N282    1.447   .     S
C225   H253    1.110   .     S
C225   H254    1.109   .     S
C226   H260    1.112   .     S
C226   H259    1.105   .     S
C226   H258    1.105   .     S
C226   N283    1.449   .     S
C227   H262    1.110   .     S
C227   H263    1.109   .     S
C227   H264    1.112   .     S
C227   N284    1.446   .     S
C228   H267    1.109   .     S
C228   H269    1.112   .     S
C228   H266    1.107   .     S
C228   N276    1.450   .     S
C229   N281    1.428   .     S
C229   C1102   1.410   .     S
C230   H270    1.081   .     S
C231   H271    1.084   .     S
C231   C234    1.399   .     A
C231   C37     1.374   1_655 S
C232   H272    1.081   .     S
C232   C234    1.396   .     A
C232   C34     1.370   1_655 S
C233   H273    1.084   .     S
H239   N279    1.031   .     S
H243   N280    1.031   .     S
H248   N281    1.030   .     S
H252   N282    1.030   .     S
H256   N283    1.030   .     S
H261   N284    1.030   .     S
H265   N276    1.030   .     S
H274   N278    1.028   .     S
N275   Zn293   2.021   .     S
N277   Zn294   2.021   .     S
O285   Zn293   2.009   .     S
O286   Zn294   2.009   .     S
O287   Zn293   2.010   .     S
O288   Zn294   2.010   .     S
O289   Zn293   2.001   .     S
O290   Zn294   2.001   .     S
O291   Zn293   1.997   .     S
O292   Zn294   1.997   .     S
C295   C296    1.428   .     S
C295   O383    1.288   .     A
C295   O386    1.291   .     A
C296   C328    1.396   .     A
C296   C331    1.399   .     A
C297   N375    1.369   .     A
C297   N380    1.421   .     S
C298   N381    1.420   .     S
C298   N373    1.373   .     A
C298   C593    1.436   .     S
C299   N382    1.421   .     S
C299   N375    1.369   .     A
C300   N374    1.421   .     S
C300   N373    1.373   .     A
C300   C591    1.436   .     S
C301   O387    1.288   .     A
C301   O390    1.285   .     A
C301   C307    1.415   .     S
C302   O389    1.286   .     A
C302   O388    1.286   .     A
C302   C305    1.414   .     S
C303   H333    1.085   .     S
C303   C314    1.389   .     A
C303   C305    1.380   .     A
C304   C315    1.387   .     A
C304   H344    1.083   .     S
C304   C307    1.381   .     A
C305   C308    1.385   .     A
C306   O385    1.288   .     A
C306   O384    1.290   .     A
C306   C332    1.428   .     S
C307   C309    1.387   .     A
C308   H355    1.084   .     S
C308   C310    1.391   .     A
C309   H366    1.084   .     S
C309   C311    1.392   .     A
C310   C316    1.407   .     A
C310   C312    1.416   .     A
C311   C318    1.414   .     A
C311   C313    1.419   .     A
C312   C314    1.413   .     A
C312   C1195   1.391   .     S
C313   C315    1.419   .     A
C313   C1194   1.391   1_554 S
C314   C327    1.407   .     A
C315   C317    1.410   .     A
C316   N376    1.423   .     S
C316   C1199   1.402   .     S
C317   N378    1.426   .     S
C317   C1198   1.402   1_554 S
C318   N377    1.426   .     S
C318   C1209   1.410   1_554 S
C319   H334    1.110   .     S
C319   H335    1.110   .     S
C319   N376    1.448   .     S
C319   H336    1.111   .     S
C320   N377    1.447   .     S
C320   H339    1.111   .     S
C320   H338    1.111   .     S
C320   H340    1.110   .     S
C321   H342    1.110   .     S
C321   H345    1.111   .     S
C321   N378    1.448   .     S
C321   H343    1.112   .     S
C322   H349    1.108   .     S
C322   H348    1.111   .     S
C322   H347    1.110   .     S
C322   N379    1.450   .     S
C323   H353    1.112   .     S
C323   N380    1.447   .     S
C323   H351    1.110   .     S
C323   H352    1.109   .     S
C324   H358    1.112   .     S
C324   H357    1.105   .     S
C324   H356    1.105   .     S
C324   N381    1.449   .     S
C325   H360    1.110   .     S
C325   H361    1.109   .     S
C325   H362    1.112   .     S
C325   N382    1.446   .     S
C326   H365    1.109   .     S
C326   H367    1.112   .     S
C326   H364    1.107   .     S
C326   N374    1.450   .     S
C327   N379    1.428   .     S
C327   C1200   1.410   .     S
C328   H368    1.081   .     S
C328   C526    1.370   1_455 S
C329   H369    1.084   .     S
C329   C332    1.399   .     A
C329   C429    1.374   .     S
C330   H370    1.081   .     S
C330   C332    1.396   .     A
C330   C426    1.370   .     S
C331   H371    1.084   .     S
C331   C525    1.374   1_455 S
H337   N377    1.031   .     S
H341   N378    1.031   .     S
H346   N379    1.030   .     S
H350   N380    1.030   .     S
H354   N381    1.030   .     S
H359   N382    1.030   .     S
H363   N374    1.030   .     S
H372   N376    1.028   .     S
N373   Zn391   2.021   .     S
N375   Zn392   2.021   .     S
O383   Zn391   2.009   .     S
O384   Zn392   2.009   .     S
O385   Zn391   2.010   .     S
O386   Zn392   2.010   .     S
O387   Zn391   2.001   .     S
O388   Zn392   2.001   .     S
O389   Zn391   1.997   .     S
O390   Zn392   1.997   .     S
C393   C394    1.428   .     S
C393   O481    1.288   .     A
C393   O484    1.291   .     A
C394   C426    1.396   .     A
C394   C429    1.399   .     A
C395   N473    1.369   .     A
C395   N478    1.421   .     S
C396   N479    1.420   .     S
C396   N471    1.373   .     A
C396   C691    1.436   .     S
C397   N480    1.421   .     S
C397   N473    1.369   .     A
C398   N472    1.421   .     S
C398   N471    1.373   .     A
C398   C689    1.436   .     S
C399   O485    1.288   .     A
C399   O488    1.285   .     A
C399   C405    1.415   .     S
C400   O487    1.286   .     A
C400   O486    1.286   .     A
C400   C403    1.414   .     S
C401   H431    1.085   .     S
C401   C412    1.389   .     A
C401   C403    1.380   .     A
C402   C413    1.387   .     A
C402   H442    1.083   .     S
C402   C405    1.381   .     A
C403   C406    1.385   .     A
C404   O483    1.288   .     A
C404   O482    1.290   .     A
C404   C430    1.428   .     S
C405   C407    1.387   .     A
C406   H453    1.084   .     S
C406   C408    1.391   .     A
C407   H464    1.084   .     S
C407   C409    1.392   .     A
C408   C414    1.407   .     A
C408   C410    1.416   .     A
C409   C416    1.414   .     A
C409   C411    1.419   .     A
C410   C412    1.413   .     A
C410   C1293   1.391   .     S
C411   C413    1.419   .     A
C411   C1292   1.391   1_554 S
C412   C425    1.407   .     A
C413   C415    1.410   .     A
C414   N474    1.423   .     S
C414   C1297   1.402   .     S
C415   N476    1.426   .     S
C415   C1296   1.402   1_554 S
C416   N475    1.426   .     S
C416   C1307   1.410   1_554 S
C417   H432    1.110   .     S
C417   H433    1.110   .     S
C417   N474    1.448   .     S
C417   H434    1.111   .     S
C418   N475    1.447   .     S
C418   H437    1.111   .     S
C418   H436    1.111   .     S
C418   H438    1.110   .     S
C419   H440    1.110   .     S
C419   H443    1.111   .     S
C419   N476    1.448   .     S
C419   H441    1.112   .     S
C420   H447    1.108   .     S
C420   H446    1.111   .     S
C420   H445    1.110   .     S
C420   N477    1.450   .     S
C421   H451    1.112   .     S
C421   N478    1.447   .     S
C421   H449    1.110   .     S
C421   H450    1.109   .     S
C422   H456    1.112   .     S
C422   H455    1.105   .     S
C422   H454    1.105   .     S
C422   N479    1.449   .     S
C423   H458    1.110   .     S
C423   H459    1.109   .     S
C423   H460    1.112   .     S
C423   N480    1.446   .     S
C424   H463    1.109   .     S
C424   H465    1.112   .     S
C424   H462    1.107   .     S
C424   N472    1.450   .     S
C425   N477    1.428   .     S
C425   C1298   1.410   .     S
C426   H466    1.081   .     S
C427   H467    1.084   .     S
C427   C430    1.399   .     A
C427   C527    1.374   .     S
C428   H468    1.081   .     S
C428   C430    1.396   .     A
C428   C524    1.370   .     S
C429   H469    1.084   .     S
H435   N475    1.031   .     S
H439   N476    1.031   .     S
H444   N477    1.030   .     S
H448   N478    1.030   .     S
H452   N479    1.030   .     S
H457   N480    1.030   .     S
H461   N472    1.030   .     S
H470   N474    1.028   .     S
N471   Zn489   2.021   .     S
N473   Zn490   2.021   .     S
O481   Zn489   2.009   .     S
O482   Zn490   2.009   .     S
O483   Zn489   2.010   .     S
O484   Zn490   2.010   .     S
O485   Zn489   2.001   .     S
O486   Zn490   2.001   .     S
O487   Zn489   1.997   .     S
O488   Zn490   1.997   .     S
C491   C492    1.428   .     S
C491   O579    1.288   .     A
C491   O582    1.291   .     A
C492   C524    1.396   .     A
C492   C527    1.399   .     A
C493   N571    1.369   .     A
C493   N576    1.421   .     S
C494   N577    1.420   .     S
C494   N569    1.373   .     A
C494   C789    1.436   .     S
C495   N578    1.421   .     S
C495   N571    1.369   .     A
C496   N570    1.421   .     S
C496   N569    1.373   .     A
C496   C787    1.436   .     S
C497   O583    1.288   .     A
C497   O586    1.285   .     A
C497   C503    1.415   .     S
C498   O585    1.286   .     A
C498   O584    1.286   .     A
C498   C501    1.414   .     S
C499   H529    1.085   .     S
C499   C510    1.389   .     A
C499   C501    1.380   .     A
C500   C511    1.387   .     A
C500   H540    1.083   .     S
C500   C503    1.381   .     A
C501   C504    1.385   .     A
C502   O581    1.288   .     A
C502   O580    1.290   .     A
C502   C528    1.428   .     S
C503   C505    1.387   .     A
C504   H551    1.084   .     S
C504   C506    1.391   .     A
C505   H562    1.084   .     S
C505   C507    1.392   .     A
C506   C512    1.407   .     A
C506   C508    1.416   .     A
C507   C514    1.414   .     A
C507   C509    1.419   .     A
C508   C510    1.413   .     A
C508   C1391   1.391   .     S
C509   C511    1.419   .     A
C509   C1390   1.391   1_554 S
C510   C523    1.407   .     A
C511   C513    1.410   .     A
C512   N572    1.423   .     S
C512   C1395   1.402   .     S
C513   N574    1.426   .     S
C513   C1394   1.402   1_554 S
C514   N573    1.426   .     S
C514   C1405   1.410   1_554 S
C515   H530    1.110   .     S
C515   H531    1.110   .     S
C515   N572    1.448   .     S
C515   H532    1.111   .     S
C516   N573    1.447   .     S
C516   H535    1.111   .     S
C516   H534    1.111   .     S
C516   H536    1.110   .     S
C517   H538    1.110   .     S
C517   H541    1.111   .     S
C517   N574    1.448   .     S
C517   H539    1.112   .     S
C518   H545    1.108   .     S
C518   H544    1.111   .     S
C518   H543    1.110   .     S
C518   N575    1.450   .     S
C519   H549    1.112   .     S
C519   N576    1.447   .     S
C519   H547    1.110   .     S
C519   H548    1.109   .     S
C520   H554    1.112   .     S
C520   H553    1.105   .     S
C520   H552    1.105   .     S
C520   N577    1.449   .     S
C521   H556    1.110   .     S
C521   H557    1.109   .     S
C521   H558    1.112   .     S
C521   N578    1.446   .     S
C522   H561    1.109   .     S
C522   H563    1.112   .     S
C522   H560    1.107   .     S
C522   N570    1.450   .     S
C523   N575    1.428   .     S
C523   C1396   1.410   .     S
C524   H564    1.081   .     S
C525   H565    1.084   .     S
C525   C528    1.399   .     A
C525   C331    1.374   1_655 S
C526   H566    1.081   .     S
C526   C528    1.396   .     A
C526   C328    1.370   1_655 S
C527   H567    1.084   .     S
H533   N573    1.031   .     S
H537   N574    1.031   .     S
H542   N575    1.030   .     S
H546   N576    1.030   .     S
H550   N577    1.030   .     S
H555   N578    1.030   .     S
H559   N570    1.030   .     S
H568   N572    1.028   .     S
N569   Zn587   2.021   .     S
N571   Zn588   2.021   .     S
O579   Zn587   2.009   .     S
O580   Zn588   2.009   .     S
O581   Zn587   2.010   .     S
O582   Zn588   2.010   .     S
O583   Zn587   2.001   .     S
O584   Zn588   2.001   .     S
O585   Zn587   1.997   .     S
O586   Zn588   1.997   .     S
C589   C590    1.428   .     S
C589   O677    1.288   .     A
C589   O680    1.291   .     A
C590   C622    1.396   .     A
C590   C625    1.399   .     A
C591   N669    1.369   .     A
C591   N674    1.421   .     S
C592   N675    1.420   .     S
C592   N667    1.373   .     A
C592   C5      1.436   1_565 S
C593   N676    1.421   .     S
C593   N669    1.369   .     A
C594   N668    1.421   .     S
C594   N667    1.373   .     A
C594   C3      1.436   1_565 S
C595   O681    1.288   .     A
C595   O684    1.285   .     A
C595   C601    1.415   .     S
C596   O683    1.286   .     A
C596   O682    1.286   .     A
C596   C599    1.414   .     S
C597   H627    1.085   .     S
C597   C608    1.389   .     A
C597   C599    1.380   .     A
C598   C609    1.387   .     A
C598   H638    1.083   .     S
C598   C601    1.381   .     A
C599   C602    1.385   .     A
C600   O679    1.288   .     A
C600   O678    1.290   .     A
C600   C626    1.428   .     S
C601   C603    1.387   .     A
C602   H649    1.084   .     S
C602   C604    1.391   .     A
C603   H660    1.084   .     S
C603   C605    1.392   .     A
C604   C610    1.407   .     A
C604   C606    1.416   .     A
C605   C612    1.414   .     A
C605   C607    1.419   .     A
C606   C608    1.413   .     A
C606   C1489   1.391   .     S
C607   C609    1.419   .     A
C607   C1488   1.391   1_554 S
C608   C621    1.407   .     A
C609   C611    1.410   .     A
C610   N670    1.423   .     S
C610   C1493   1.402   .     S
C611   N672    1.426   .     S
C611   C1492   1.402   1_554 S
C612   N671    1.426   .     S
C612   C1503   1.410   1_554 S
C613   H628    1.110   .     S
C613   H629    1.110   .     S
C613   N670    1.448   .     S
C613   H630    1.111   .     S
C614   N671    1.447   .     S
C614   H633    1.111   .     S
C614   H632    1.111   .     S
C614   H634    1.110   .     S
C615   H636    1.110   .     S
C615   H639    1.111   .     S
C615   N672    1.448   .     S
C615   H637    1.112   .     S
C616   H643    1.108   .     S
C616   H642    1.111   .     S
C616   H641    1.110   .     S
C616   N673    1.450   .     S
C617   H647    1.112   .     S
C617   N674    1.447   .     S
C617   H645    1.110   .     S
C617   H646    1.109   .     S
C618   H652    1.112   .     S
C618   H651    1.105   .     S
C618   H650    1.105   .     S
C618   N675    1.449   .     S
C619   H654    1.110   .     S
C619   H655    1.109   .     S
C619   H656    1.112   .     S
C619   N676    1.446   .     S
C620   H659    1.109   .     S
C620   H661    1.112   .     S
C620   H658    1.107   .     S
C620   N668    1.450   .     S
C621   N673    1.428   .     S
C621   C1494   1.410   .     S
C622   H662    1.081   .     S
C622   C820    1.370   1_455 S
C623   H663    1.084   .     S
C623   C626    1.399   .     A
C623   C723    1.374   .     S
C624   H664    1.081   .     S
C624   C626    1.396   .     A
C624   C720    1.370   .     S
C625   H665    1.084   .     S
C625   C819    1.374   1_455 S
H631   N671    1.031   .     S
H635   N672    1.031   .     S
H640   N673    1.030   .     S
H644   N674    1.030   .     S
H648   N675    1.030   .     S
H653   N676    1.030   .     S
H657   N668    1.030   .     S
H666   N670    1.028   .     S
N667   Zn685   2.021   .     S
N669   Zn686   2.021   .     S
O677   Zn685   2.009   .     S
O678   Zn686   2.009   .     S
O679   Zn685   2.010   .     S
O680   Zn686   2.010   .     S
O681   Zn685   2.001   .     S
O682   Zn686   2.001   .     S
O683   Zn685   1.997   .     S
O684   Zn686   1.997   .     S
C687   C688    1.428   .     S
C687   O775    1.288   .     A
C687   O778    1.291   .     A
C688   C720    1.396   .     A
C688   C723    1.399   .     A
C689   N767    1.369   .     A
C689   N772    1.421   .     S
C690   N773    1.420   .     S
C690   N765    1.373   .     A
C690   C103    1.436   1_565 S
C691   N774    1.421   .     S
C691   N767    1.369   .     A
C692   N766    1.421   .     S
C692   N765    1.373   .     A
C692   C101    1.436   1_565 S
C693   O779    1.288   .     A
C693   O782    1.285   .     A
C693   C699    1.415   .     S
C694   O781    1.286   .     A
C694   O780    1.286   .     A
C694   C697    1.414   .     S
C695   H725    1.085   .     S
C695   C706    1.389   .     A
C695   C697    1.380   .     A
C696   C707    1.387   .     A
C696   H736    1.083   .     S
C696   C699    1.381   .     A
C697   C700    1.385   .     A
C698   O777    1.288   .     A
C698   O776    1.290   .     A
C698   C724    1.428   .     S
C699   C701    1.387   .     A
C700   H747    1.084   .     S
C700   C702    1.391   .     A
C701   H758    1.084   .     S
C701   C703    1.392   .     A
C702   C708    1.407   .     A
C702   C704    1.416   .     A
C703   C710    1.414   .     A
C703   C705    1.419   .     A
C704   C706    1.413   .     A
C704   C1587   1.391   .     S
C705   C707    1.419   .     A
C705   C1586   1.391   1_554 S
C706   C719    1.407   .     A
C707   C709    1.410   .     A
C708   N768    1.423   .     S
C708   C1591   1.402   .     S
C709   N770    1.426   .     S
C709   C1590   1.402   1_554 S
C710   N769    1.426   .     S
C710   C1601   1.410   1_554 S
C711   H726    1.110   .     S
C711   H727    1.110   .     S
C711   N768    1.448   .     S
C711   H728    1.111   .     S
C712   N769    1.447   .     S
C712   H731    1.111   .     S
C712   H730    1.111   .     S
C712   H732    1.110   .     S
C713   H734    1.110   .     S
C713   H737    1.111   .     S
C713   N770    1.448   .     S
C713   H735    1.112   .     S
C714   H741    1.108   .     S
C714   H740    1.111   .     S
C714   H739    1.110   .     S
C714   N771    1.450   .     S
C715   H745    1.112   .     S
C715   N772    1.447   .     S
C715   H743    1.110   .     S
C715   H744    1.109   .     S
C716   H750    1.112   .     S
C716   H749    1.105   .     S
C716   H748    1.105   .     S
C716   N773    1.449   .     S
C717   H752    1.110   .     S
C717   H753    1.109   .     S
C717   H754    1.112   .     S
C717   N774    1.446   .     S
C718   H757    1.109   .     S
C718   H759    1.112   .     S
C718   H756    1.107   .     S
C718   N766    1.450   .     S
C719   N771    1.428   .     S
C719   C1592   1.410   .     S
C720   H760    1.081   .     S
C721   H761    1.084   .     S
C721   C724    1.399   .     A
C721   C821    1.374   .     S
C722   H762    1.081   .     S
C722   C724    1.396   .     A
C722   C818    1.370   .     S
C723   H763    1.084   .     S
H729   N769    1.031   .     S
H733   N770    1.031   .     S
H738   N771    1.030   .     S
H742   N772    1.030   .     S
H746   N773    1.030   .     S
H751   N774    1.030   .     S
H755   N766    1.030   .     S
H764   N768    1.028   .     S
N765   Zn783   2.021   .     S
N767   Zn784   2.021   .     S
O775   Zn783   2.009   .     S
O776   Zn784   2.009   .     S
O777   Zn783   2.010   .     S
O778   Zn784   2.010   .     S
O779   Zn783   2.001   .     S
O780   Zn784   2.001   .     S
O781   Zn783   1.997   .     S
O782   Zn784   1.997   .     S
C785   C786    1.428   .     S
C785   O873    1.288   .     A
C785   O876    1.291   .     A
C786   C818    1.396   .     A
C786   C821    1.399   .     A
C787   N865    1.369   .     A
C787   N870    1.421   .     S
C788   N871    1.420   .     S
C788   N863    1.373   .     A
C788   C201    1.436   1_565 S
C789   N872    1.421   .     S
C789   N865    1.369   .     A
C790   N864    1.421   .     S
C790   N863    1.373   .     A
C790   C199    1.436   1_565 S
C791   O877    1.288   .     A
C791   O880    1.285   .     A
C791   C797    1.415   .     S
C792   O879    1.286   .     A
C792   O878    1.286   .     A
C792   C795    1.414   .     S
C793   H823    1.085   .     S
C793   C804    1.389   .     A
C793   C795    1.380   .     A
C794   C805    1.387   .     A
C794   H834    1.083   .     S
C794   C797    1.381   .     A
C795   C798    1.385   .     A
C796   O875    1.288   .     A
C796   O874    1.290   .     A
C796   C822    1.428   .     S
C797   C799    1.387   .     A
C798   H845    1.084   .     S
C798   C800    1.391   .     A
C799   H856    1.084   .     S
C799   C801    1.392   .     A
C800   C806    1.407   .     A
C800   C802    1.416   .     A
C801   C808    1.414   .     A
C801   C803    1.419   .     A
C802   C804    1.413   .     A
C802   C1685   1.391   .     S
C803   C805    1.419   .     A
C803   C1684   1.391   1_554 S
C804   C817    1.407   .     A
C805   C807    1.410   .     A
C806   N866    1.423   .     S
C806   C1689   1.402   .     S
C807   N868    1.426   .     S
C807   C1688   1.402   1_554 S
C808   N867    1.426   .     S
C808   C1699   1.410   1_554 S
C809   H824    1.110   .     S
C809   H825    1.110   .     S
C809   N866    1.448   .     S
C809   H826    1.111   .     S
C810   N867    1.447   .     S
C810   H829    1.111   .     S
C810   H828    1.111   .     S
C810   H830    1.110   .     S
C811   H832    1.110   .     S
C811   H835    1.111   .     S
C811   N868    1.448   .     S
C811   H833    1.112   .     S
C812   H839    1.108   .     S
C812   H838    1.111   .     S
C812   H837    1.110   .     S
C812   N869    1.450   .     S
C813   H843    1.112   .     S
C813   N870    1.447   .     S
C813   H841    1.110   .     S
C813   H842    1.109   .     S
C814   H848    1.112   .     S
C814   H847    1.105   .     S
C814   H846    1.105   .     S
C814   N871    1.449   .     S
C815   H850    1.110   .     S
C815   H851    1.109   .     S
C815   H852    1.112   .     S
C815   N872    1.446   .     S
C816   H855    1.109   .     S
C816   H857    1.112   .     S
C816   H854    1.107   .     S
C816   N864    1.450   .     S
C817   N869    1.428   .     S
C817   C1690   1.410   .     S
C818   H858    1.081   .     S
C819   H859    1.084   .     S
C819   C822    1.399   .     A
C819   C625    1.374   1_655 S
C820   H860    1.081   .     S
C820   C822    1.396   .     A
C820   C622    1.370   1_655 S
C821   H861    1.084   .     S
H827   N867    1.031   .     S
H831   N868    1.031   .     S
H836   N869    1.030   .     S
H840   N870    1.030   .     S
H844   N871    1.030   .     S
H849   N872    1.030   .     S
H853   N864    1.030   .     S
H862   N866    1.028   .     S
N863   Zn881   2.021   .     S
N865   Zn882   2.021   .     S
O873   Zn881   2.009   .     S
O874   Zn882   2.009   .     S
O875   Zn881   2.010   .     S
O876   Zn882   2.010   .     S
O877   Zn881   2.001   .     S
O878   Zn882   2.001   .     S
O879   Zn881   1.997   .     S
O880   Zn882   1.997   .     S
C883   C884    1.428   .     S
C883   O971    1.288   .     A
C883   O974    1.291   .     A
C884   C916    1.396   .     A
C884   C919    1.399   .     A
C885   N963    1.369   .     A
C885   N968    1.421   .     S
C885   C1476   1.436   1_545 S
C886   N969    1.420   .     S
C886   N961    1.373   .     A
C886   C1181   1.436   .     S
C887   N970    1.421   .     S
C887   N963    1.369   .     A
C887   C1474   1.436   1_545 S
C888   N962    1.421   .     S
C888   N961    1.373   .     A
C888   C1179   1.436   .     S
C889   O975    1.288   .     A
C889   O978    1.285   .     A
C889   C895    1.415   .     S
C890   O977    1.286   .     A
C890   O976    1.286   .     A
C890   C893    1.414   .     S
C891   H921    1.085   .     S
C891   C902    1.389   .     A
C891   C893    1.380   .     A
C892   C903    1.387   .     A
C892   H932    1.083   .     S
C892   C895    1.381   .     A
C893   C896    1.385   .     A
C894   O973    1.288   .     A
C894   O972    1.290   .     A
C894   C920    1.428   .     S
C895   C897    1.387   .     A
C896   H943    1.084   .     S
C896   C898    1.391   .     A
C897   H954    1.084   .     S
C897   C899    1.392   .     A
C898   C904    1.407   .     A
C898   C900    1.416   .     A
C899   C906    1.414   .     A
C899   C901    1.419   .     A
C900   C902    1.413   .     A
C900   C19     1.391   1_556 S
C901   C903    1.419   .     A
C902   C915    1.407   .     A
C903   C905    1.410   .     A
C904   N964    1.423   .     S
C904   C23     1.402   1_556 S
C905   N966    1.426   .     S
C906   N965    1.426   .     S
C907   H922    1.110   .     S
C907   H923    1.110   .     S
C907   N964    1.448   .     S
C907   H924    1.111   .     S
C908   N965    1.447   .     S
C908   H927    1.111   .     S
C908   H926    1.111   .     S
C908   H928    1.110   .     S
C909   H930    1.110   .     S
C909   H933    1.111   .     S
C909   N966    1.448   .     S
C909   H931    1.112   .     S
C910   H937    1.108   .     S
C910   H936    1.111   .     S
C910   H935    1.110   .     S
C910   N967    1.450   .     S
C911   H941    1.112   .     S
C911   N968    1.447   .     S
C911   H939    1.110   .     S
C911   H940    1.109   .     S
C912   H946    1.112   .     S
C912   H945    1.105   .     S
C912   H944    1.105   .     S
C912   N969    1.449   .     S
C913   H948    1.110   .     S
C913   H949    1.109   .     S
C913   H950    1.112   .     S
C913   N970    1.446   .     S
C914   H953    1.109   .     S
C914   H955    1.112   .     S
C914   H952    1.107   .     S
C914   N962    1.450   .     S
C915   N967    1.428   .     S
C915   C24     1.410   1_556 S
C916   H956    1.081   .     S
C916   C1114   1.370   1_455 S
C917   H957    1.084   .     S
C917   C920    1.399   .     A
C917   C1017   1.374   .     S
C918   H958    1.081   .     S
C918   C920    1.396   .     A
C918   C1014   1.370   .     S
C919   H959    1.084   .     S
C919   C1113   1.374   1_455 S
H925   N965    1.031   .     S
H929   N966    1.031   .     S
H934   N967    1.030   .     S
H938   N968    1.030   .     S
H942   N969    1.030   .     S
H947   N970    1.030   .     S
H951   N962    1.030   .     S
H960   N964    1.028   .     S
N961   Zn979   2.021   .     S
N963   Zn980   2.021   .     S
O971   Zn979   2.009   .     S
O972   Zn980   2.009   .     S
O973   Zn979   2.010   .     S
O974   Zn980   2.010   .     S
O975   Zn979   2.001   .     S
O976   Zn980   2.001   .     S
O977   Zn979   1.997   .     S
O978   Zn980   1.997   .     S
C981   C982    1.428   .     S
C981   O1069   1.288   .     A
C981   O1072   1.291   .     A
C982   C1014   1.396   .     A
C982   C1017   1.399   .     A
C983   N1061   1.369   .     A
C983   N1066   1.421   .     S
C983   C1574   1.436   1_545 S
C984   N1067   1.420   .     S
C984   N1059   1.373   .     A
C984   C1279   1.436   .     S
C985   N1068   1.421   .     S
C985   N1061   1.369   .     A
C985   C1572   1.436   1_545 S
C986   N1060   1.421   .     S
C986   N1059   1.373   .     A
C986   C1277   1.436   .     S
C987   O1073   1.288   .     A
C987   O1076   1.285   .     A
C987   C993    1.415   .     S
C988   O1075   1.286   .     A
C988   O1074   1.286   .     A
C988   C991    1.414   .     S
C989   H1019   1.085   .     S
C989   C1000   1.389   .     A
C989   C991    1.380   .     A
C990   C1001   1.387   .     A
C990   H1030   1.083   .     S
C990   C993    1.381   .     A
C991   C994    1.385   .     A
C992   O1071   1.288   .     A
C992   O1070   1.290   .     A
C992   C1018   1.428   .     S
C993   C995    1.387   .     A
C994   H1041   1.084   .     S
C994   C996    1.391   .     A
C995   H1052   1.084   .     S
C995   C997    1.392   .     A
C996   C1002   1.407   .     A
C996   C998    1.416   .     A
C997   C1004   1.414   .     A
C997   C999    1.419   .     A
C998   C1000   1.413   .     A
C998   C117    1.391   1_556 S
C999   C1001   1.419   .     A
C1000  C1013   1.407   .     A
C1001  C1003   1.410   .     A
C1002  N1062   1.423   .     S
C1002  C121    1.402   1_556 S
C1003  N1064   1.426   .     S
C1004  N1063   1.426   .     S
C1005  H1020   1.110   .     S
C1005  H1021   1.110   .     S
C1005  N1062   1.448   .     S
C1005  H1022   1.111   .     S
C1006  N1063   1.447   .     S
C1006  H1025   1.111   .     S
C1006  H1024   1.111   .     S
C1006  H1026   1.110   .     S
C1007  H1028   1.110   .     S
C1007  H1031   1.111   .     S
C1007  N1064   1.448   .     S
C1007  H1029   1.112   .     S
C1008  H1035   1.108   .     S
C1008  H1034   1.111   .     S
C1008  H1033   1.110   .     S
C1008  N1065   1.450   .     S
C1009  H1039   1.112   .     S
C1009  N1066   1.447   .     S
C1009  H1037   1.110   .     S
C1009  H1038   1.109   .     S
C1010  H1044   1.112   .     S
C1010  H1043   1.105   .     S
C1010  H1042   1.105   .     S
C1010  N1067   1.449   .     S
C1011  H1046   1.110   .     S
C1011  H1047   1.109   .     S
C1011  H1048   1.112   .     S
C1011  N1068   1.446   .     S
C1012  H1051   1.109   .     S
C1012  H1053   1.112   .     S
C1012  H1050   1.107   .     S
C1012  N1060   1.450   .     S
C1013  N1065   1.428   .     S
C1013  C122    1.410   1_556 S
C1014  H1054   1.081   .     S
C1015  H1055   1.084   .     S
C1015  C1018   1.399   .     A
C1015  C1115   1.374   .     S
C1016  H1056   1.081   .     S
C1016  C1018   1.396   .     A
C1016  C1112   1.370   .     S
C1017  H1057   1.084   .     S
H1023  N1063   1.031   .     S
H1027  N1064   1.031   .     S
H1032  N1065   1.030   .     S
H1036  N1066   1.030   .     S
H1040  N1067   1.030   .     S
H1045  N1068   1.030   .     S
H1049  N1060   1.030   .     S
H1058  N1062   1.028   .     S
N1059  Zn1077  2.021   .     S
N1061  Zn1078  2.021   .     S
O1069  Zn1077  2.009   .     S
O1070  Zn1078  2.009   .     S
O1071  Zn1077  2.010   .     S
O1072  Zn1078  2.010   .     S
O1073  Zn1077  2.001   .     S
O1074  Zn1078  2.001   .     S
O1075  Zn1077  1.997   .     S
O1076  Zn1078  1.997   .     S
C1079  C1080   1.428   .     S
C1079  O1167   1.288   .     A
C1079  O1170   1.291   .     A
C1080  C1112   1.396   .     A
C1080  C1115   1.399   .     A
C1081  N1159   1.369   .     A
C1081  N1164   1.421   .     S
C1081  C1672   1.436   1_545 S
C1082  N1165   1.420   .     S
C1082  N1157   1.373   .     A
C1082  C1377   1.436   .     S
C1083  N1166   1.421   .     S
C1083  N1159   1.369   .     A
C1083  C1670   1.436   1_545 S
C1084  N1158   1.421   .     S
C1084  N1157   1.373   .     A
C1084  C1375   1.436   .     S
C1085  O1171   1.288   .     A
C1085  O1174   1.285   .     A
C1085  C1091   1.415   .     S
C1086  O1173   1.286   .     A
C1086  O1172   1.286   .     A
C1086  C1089   1.414   .     S
C1087  H1117   1.085   .     S
C1087  C1098   1.389   .     A
C1087  C1089   1.380   .     A
C1088  C1099   1.387   .     A
C1088  H1128   1.083   .     S
C1088  C1091   1.381   .     A
C1089  C1092   1.385   .     A
C1090  O1169   1.288   .     A
C1090  O1168   1.290   .     A
C1090  C1116   1.428   .     S
C1091  C1093   1.387   .     A
C1092  H1139   1.084   .     S
C1092  C1094   1.391   .     A
C1093  H1150   1.084   .     S
C1093  C1095   1.392   .     A
C1094  C1100   1.407   .     A
C1094  C1096   1.416   .     A
C1095  C1102   1.414   .     A
C1095  C1097   1.419   .     A
C1096  C1098   1.413   .     A
C1096  C215    1.391   1_556 S
C1097  C1099   1.419   .     A
C1098  C1111   1.407   .     A
C1099  C1101   1.410   .     A
C1100  N1160   1.423   .     S
C1100  C219    1.402   1_556 S
C1101  N1162   1.426   .     S
C1102  N1161   1.426   .     S
C1103  H1118   1.110   .     S
C1103  H1119   1.110   .     S
C1103  N1160   1.448   .     S
C1103  H1120   1.111   .     S
C1104  N1161   1.447   .     S
C1104  H1123   1.111   .     S
C1104  H1122   1.111   .     S
C1104  H1124   1.110   .     S
C1105  H1126   1.110   .     S
C1105  H1129   1.111   .     S
C1105  N1162   1.448   .     S
C1105  H1127   1.112   .     S
C1106  H1133   1.108   .     S
C1106  H1132   1.111   .     S
C1106  H1131   1.110   .     S
C1106  N1163   1.450   .     S
C1107  H1137   1.112   .     S
C1107  N1164   1.447   .     S
C1107  H1135   1.110   .     S
C1107  H1136   1.109   .     S
C1108  H1142   1.112   .     S
C1108  H1141   1.105   .     S
C1108  H1140   1.105   .     S
C1108  N1165   1.449   .     S
C1109  H1144   1.110   .     S
C1109  H1145   1.109   .     S
C1109  H1146   1.112   .     S
C1109  N1166   1.446   .     S
C1110  H1149   1.109   .     S
C1110  H1151   1.112   .     S
C1110  H1148   1.107   .     S
C1110  N1158   1.450   .     S
C1111  N1163   1.428   .     S
C1111  C220    1.410   1_556 S
C1112  H1152   1.081   .     S
C1113  H1153   1.084   .     S
C1113  C1116   1.399   .     A
C1113  C919    1.374   1_655 S
C1114  H1154   1.081   .     S
C1114  C1116   1.396   .     A
C1114  C916    1.370   1_655 S
C1115  H1155   1.084   .     S
H1121  N1161   1.031   .     S
H1125  N1162   1.031   .     S
H1130  N1163   1.030   .     S
H1134  N1164   1.030   .     S
H1138  N1165   1.030   .     S
H1143  N1166   1.030   .     S
H1147  N1158   1.030   .     S
H1156  N1160   1.028   .     S
N1157  Zn1175  2.021   .     S
N1159  Zn1176  2.021   .     S
O1167  Zn1175  2.009   .     S
O1168  Zn1176  2.009   .     S
O1169  Zn1175  2.010   .     S
O1170  Zn1176  2.010   .     S
O1171  Zn1175  2.001   .     S
O1172  Zn1176  2.001   .     S
O1173  Zn1175  1.997   .     S
O1174  Zn1176  1.997   .     S
C1177  C1178   1.428   .     S
C1177  O1265   1.288   .     A
C1177  O1268   1.291   .     A
C1178  C1210   1.396   .     A
C1178  C1213   1.399   .     A
C1179  N1257   1.369   .     A
C1179  N1262   1.421   .     S
C1180  N1263   1.420   .     S
C1180  N1255   1.373   .     A
C1180  C1475   1.436   .     S
C1181  N1264   1.421   .     S
C1181  N1257   1.369   .     A
C1182  N1256   1.421   .     S
C1182  N1255   1.373   .     A
C1182  C1473   1.436   .     S
C1183  O1269   1.288   .     A
C1183  O1272   1.285   .     A
C1183  C1189   1.415   .     S
C1184  O1271   1.286   .     A
C1184  O1270   1.286   .     A
C1184  C1187   1.414   .     S
C1185  H1215   1.085   .     S
C1185  C1196   1.389   .     A
C1185  C1187   1.380   .     A
C1186  C1197   1.387   .     A
C1186  H1226   1.083   .     S
C1186  C1189   1.381   .     A
C1187  C1190   1.385   .     A
C1188  O1267   1.288   .     A
C1188  O1266   1.290   .     A
C1188  C1214   1.428   .     S
C1189  C1191   1.387   .     A
C1190  H1237   1.084   .     S
C1190  C1192   1.391   .     A
C1191  H1248   1.084   .     S
C1191  C1193   1.392   .     A
C1192  C1198   1.407   .     A
C1192  C1194   1.416   .     A
C1193  C1200   1.414   .     A
C1193  C1195   1.419   .     A
C1194  C1196   1.413   .     A
C1194  C313    1.391   1_556 S
C1195  C1197   1.419   .     A
C1196  C1209   1.407   .     A
C1197  C1199   1.410   .     A
C1198  N1258   1.423   .     S
C1198  C317    1.402   1_556 S
C1199  N1260   1.426   .     S
C1200  N1259   1.426   .     S
C1201  H1216   1.110   .     S
C1201  H1217   1.110   .     S
C1201  N1258   1.448   .     S
C1201  H1218   1.111   .     S
C1202  N1259   1.447   .     S
C1202  H1221   1.111   .     S
C1202  H1220   1.111   .     S
C1202  H1222   1.110   .     S
C1203  H1224   1.110   .     S
C1203  H1227   1.111   .     S
C1203  N1260   1.448   .     S
C1203  H1225   1.112   .     S
C1204  H1231   1.108   .     S
C1204  H1230   1.111   .     S
C1204  H1229   1.110   .     S
C1204  N1261   1.450   .     S
C1205  H1235   1.112   .     S
C1205  N1262   1.447   .     S
C1205  H1233   1.110   .     S
C1205  H1234   1.109   .     S
C1206  H1240   1.112   .     S
C1206  H1239   1.105   .     S
C1206  H1238   1.105   .     S
C1206  N1263   1.449   .     S
C1207  H1242   1.110   .     S
C1207  H1243   1.109   .     S
C1207  H1244   1.112   .     S
C1207  N1264   1.446   .     S
C1208  H1247   1.109   .     S
C1208  H1249   1.112   .     S
C1208  H1246   1.107   .     S
C1208  N1256   1.450   .     S
C1209  N1261   1.428   .     S
C1209  C318    1.410   1_556 S
C1210  H1250   1.081   .     S
C1210  C1408   1.370   1_455 S
C1211  H1251   1.084   .     S
C1211  C1214   1.399   .     A
C1211  C1311   1.374   .     S
C1212  H1252   1.081   .     S
C1212  C1214   1.396   .     A
C1212  C1308   1.370   .     S
C1213  H1253   1.084   .     S
C1213  C1407   1.374   1_455 S
H1219  N1259   1.031   .     S
H1223  N1260   1.031   .     S
H1228  N1261   1.030   .     S
H1232  N1262   1.030   .     S
H1236  N1263   1.030   .     S
H1241  N1264   1.030   .     S
H1245  N1256   1.030   .     S
H1254  N1258   1.028   .     S
N1255  Zn1273  2.021   .     S
N1257  Zn1274  2.021   .     S
O1265  Zn1273  2.009   .     S
O1266  Zn1274  2.009   .     S
O1267  Zn1273  2.010   .     S
O1268  Zn1274  2.010   .     S
O1269  Zn1273  2.001   .     S
O1270  Zn1274  2.001   .     S
O1271  Zn1273  1.997   .     S
O1272  Zn1274  1.997   .     S
C1275  C1276   1.428   .     S
C1275  O1363   1.288   .     A
C1275  O1366   1.291   .     A
C1276  C1308   1.396   .     A
C1276  C1311   1.399   .     A
C1277  N1355   1.369   .     A
C1277  N1360   1.421   .     S
C1278  N1361   1.420   .     S
C1278  N1353   1.373   .     A
C1278  C1573   1.436   .     S
C1279  N1362   1.421   .     S
C1279  N1355   1.369   .     A
C1280  N1354   1.421   .     S
C1280  N1353   1.373   .     A
C1280  C1571   1.436   .     S
C1281  O1367   1.288   .     A
C1281  O1370   1.285   .     A
C1281  C1287   1.415   .     S
C1282  O1369   1.286   .     A
C1282  O1368   1.286   .     A
C1282  C1285   1.414   .     S
C1283  H1313   1.085   .     S
C1283  C1294   1.389   .     A
C1283  C1285   1.380   .     A
C1284  C1295   1.387   .     A
C1284  H1324   1.083   .     S
C1284  C1287   1.381   .     A
C1285  C1288   1.385   .     A
C1286  O1365   1.288   .     A
C1286  O1364   1.290   .     A
C1286  C1312   1.428   .     S
C1287  C1289   1.387   .     A
C1288  H1335   1.084   .     S
C1288  C1290   1.391   .     A
C1289  H1346   1.084   .     S
C1289  C1291   1.392   .     A
C1290  C1296   1.407   .     A
C1290  C1292   1.416   .     A
C1291  C1298   1.414   .     A
C1291  C1293   1.419   .     A
C1292  C1294   1.413   .     A
C1292  C411    1.391   1_556 S
C1293  C1295   1.419   .     A
C1294  C1307   1.407   .     A
C1295  C1297   1.410   .     A
C1296  N1356   1.423   .     S
C1296  C415    1.402   1_556 S
C1297  N1358   1.426   .     S
C1298  N1357   1.426   .     S
C1299  H1314   1.110   .     S
C1299  H1315   1.110   .     S
C1299  N1356   1.448   .     S
C1299  H1316   1.111   .     S
C1300  N1357   1.447   .     S
C1300  H1319   1.111   .     S
C1300  H1318   1.111   .     S
C1300  H1320   1.110   .     S
C1301  H1322   1.110   .     S
C1301  H1325   1.111   .     S
C1301  N1358   1.448   .     S
C1301  H1323   1.112   .     S
C1302  H1329   1.108   .     S
C1302  H1328   1.111   .     S
C1302  H1327   1.110   .     S
C1302  N1359   1.450   .     S
C1303  H1333   1.112   .     S
C1303  N1360   1.447   .     S
C1303  H1331   1.110   .     S
C1303  H1332   1.109   .     S
C1304  H1338   1.112   .     S
C1304  H1337   1.105   .     S
C1304  H1336   1.105   .     S
C1304  N1361   1.449   .     S
C1305  H1340   1.110   .     S
C1305  H1341   1.109   .     S
C1305  H1342   1.112   .     S
C1305  N1362   1.446   .     S
C1306  H1345   1.109   .     S
C1306  H1347   1.112   .     S
C1306  H1344   1.107   .     S
C1306  N1354   1.450   .     S
C1307  N1359   1.428   .     S
C1307  C416    1.410   1_556 S
C1308  H1348   1.081   .     S
C1309  H1349   1.084   .     S
C1309  C1312   1.399   .     A
C1309  C1409   1.374   .     S
C1310  H1350   1.081   .     S
C1310  C1312   1.396   .     A
C1310  C1406   1.370   .     S
C1311  H1351   1.084   .     S
H1317  N1357   1.031   .     S
H1321  N1358   1.031   .     S
H1326  N1359   1.030   .     S
H1330  N1360   1.030   .     S
H1334  N1361   1.030   .     S
H1339  N1362   1.030   .     S
H1343  N1354   1.030   .     S
H1352  N1356   1.028   .     S
N1353  Zn1371  2.021   .     S
N1355  Zn1372  2.021   .     S
O1363  Zn1371  2.009   .     S
O1364  Zn1372  2.009   .     S
O1365  Zn1371  2.010   .     S
O1366  Zn1372  2.010   .     S
O1367  Zn1371  2.001   .     S
O1368  Zn1372  2.001   .     S
O1369  Zn1371  1.997   .     S
O1370  Zn1372  1.997   .     S
C1373  C1374   1.428   .     S
C1373  O1461   1.288   .     A
C1373  O1464   1.291   .     A
C1374  C1406   1.396   .     A
C1374  C1409   1.399   .     A
C1375  N1453   1.369   .     A
C1375  N1458   1.421   .     S
C1376  N1459   1.420   .     S
C1376  N1451   1.373   .     A
C1376  C1671   1.436   .     S
C1377  N1460   1.421   .     S
C1377  N1453   1.369   .     A
C1378  N1452   1.421   .     S
C1378  N1451   1.373   .     A
C1378  C1669   1.436   .     S
C1379  O1465   1.288   .     A
C1379  O1468   1.285   .     A
C1379  C1385   1.415   .     S
C1380  O1467   1.286   .     A
C1380  O1466   1.286   .     A
C1380  C1383   1.414   .     S
C1381  H1411   1.085   .     S
C1381  C1392   1.389   .     A
C1381  C1383   1.380   .     A
C1382  C1393   1.387   .     A
C1382  H1422   1.083   .     S
C1382  C1385   1.381   .     A
C1383  C1386   1.385   .     A
C1384  O1463   1.288   .     A
C1384  O1462   1.290   .     A
C1384  C1410   1.428   .     S
C1385  C1387   1.387   .     A
C1386  H1433   1.084   .     S
C1386  C1388   1.391   .     A
C1387  H1444   1.084   .     S
C1387  C1389   1.392   .     A
C1388  C1394   1.407   .     A
C1388  C1390   1.416   .     A
C1389  C1396   1.414   .     A
C1389  C1391   1.419   .     A
C1390  C1392   1.413   .     A
C1390  C509    1.391   1_556 S
C1391  C1393   1.419   .     A
C1392  C1405   1.407   .     A
C1393  C1395   1.410   .     A
C1394  N1454   1.423   .     S
C1394  C513    1.402   1_556 S
C1395  N1456   1.426   .     S
C1396  N1455   1.426   .     S
C1397  H1412   1.110   .     S
C1397  H1413   1.110   .     S
C1397  N1454   1.448   .     S
C1397  H1414   1.111   .     S
C1398  N1455   1.447   .     S
C1398  H1417   1.111   .     S
C1398  H1416   1.111   .     S
C1398  H1418   1.110   .     S
C1399  H1420   1.110   .     S
C1399  H1423   1.111   .     S
C1399  N1456   1.448   .     S
C1399  H1421   1.112   .     S
C1400  H1427   1.108   .     S
C1400  H1426   1.111   .     S
C1400  H1425   1.110   .     S
C1400  N1457   1.450   .     S
C1401  H1431   1.112   .     S
C1401  N1458   1.447   .     S
C1401  H1429   1.110   .     S
C1401  H1430   1.109   .     S
C1402  H1436   1.112   .     S
C1402  H1435   1.105   .     S
C1402  H1434   1.105   .     S
C1402  N1459   1.449   .     S
C1403  H1438   1.110   .     S
C1403  H1439   1.109   .     S
C1403  H1440   1.112   .     S
C1403  N1460   1.446   .     S
C1404  H1443   1.109   .     S
C1404  H1445   1.112   .     S
C1404  H1442   1.107   .     S
C1404  N1452   1.450   .     S
C1405  N1457   1.428   .     S
C1405  C514    1.410   1_556 S
C1406  H1446   1.081   .     S
C1407  H1447   1.084   .     S
C1407  C1410   1.399   .     A
C1407  C1213   1.374   1_655 S
C1408  H1448   1.081   .     S
C1408  C1410   1.396   .     A
C1408  C1210   1.370   1_655 S
C1409  H1449   1.084   .     S
H1415  N1455   1.031   .     S
H1419  N1456   1.031   .     S
H1424  N1457   1.030   .     S
H1428  N1458   1.030   .     S
H1432  N1459   1.030   .     S
H1437  N1460   1.030   .     S
H1441  N1452   1.030   .     S
H1450  N1454   1.028   .     S
N1451  Zn1469  2.021   .     S
N1453  Zn1470  2.021   .     S
O1461  Zn1469  2.009   .     S
O1462  Zn1470  2.009   .     S
O1463  Zn1469  2.010   .     S
O1464  Zn1470  2.010   .     S
O1465  Zn1469  2.001   .     S
O1466  Zn1470  2.001   .     S
O1467  Zn1469  1.997   .     S
O1468  Zn1470  1.997   .     S
C1471  C1472   1.428   .     S
C1471  O1559   1.288   .     A
C1471  O1562   1.291   .     A
C1472  C1504   1.396   .     A
C1472  C1507   1.399   .     A
C1473  N1551   1.369   .     A
C1473  N1556   1.421   .     S
C1474  N1557   1.420   .     S
C1474  N1549   1.373   .     A
C1474  C887    1.436   1_565 S
C1475  N1558   1.421   .     S
C1475  N1551   1.369   .     A
C1476  N1550   1.421   .     S
C1476  N1549   1.373   .     A
C1476  C885    1.436   1_565 S
C1477  O1563   1.288   .     A
C1477  O1566   1.285   .     A
C1477  C1483   1.415   .     S
C1478  O1565   1.286   .     A
C1478  O1564   1.286   .     A
C1478  C1481   1.414   .     S
C1479  H1509   1.085   .     S
C1479  C1490   1.389   .     A
C1479  C1481   1.380   .     A
C1480  C1491   1.387   .     A
C1480  H1520   1.083   .     S
C1480  C1483   1.381   .     A
C1481  C1484   1.385   .     A
C1482  O1561   1.288   .     A
C1482  O1560   1.290   .     A
C1482  C1508   1.428   .     S
C1483  C1485   1.387   .     A
C1484  H1531   1.084   .     S
C1484  C1486   1.391   .     A
C1485  H1542   1.084   .     S
C1485  C1487   1.392   .     A
C1486  C1492   1.407   .     A
C1486  C1488   1.416   .     A
C1487  C1494   1.414   .     A
C1487  C1489   1.419   .     A
C1488  C1490   1.413   .     A
C1488  C607    1.391   1_556 S
C1489  C1491   1.419   .     A
C1490  C1503   1.407   .     A
C1491  C1493   1.410   .     A
C1492  N1552   1.423   .     S
C1492  C611    1.402   1_556 S
C1493  N1554   1.426   .     S
C1494  N1553   1.426   .     S
C1495  H1510   1.110   .     S
C1495  H1511   1.110   .     S
C1495  N1552   1.448   .     S
C1495  H1512   1.111   .     S
C1496  N1553   1.447   .     S
C1496  H1515   1.111   .     S
C1496  H1514   1.111   .     S
C1496  H1516   1.110   .     S
C1497  H1518   1.110   .     S
C1497  H1521   1.111   .     S
C1497  N1554   1.448   .     S
C1497  H1519   1.112   .     S
C1498  H1525   1.108   .     S
C1498  H1524   1.111   .     S
C1498  H1523   1.110   .     S
C1498  N1555   1.450   .     S
C1499  H1529   1.112   .     S
C1499  N1556   1.447   .     S
C1499  H1527   1.110   .     S
C1499  H1528   1.109   .     S
C1500  H1534   1.112   .     S
C1500  H1533   1.105   .     S
C1500  H1532   1.105   .     S
C1500  N1557   1.449   .     S
C1501  H1536   1.110   .     S
C1501  H1537   1.109   .     S
C1501  H1538   1.112   .     S
C1501  N1558   1.446   .     S
C1502  H1541   1.109   .     S
C1502  H1543   1.112   .     S
C1502  H1540   1.107   .     S
C1502  N1550   1.450   .     S
C1503  N1555   1.428   .     S
C1503  C612    1.410   1_556 S
C1504  H1544   1.081   .     S
C1504  C1702   1.370   1_455 S
C1505  H1545   1.084   .     S
C1505  C1508   1.399   .     A
C1505  C1605   1.374   .     S
C1506  H1546   1.081   .     S
C1506  C1508   1.396   .     A
C1506  C1602   1.370   .     S
C1507  H1547   1.084   .     S
C1507  C1701   1.374   1_455 S
H1513  N1553   1.031   .     S
H1517  N1554   1.031   .     S
H1522  N1555   1.030   .     S
H1526  N1556   1.030   .     S
H1530  N1557   1.030   .     S
H1535  N1558   1.030   .     S
H1539  N1550   1.030   .     S
H1548  N1552   1.028   .     S
N1549  Zn1567  2.021   .     S
N1551  Zn1568  2.021   .     S
O1559  Zn1567  2.009   .     S
O1560  Zn1568  2.009   .     S
O1561  Zn1567  2.010   .     S
O1562  Zn1568  2.010   .     S
O1563  Zn1567  2.001   .     S
O1564  Zn1568  2.001   .     S
O1565  Zn1567  1.997   .     S
O1566  Zn1568  1.997   .     S
C1569  C1570   1.428   .     S
C1569  O1657   1.288   .     A
C1569  O1660   1.291   .     A
C1570  C1602   1.396   .     A
C1570  C1605   1.399   .     A
C1571  N1649   1.369   .     A
C1571  N1654   1.421   .     S
C1572  N1655   1.420   .     S
C1572  N1647   1.373   .     A
C1572  C985    1.436   1_565 S
C1573  N1656   1.421   .     S
C1573  N1649   1.369   .     A
C1574  N1648   1.421   .     S
C1574  N1647   1.373   .     A
C1574  C983    1.436   1_565 S
C1575  O1661   1.288   .     A
C1575  O1664   1.285   .     A
C1575  C1581   1.415   .     S
C1576  O1663   1.286   .     A
C1576  O1662   1.286   .     A
C1576  C1579   1.414   .     S
C1577  H1607   1.085   .     S
C1577  C1588   1.389   .     A
C1577  C1579   1.380   .     A
C1578  C1589   1.387   .     A
C1578  H1618   1.083   .     S
C1578  C1581   1.381   .     A
C1579  C1582   1.385   .     A
C1580  O1659   1.288   .     A
C1580  O1658   1.290   .     A
C1580  C1606   1.428   .     S
C1581  C1583   1.387   .     A
C1582  H1629   1.084   .     S
C1582  C1584   1.391   .     A
C1583  H1640   1.084   .     S
C1583  C1585   1.392   .     A
C1584  C1590   1.407   .     A
C1584  C1586   1.416   .     A
C1585  C1592   1.414   .     A
C1585  C1587   1.419   .     A
C1586  C1588   1.413   .     A
C1586  C705    1.391   1_556 S
C1587  C1589   1.419   .     A
C1588  C1601   1.407   .     A
C1589  C1591   1.410   .     A
C1590  N1650   1.423   .     S
C1590  C709    1.402   1_556 S
C1591  N1652   1.426   .     S
C1592  N1651   1.426   .     S
C1593  H1608   1.110   .     S
C1593  H1609   1.110   .     S
C1593  N1650   1.448   .     S
C1593  H1610   1.111   .     S
C1594  N1651   1.447   .     S
C1594  H1613   1.111   .     S
C1594  H1612   1.111   .     S
C1594  H1614   1.110   .     S
C1595  H1616   1.110   .     S
C1595  H1619   1.111   .     S
C1595  N1652   1.448   .     S
C1595  H1617   1.112   .     S
C1596  H1623   1.108   .     S
C1596  H1622   1.111   .     S
C1596  H1621   1.110   .     S
C1596  N1653   1.450   .     S
C1597  H1627   1.112   .     S
C1597  N1654   1.447   .     S
C1597  H1625   1.110   .     S
C1597  H1626   1.109   .     S
C1598  H1632   1.112   .     S
C1598  H1631   1.105   .     S
C1598  H1630   1.105   .     S
C1598  N1655   1.449   .     S
C1599  H1634   1.110   .     S
C1599  H1635   1.109   .     S
C1599  H1636   1.112   .     S
C1599  N1656   1.446   .     S
C1600  H1639   1.109   .     S
C1600  H1641   1.112   .     S
C1600  H1638   1.107   .     S
C1600  N1648   1.450   .     S
C1601  N1653   1.428   .     S
C1601  C710    1.410   1_556 S
C1602  H1642   1.081   .     S
C1603  H1643   1.084   .     S
C1603  C1606   1.399   .     A
C1603  C1703   1.374   .     S
C1604  H1644   1.081   .     S
C1604  C1606   1.396   .     A
C1604  C1700   1.370   .     S
C1605  H1645   1.084   .     S
H1611  N1651   1.031   .     S
H1615  N1652   1.031   .     S
H1620  N1653   1.030   .     S
H1624  N1654   1.030   .     S
H1628  N1655   1.030   .     S
H1633  N1656   1.030   .     S
H1637  N1648   1.030   .     S
H1646  N1650   1.028   .     S
N1647  Zn1665  2.021   .     S
N1649  Zn1666  2.021   .     S
O1657  Zn1665  2.009   .     S
O1658  Zn1666  2.009   .     S
O1659  Zn1665  2.010   .     S
O1660  Zn1666  2.010   .     S
O1661  Zn1665  2.001   .     S
O1662  Zn1666  2.001   .     S
O1663  Zn1665  1.997   .     S
O1664  Zn1666  1.997   .     S
C1667  C1668   1.428   .     S
C1667  O1755   1.288   .     A
C1667  O1758   1.291   .     A
C1668  C1700   1.396   .     A
C1668  C1703   1.399   .     A
C1669  N1747   1.369   .     A
C1669  N1752   1.421   .     S
C1670  N1753   1.420   .     S
C1670  N1745   1.373   .     A
C1670  C1083   1.436   1_565 S
C1671  N1754   1.421   .     S
C1671  N1747   1.369   .     A
C1672  N1746   1.421   .     S
C1672  N1745   1.373   .     A
C1672  C1081   1.436   1_565 S
C1673  O1759   1.288   .     A
C1673  O1762   1.285   .     A
C1673  C1679   1.415   .     S
C1674  O1761   1.286   .     A
C1674  O1760   1.286   .     A
C1674  C1677   1.414   .     S
C1675  H1705   1.085   .     S
C1675  C1686   1.389   .     A
C1675  C1677   1.380   .     A
C1676  C1687   1.387   .     A
C1676  H1716   1.083   .     S
C1676  C1679   1.381   .     A
C1677  C1680   1.385   .     A
C1678  O1757   1.288   .     A
C1678  O1756   1.290   .     A
C1678  C1704   1.428   .     S
C1679  C1681   1.387   .     A
C1680  H1727   1.084   .     S
C1680  C1682   1.391   .     A
C1681  H1738   1.084   .     S
C1681  C1683   1.392   .     A
C1682  C1688   1.407   .     A
C1682  C1684   1.416   .     A
C1683  C1690   1.414   .     A
C1683  C1685   1.419   .     A
C1684  C1686   1.413   .     A
C1684  C803    1.391   1_556 S
C1685  C1687   1.419   .     A
C1686  C1699   1.407   .     A
C1687  C1689   1.410   .     A
C1688  N1748   1.423   .     S
C1688  C807    1.402   1_556 S
C1689  N1750   1.426   .     S
C1690  N1749   1.426   .     S
C1691  H1706   1.110   .     S
C1691  H1707   1.110   .     S
C1691  N1748   1.448   .     S
C1691  H1708   1.111   .     S
C1692  N1749   1.447   .     S
C1692  H1711   1.111   .     S
C1692  H1710   1.111   .     S
C1692  H1712   1.110   .     S
C1693  H1714   1.110   .     S
C1693  H1717   1.111   .     S
C1693  N1750   1.448   .     S
C1693  H1715   1.112   .     S
C1694  H1721   1.108   .     S
C1694  H1720   1.111   .     S
C1694  H1719   1.110   .     S
C1694  N1751   1.450   .     S
C1695  H1725   1.112   .     S
C1695  N1752   1.447   .     S
C1695  H1723   1.110   .     S
C1695  H1724   1.109   .     S
C1696  H1730   1.112   .     S
C1696  H1729   1.105   .     S
C1696  H1728   1.105   .     S
C1696  N1753   1.449   .     S
C1697  H1732   1.110   .     S
C1697  H1733   1.109   .     S
C1697  H1734   1.112   .     S
C1697  N1754   1.446   .     S
C1698  H1737   1.109   .     S
C1698  H1739   1.112   .     S
C1698  H1736   1.107   .     S
C1698  N1746   1.450   .     S
C1699  N1751   1.428   .     S
C1699  C808    1.410   1_556 S
C1700  H1740   1.081   .     S
C1701  H1741   1.084   .     S
C1701  C1704   1.399   .     A
C1701  C1507   1.374   1_655 S
C1702  H1742   1.081   .     S
C1702  C1704   1.396   .     A
C1702  C1504   1.370   1_655 S
C1703  H1743   1.084   .     S
H1709  N1749   1.031   .     S
H1713  N1750   1.031   .     S
H1718  N1751   1.030   .     S
H1722  N1752   1.030   .     S
H1726  N1753   1.030   .     S
H1731  N1754   1.030   .     S
H1735  N1746   1.030   .     S
H1744  N1748   1.028   .     S
N1745  Zn1763  2.021   .     S
N1747  Zn1764  2.021   .     S
O1755  Zn1763  2.009   .     S
O1756  Zn1764  2.009   .     S
O1757  Zn1763  2.010   .     S
O1758  Zn1764  2.010   .     S
O1759  Zn1763  2.001   .     S
O1760  Zn1764  2.001   .     S
O1761  Zn1763  1.997   .     S
O1762  Zn1764  1.997   .     S
