data_str_m3_o10_o17_pcu_sym.46
_audit_creation_date              2020-01-03
_audit_creation_method            'Materials Studio'
_symmetry_space_group_name_H-M    'P1'
_symmetry_Int_Tables_number       1
_symmetry_cell_setting            triclinic
loop_
_symmetry_equiv_pos_as_xyz
  x,y,z
_cell_length_a                    23.2163
_cell_length_b                    26.0104
_cell_length_c                    29.9467
_cell_angle_alpha                 89.0022
_cell_angle_beta                  85.8387
_cell_angle_gamma                 93.7455
loop_
_atom_site_label
_atom_site_type_symbol
_atom_site_fract_x
_atom_site_fract_y
_atom_site_fract_z
_atom_site_U_iso_or_equiv
_atom_site_adp_type
_atom_site_occupancy
C1     C     0.18187   0.26488   0.24912   0.00000  Uiso   1.00
C2     C     0.19936   0.20704   0.40441   0.00000  Uiso   1.00
C3     C     0.16349   0.16701   0.11596   0.00000  Uiso   1.00
C4     C     0.16984   0.16632   0.38404   0.00000  Uiso   1.00
C5     C     0.19057   0.20897   0.09127   0.00000  Uiso   1.00
C6     C     0.14276   0.12436   0.40873   0.00000  Uiso   1.00
C7     C     0.19849   0.20610   0.04471   0.00000  Uiso   1.00
C8     C     0.13484   0.12723   0.45529   0.00000  Uiso   1.00
C9     C     0.16621   0.16673   0.02344   0.00000  Uiso   1.00
C10    C     0.16713   0.16661   0.47656   0.00000  Uiso   1.00
C11    C     0.13246   0.12775   0.04903   0.00000  Uiso   1.00
C12    C     0.15147   0.06845   0.25088   0.00000  Uiso   1.00
C13    C     0.20087   0.20558   0.45097   0.00000  Uiso   1.00
C14    C     0.23678   0.24115   0.01859   0.00000  Uiso   1.00
C15    C     0.09656   0.09218   0.48141   0.00000  Uiso   1.00
C16    C     0.28248   0.27276   0.03701   0.00000  Uiso   1.00
C17    C     0.05085   0.06057   0.46299   0.00000  Uiso   1.00
C18    C     0.23628   0.24146   0.47235   0.00000  Uiso   1.00
C19    C     0.09706   0.09187   0.02765   0.00000  Uiso   1.00
C20    C     0.18954   0.31895   0.24444   0.00000  Uiso   1.00
C21    C     0.14380   0.01438   0.25556   0.00000  Uiso   1.00
C22    C     0.16767   0.16688   0.33643   0.00000  Uiso   1.00
C23    C     0.16566   0.16645   0.16357   0.00000  Uiso   1.00
C24    C     0.13398   0.12629   0.09559   0.00000  Uiso   1.00
H25    H     0.26575   0.26895   0.45334   0.00000  Uiso   1.00
H26    H     0.06759   0.06438   0.04666   0.00000  Uiso   1.00
H27    H     0.00523   0.12878   0.21646   0.00000  Uiso   1.00
H28    H     0.32811   0.20456   0.28354   0.00000  Uiso   1.00
I29    I     0.09144   0.06387   0.13608   0.00000  Uiso   1.00
I30    I     0.24189   0.26946   0.36392   0.00000  Uiso   1.00
I31    I     0.19673   0.28137   0.12340   0.00000  Uiso   1.00
I32    I     0.13661   0.05197   0.37660   0.00000  Uiso   1.00
I33    I     0.27396   0.01072   0.21253   0.00000  Uiso   1.00
I34    I     0.05937   0.32261   0.28747   0.00000  Uiso   1.00
N35    N     0.31678   0.15265   0.23783   0.00000  Uiso   1.00
N36    N     0.01656   0.18068   0.26217   0.00000  Uiso   1.00
N37    N     0.31945   0.29796   0.05136   0.00000  Uiso   1.00
N38    N     0.01389   0.03536   0.44865   0.00000  Uiso   1.00
O39    O     0.12975   0.24619   0.25299   0.00000  Uiso   1.00
O40    O     0.20358   0.08714   0.24702   0.00000  Uiso   1.00
O41    O     0.22613   0.23721   0.24519   0.00000  Uiso   1.00
O42    O     0.10720   0.09613   0.25482   0.00000  Uiso   1.00
O43    O     0.11847   0.17117   0.31998   0.00000  Uiso   1.00
O44    O     0.21486   0.16216   0.18003   0.00000  Uiso   1.00
O45    O     0.21485   0.16219   0.31218   0.00000  Uiso   1.00
O46    O     0.11848   0.17115   0.18783   0.00000  Uiso   1.00
Zn47   Zn    0.10231   0.17266   0.25521   0.00000  Uiso   1.00
Zn48   Zn    0.23102   0.16067   0.24479   0.00000  Uiso   1.00
C49    C     0.51520   0.26488   0.24912   0.00000  Uiso   1.00
C50    C     0.53269   0.20704   0.40441   0.00000  Uiso   1.00
C51    C     0.49682   0.16701   0.11596   0.00000  Uiso   1.00
C52    C     0.50318   0.16632   0.38404   0.00000  Uiso   1.00
C53    C     0.52390   0.20897   0.09127   0.00000  Uiso   1.00
C54    C     0.47610   0.12436   0.40873   0.00000  Uiso   1.00
C55    C     0.53183   0.20610   0.04471   0.00000  Uiso   1.00
C56    C     0.46818   0.12723   0.45529   0.00000  Uiso   1.00
C57    C     0.49954   0.16673   0.02344   0.00000  Uiso   1.00
C58    C     0.50046   0.16661   0.47656   0.00000  Uiso   1.00
C59    C     0.46580   0.12775   0.04903   0.00000  Uiso   1.00
C60    C     0.48480   0.06845   0.25088   0.00000  Uiso   1.00
C61    C     0.53421   0.20558   0.45097   0.00000  Uiso   1.00
C62    C     0.57011   0.24115   0.01859   0.00000  Uiso   1.00
C63    C     0.42989   0.09218   0.48141   0.00000  Uiso   1.00
C64    C     0.61582   0.27276   0.03701   0.00000  Uiso   1.00
C65    C     0.38419   0.06057   0.46299   0.00000  Uiso   1.00
C66    C     0.56961   0.24146   0.47235   0.00000  Uiso   1.00
C67    C     0.43039   0.09187   0.02765   0.00000  Uiso   1.00
C68    C     0.52287   0.31895   0.24444   0.00000  Uiso   1.00
C69    C     0.47713   0.01438   0.25556   0.00000  Uiso   1.00
C70    C     0.50100   0.16688   0.33643   0.00000  Uiso   1.00
C71    C     0.49900   0.16645   0.16357   0.00000  Uiso   1.00
C72    C     0.46731   0.12629   0.09559   0.00000  Uiso   1.00
H73    H     0.59909   0.26895   0.45334   0.00000  Uiso   1.00
H74    H     0.40092   0.06438   0.04666   0.00000  Uiso   1.00
H75    H     0.33856   0.12878   0.21646   0.00000  Uiso   1.00
H76    H     0.66144   0.20456   0.28354   0.00000  Uiso   1.00
I77    I     0.42478   0.06387   0.13608   0.00000  Uiso   1.00
I78    I     0.57522   0.26946   0.36392   0.00000  Uiso   1.00
I79    I     0.53006   0.28137   0.12340   0.00000  Uiso   1.00
I80    I     0.46994   0.05197   0.37660   0.00000  Uiso   1.00
I81    I     0.60729   0.01072   0.21253   0.00000  Uiso   1.00
I82    I     0.39271   0.32261   0.28747   0.00000  Uiso   1.00
N83    N     0.65011   0.15265   0.23783   0.00000  Uiso   1.00
N84    N     0.34989   0.18068   0.26217   0.00000  Uiso   1.00
N85    N     0.65279   0.29796   0.05136   0.00000  Uiso   1.00
N86    N     0.34722   0.03536   0.44865   0.00000  Uiso   1.00
O87    O     0.46308   0.24619   0.25299   0.00000  Uiso   1.00
O88    O     0.53692   0.08714   0.24702   0.00000  Uiso   1.00
O89    O     0.55946   0.23721   0.24519   0.00000  Uiso   1.00
O90    O     0.44054   0.09613   0.25482   0.00000  Uiso   1.00
O91    O     0.45181   0.17117   0.31998   0.00000  Uiso   1.00
O92    O     0.54819   0.16216   0.18003   0.00000  Uiso   1.00
O93    O     0.54819   0.16219   0.31218   0.00000  Uiso   1.00
O94    O     0.45181   0.17115   0.18783   0.00000  Uiso   1.00
Zn95   Zn    0.43565   0.17266   0.25521   0.00000  Uiso   1.00
Zn96   Zn    0.56435   0.16067   0.24479   0.00000  Uiso   1.00
C97    C     0.84853   0.26488   0.24912   0.00000  Uiso   1.00
C98    C     0.86602   0.20704   0.40441   0.00000  Uiso   1.00
C99    C     0.83016   0.16701   0.11596   0.00000  Uiso   1.00
C100   C     0.83651   0.16632   0.38404   0.00000  Uiso   1.00
C101   C     0.85724   0.20897   0.09127   0.00000  Uiso   1.00
C102   C     0.80943   0.12436   0.40873   0.00000  Uiso   1.00
C103   C     0.86516   0.20610   0.04471   0.00000  Uiso   1.00
C104   C     0.80151   0.12723   0.45529   0.00000  Uiso   1.00
C105   C     0.83287   0.16673   0.02344   0.00000  Uiso   1.00
C106   C     0.83380   0.16661   0.47656   0.00000  Uiso   1.00
C107   C     0.79913   0.12775   0.04903   0.00000  Uiso   1.00
C108   C     0.81813   0.06845   0.25088   0.00000  Uiso   1.00
C109   C     0.86754   0.20558   0.45097   0.00000  Uiso   1.00
C110   C     0.90344   0.24115   0.01859   0.00000  Uiso   1.00
C111   C     0.76323   0.09218   0.48141   0.00000  Uiso   1.00
C112   C     0.94915   0.27276   0.03701   0.00000  Uiso   1.00
C113   C     0.71752   0.06057   0.46299   0.00000  Uiso   1.00
C114   C     0.90294   0.24146   0.47235   0.00000  Uiso   1.00
C115   C     0.76373   0.09187   0.02765   0.00000  Uiso   1.00
C116   C     0.85620   0.31895   0.24444   0.00000  Uiso   1.00
C117   C     0.81046   0.01438   0.25556   0.00000  Uiso   1.00
C118   C     0.83434   0.16688   0.33643   0.00000  Uiso   1.00
C119   C     0.83233   0.16645   0.16357   0.00000  Uiso   1.00
C120   C     0.80065   0.12629   0.09559   0.00000  Uiso   1.00
H121   H     0.93242   0.26895   0.45334   0.00000  Uiso   1.00
H122   H     0.73425   0.06438   0.04666   0.00000  Uiso   1.00
H123   H     0.67189   0.12878   0.21646   0.00000  Uiso   1.00
H124   H     0.99477   0.20456   0.28354   0.00000  Uiso   1.00
I125   I     0.75811   0.06387   0.13608   0.00000  Uiso   1.00
I126   I     0.90856   0.26946   0.36392   0.00000  Uiso   1.00
I127   I     0.86340   0.28137   0.12340   0.00000  Uiso   1.00
I128   I     0.80327   0.05197   0.37660   0.00000  Uiso   1.00
I129   I     0.94062   0.01072   0.21253   0.00000  Uiso   1.00
I130   I     0.72604   0.32261   0.28747   0.00000  Uiso   1.00
N131   N     0.98344   0.15265   0.23783   0.00000  Uiso   1.00
N132   N     0.68322   0.18068   0.26217   0.00000  Uiso   1.00
N133   N     0.98612   0.29796   0.05136   0.00000  Uiso   1.00
N134   N     0.68055   0.03536   0.44865   0.00000  Uiso   1.00
O135   O     0.79642   0.24619   0.25299   0.00000  Uiso   1.00
O136   O     0.87025   0.08714   0.24702   0.00000  Uiso   1.00
O137   O     0.89280   0.23721   0.24519   0.00000  Uiso   1.00
O138   O     0.77387   0.09613   0.25482   0.00000  Uiso   1.00
O139   O     0.78514   0.17117   0.31998   0.00000  Uiso   1.00
O140   O     0.88153   0.16216   0.18003   0.00000  Uiso   1.00
O141   O     0.88152   0.16219   0.31218   0.00000  Uiso   1.00
O142   O     0.78515   0.17115   0.18783   0.00000  Uiso   1.00
Zn143  Zn    0.76898   0.17266   0.25521   0.00000  Uiso   1.00
Zn144  Zn    0.89769   0.16067   0.24479   0.00000  Uiso   1.00
C145   C     0.18187   0.59821   0.24912   0.00000  Uiso   1.00
C146   C     0.19936   0.54038   0.40441   0.00000  Uiso   1.00
C147   C     0.16349   0.50034   0.11596   0.00000  Uiso   1.00
C148   C     0.16984   0.49966   0.38404   0.00000  Uiso   1.00
C149   C     0.19057   0.54230   0.09127   0.00000  Uiso   1.00
C150   C     0.14276   0.45770   0.40873   0.00000  Uiso   1.00
C151   C     0.19849   0.53943   0.04471   0.00000  Uiso   1.00
C152   C     0.13484   0.46057   0.45529   0.00000  Uiso   1.00
C153   C     0.16621   0.50006   0.02344   0.00000  Uiso   1.00
C154   C     0.16713   0.49994   0.47656   0.00000  Uiso   1.00
C155   C     0.13246   0.46109   0.04903   0.00000  Uiso   1.00
C156   C     0.15147   0.40179   0.25088   0.00000  Uiso   1.00
C157   C     0.20087   0.53891   0.45097   0.00000  Uiso   1.00
C158   C     0.23678   0.57449   0.01859   0.00000  Uiso   1.00
C159   C     0.09656   0.42551   0.48141   0.00000  Uiso   1.00
C160   C     0.28248   0.60609   0.03701   0.00000  Uiso   1.00
C161   C     0.05085   0.39390   0.46299   0.00000  Uiso   1.00
C162   C     0.23628   0.57480   0.47235   0.00000  Uiso   1.00
C163   C     0.09706   0.42520   0.02765   0.00000  Uiso   1.00
C164   C     0.18954   0.65228   0.24444   0.00000  Uiso   1.00
C165   C     0.14380   0.34772   0.25556   0.00000  Uiso   1.00
C166   C     0.16767   0.50021   0.33643   0.00000  Uiso   1.00
C167   C     0.16566   0.49979   0.16357   0.00000  Uiso   1.00
C168   C     0.13398   0.45962   0.09559   0.00000  Uiso   1.00
H169   H     0.26575   0.60228   0.45334   0.00000  Uiso   1.00
H170   H     0.06759   0.39771   0.04666   0.00000  Uiso   1.00
H171   H     0.00523   0.46211   0.21646   0.00000  Uiso   1.00
H172   H     0.32811   0.53789   0.28354   0.00000  Uiso   1.00
I173   I     0.09144   0.39721   0.13608   0.00000  Uiso   1.00
I174   I     0.24189   0.60279   0.36392   0.00000  Uiso   1.00
I175   I     0.19673   0.61470   0.12340   0.00000  Uiso   1.00
I176   I     0.13661   0.38530   0.37660   0.00000  Uiso   1.00
I177   I     0.27396   0.34406   0.21253   0.00000  Uiso   1.00
I178   I     0.05937   0.65594   0.28747   0.00000  Uiso   1.00
N179   N     0.31678   0.48598   0.23783   0.00000  Uiso   1.00
N180   N     0.01656   0.51402   0.26217   0.00000  Uiso   1.00
N181   N     0.31945   0.63129   0.05136   0.00000  Uiso   1.00
N182   N     0.01389   0.36870   0.44865   0.00000  Uiso   1.00
O183   O     0.12975   0.57952   0.25299   0.00000  Uiso   1.00
O184   O     0.20358   0.42048   0.24702   0.00000  Uiso   1.00
O185   O     0.22613   0.57054   0.24519   0.00000  Uiso   1.00
O186   O     0.10720   0.42946   0.25482   0.00000  Uiso   1.00
O187   O     0.11847   0.50450   0.31998   0.00000  Uiso   1.00
O188   O     0.21486   0.49550   0.18003   0.00000  Uiso   1.00
O189   O     0.21485   0.49552   0.31218   0.00000  Uiso   1.00
O190   O     0.11848   0.50448   0.18783   0.00000  Uiso   1.00
Zn191  Zn    0.10231   0.50600   0.25521   0.00000  Uiso   1.00
Zn192  Zn    0.23102   0.49400   0.24479   0.00000  Uiso   1.00
C193   C     0.51520   0.59821   0.24912   0.00000  Uiso   1.00
C194   C     0.53269   0.54038   0.40441   0.00000  Uiso   1.00
C195   C     0.49682   0.50034   0.11596   0.00000  Uiso   1.00
C196   C     0.50318   0.49966   0.38404   0.00000  Uiso   1.00
C197   C     0.52390   0.54230   0.09127   0.00000  Uiso   1.00
C198   C     0.47610   0.45770   0.40873   0.00000  Uiso   1.00
C199   C     0.53183   0.53943   0.04471   0.00000  Uiso   1.00
C200   C     0.46818   0.46057   0.45529   0.00000  Uiso   1.00
C201   C     0.49954   0.50006   0.02344   0.00000  Uiso   1.00
C202   C     0.50046   0.49994   0.47656   0.00000  Uiso   1.00
C203   C     0.46580   0.46109   0.04903   0.00000  Uiso   1.00
C204   C     0.48480   0.40179   0.25088   0.00000  Uiso   1.00
C205   C     0.53421   0.53891   0.45097   0.00000  Uiso   1.00
C206   C     0.57011   0.57449   0.01859   0.00000  Uiso   1.00
C207   C     0.42989   0.42551   0.48141   0.00000  Uiso   1.00
C208   C     0.61582   0.60609   0.03701   0.00000  Uiso   1.00
C209   C     0.38419   0.39390   0.46299   0.00000  Uiso   1.00
C210   C     0.56961   0.57480   0.47235   0.00000  Uiso   1.00
C211   C     0.43039   0.42520   0.02765   0.00000  Uiso   1.00
C212   C     0.52287   0.65228   0.24444   0.00000  Uiso   1.00
C213   C     0.47713   0.34772   0.25556   0.00000  Uiso   1.00
C214   C     0.50100   0.50021   0.33643   0.00000  Uiso   1.00
C215   C     0.49900   0.49979   0.16357   0.00000  Uiso   1.00
C216   C     0.46731   0.45962   0.09559   0.00000  Uiso   1.00
H217   H     0.59909   0.60228   0.45334   0.00000  Uiso   1.00
H218   H     0.40092   0.39771   0.04666   0.00000  Uiso   1.00
H219   H     0.33856   0.46211   0.21646   0.00000  Uiso   1.00
H220   H     0.66144   0.53789   0.28354   0.00000  Uiso   1.00
I221   I     0.42478   0.39721   0.13608   0.00000  Uiso   1.00
I222   I     0.57522   0.60279   0.36392   0.00000  Uiso   1.00
I223   I     0.53006   0.61470   0.12340   0.00000  Uiso   1.00
I224   I     0.46994   0.38530   0.37660   0.00000  Uiso   1.00
I225   I     0.60729   0.34406   0.21253   0.00000  Uiso   1.00
I226   I     0.39271   0.65594   0.28747   0.00000  Uiso   1.00
N227   N     0.65011   0.48598   0.23783   0.00000  Uiso   1.00
N228   N     0.34989   0.51402   0.26217   0.00000  Uiso   1.00
N229   N     0.65279   0.63129   0.05136   0.00000  Uiso   1.00
N230   N     0.34722   0.36870   0.44865   0.00000  Uiso   1.00
O231   O     0.46308   0.57952   0.25299   0.00000  Uiso   1.00
O232   O     0.53692   0.42048   0.24702   0.00000  Uiso   1.00
O233   O     0.55946   0.57054   0.24519   0.00000  Uiso   1.00
O234   O     0.44054   0.42946   0.25482   0.00000  Uiso   1.00
O235   O     0.45181   0.50450   0.31998   0.00000  Uiso   1.00
O236   O     0.54819   0.49550   0.18003   0.00000  Uiso   1.00
O237   O     0.54819   0.49552   0.31218   0.00000  Uiso   1.00
O238   O     0.45181   0.50448   0.18783   0.00000  Uiso   1.00
Zn239  Zn    0.43565   0.50600   0.25521   0.00000  Uiso   1.00
Zn240  Zn    0.56435   0.49400   0.24479   0.00000  Uiso   1.00
C241   C     0.84853   0.59821   0.24912   0.00000  Uiso   1.00
C242   C     0.86602   0.54038   0.40441   0.00000  Uiso   1.00
C243   C     0.83016   0.50034   0.11596   0.00000  Uiso   1.00
C244   C     0.83651   0.49966   0.38404   0.00000  Uiso   1.00
C245   C     0.85724   0.54230   0.09127   0.00000  Uiso   1.00
C246   C     0.80943   0.45770   0.40873   0.00000  Uiso   1.00
C247   C     0.86516   0.53943   0.04471   0.00000  Uiso   1.00
C248   C     0.80151   0.46057   0.45529   0.00000  Uiso   1.00
C249   C     0.83287   0.50006   0.02344   0.00000  Uiso   1.00
C250   C     0.83380   0.49994   0.47656   0.00000  Uiso   1.00
C251   C     0.79913   0.46109   0.04903   0.00000  Uiso   1.00
C252   C     0.81813   0.40179   0.25088   0.00000  Uiso   1.00
C253   C     0.86754   0.53891   0.45097   0.00000  Uiso   1.00
C254   C     0.90344   0.57449   0.01859   0.00000  Uiso   1.00
C255   C     0.76323   0.42551   0.48141   0.00000  Uiso   1.00
C256   C     0.94915   0.60609   0.03701   0.00000  Uiso   1.00
C257   C     0.71752   0.39390   0.46299   0.00000  Uiso   1.00
C258   C     0.90294   0.57480   0.47235   0.00000  Uiso   1.00
C259   C     0.76373   0.42520   0.02765   0.00000  Uiso   1.00
C260   C     0.85620   0.65228   0.24444   0.00000  Uiso   1.00
C261   C     0.81046   0.34772   0.25556   0.00000  Uiso   1.00
C262   C     0.83434   0.50021   0.33643   0.00000  Uiso   1.00
C263   C     0.83233   0.49979   0.16357   0.00000  Uiso   1.00
C264   C     0.80065   0.45962   0.09559   0.00000  Uiso   1.00
H265   H     0.93242   0.60228   0.45334   0.00000  Uiso   1.00
H266   H     0.73425   0.39771   0.04666   0.00000  Uiso   1.00
H267   H     0.67189   0.46211   0.21646   0.00000  Uiso   1.00
H268   H     0.99477   0.53789   0.28354   0.00000  Uiso   1.00
I269   I     0.75811   0.39721   0.13608   0.00000  Uiso   1.00
I270   I     0.90856   0.60279   0.36392   0.00000  Uiso   1.00
I271   I     0.86340   0.61470   0.12340   0.00000  Uiso   1.00
I272   I     0.80327   0.38530   0.37660   0.00000  Uiso   1.00
I273   I     0.94062   0.34406   0.21253   0.00000  Uiso   1.00
I274   I     0.72604   0.65594   0.28747   0.00000  Uiso   1.00
N275   N     0.98344   0.48598   0.23783   0.00000  Uiso   1.00
N276   N     0.68322   0.51402   0.26217   0.00000  Uiso   1.00
N277   N     0.98612   0.63129   0.05136   0.00000  Uiso   1.00
N278   N     0.68055   0.36870   0.44865   0.00000  Uiso   1.00
O279   O     0.79642   0.57952   0.25299   0.00000  Uiso   1.00
O280   O     0.87025   0.42048   0.24702   0.00000  Uiso   1.00
O281   O     0.89280   0.57054   0.24519   0.00000  Uiso   1.00
O282   O     0.77387   0.42946   0.25482   0.00000  Uiso   1.00
O283   O     0.78514   0.50450   0.31998   0.00000  Uiso   1.00
O284   O     0.88153   0.49550   0.18003   0.00000  Uiso   1.00
O285   O     0.88152   0.49552   0.31218   0.00000  Uiso   1.00
O286   O     0.78515   0.50448   0.18783   0.00000  Uiso   1.00
Zn287  Zn    0.76898   0.50600   0.25521   0.00000  Uiso   1.00
Zn288  Zn    0.89769   0.49400   0.24479   0.00000  Uiso   1.00
C289   C     0.18187   0.93155   0.24912   0.00000  Uiso   1.00
C290   C     0.19936   0.87371   0.40441   0.00000  Uiso   1.00
C291   C     0.16349   0.83368   0.11596   0.00000  Uiso   1.00
C292   C     0.16984   0.83299   0.38404   0.00000  Uiso   1.00
C293   C     0.19057   0.87564   0.09127   0.00000  Uiso   1.00
C294   C     0.14276   0.79103   0.40873   0.00000  Uiso   1.00
C295   C     0.19849   0.87276   0.04471   0.00000  Uiso   1.00
C296   C     0.13484   0.79390   0.45529   0.00000  Uiso   1.00
C297   C     0.16621   0.83339   0.02344   0.00000  Uiso   1.00
C298   C     0.16713   0.83327   0.47656   0.00000  Uiso   1.00
C299   C     0.13246   0.79442   0.04903   0.00000  Uiso   1.00
C300   C     0.15147   0.73512   0.25088   0.00000  Uiso   1.00
C301   C     0.20087   0.87224   0.45097   0.00000  Uiso   1.00
C302   C     0.23678   0.90782   0.01859   0.00000  Uiso   1.00
C303   C     0.09656   0.75884   0.48141   0.00000  Uiso   1.00
C304   C     0.28248   0.93943   0.03701   0.00000  Uiso   1.00
C305   C     0.05085   0.72723   0.46299   0.00000  Uiso   1.00
C306   C     0.23628   0.90813   0.47235   0.00000  Uiso   1.00
C307   C     0.09706   0.75853   0.02765   0.00000  Uiso   1.00
C308   C     0.18954   0.98562   0.24444   0.00000  Uiso   1.00
C309   C     0.14380   0.68105   0.25556   0.00000  Uiso   1.00
C310   C     0.16767   0.83355   0.33643   0.00000  Uiso   1.00
C311   C     0.16566   0.83312   0.16357   0.00000  Uiso   1.00
C312   C     0.13398   0.79295   0.09559   0.00000  Uiso   1.00
H313   H     0.26575   0.93562   0.45334   0.00000  Uiso   1.00
H314   H     0.06759   0.73105   0.04666   0.00000  Uiso   1.00
H315   H     0.00523   0.79544   0.21646   0.00000  Uiso   1.00
H316   H     0.32811   0.87123   0.28354   0.00000  Uiso   1.00
I317   I     0.09144   0.73054   0.13608   0.00000  Uiso   1.00
I318   I     0.24189   0.93612   0.36392   0.00000  Uiso   1.00
I319   I     0.19673   0.94803   0.12340   0.00000  Uiso   1.00
I320   I     0.13661   0.71863   0.37660   0.00000  Uiso   1.00
I321   I     0.27396   0.67739   0.21253   0.00000  Uiso   1.00
I322   I     0.05937   0.98928   0.28747   0.00000  Uiso   1.00
N323   N     0.31678   0.81932   0.23783   0.00000  Uiso   1.00
N324   N     0.01656   0.84735   0.26217   0.00000  Uiso   1.00
N325   N     0.31945   0.96463   0.05136   0.00000  Uiso   1.00
N326   N     0.01389   0.70203   0.44865   0.00000  Uiso   1.00
O327   O     0.12975   0.91286   0.25299   0.00000  Uiso   1.00
O328   O     0.20358   0.75381   0.24702   0.00000  Uiso   1.00
O329   O     0.22613   0.90387   0.24519   0.00000  Uiso   1.00
O330   O     0.10720   0.76279   0.25482   0.00000  Uiso   1.00
O331   O     0.11847   0.83784   0.31998   0.00000  Uiso   1.00
O332   O     0.21486   0.82883   0.18003   0.00000  Uiso   1.00
O333   O     0.21485   0.82885   0.31218   0.00000  Uiso   1.00
O334   O     0.11848   0.83781   0.18783   0.00000  Uiso   1.00
Zn335  Zn    0.10231   0.83933   0.25521   0.00000  Uiso   1.00
Zn336  Zn    0.23102   0.82734   0.24479   0.00000  Uiso   1.00
C337   C     0.51520   0.93155   0.24912   0.00000  Uiso   1.00
C338   C     0.53269   0.87371   0.40441   0.00000  Uiso   1.00
C339   C     0.49682   0.83368   0.11596   0.00000  Uiso   1.00
C340   C     0.50318   0.83299   0.38404   0.00000  Uiso   1.00
C341   C     0.52390   0.87564   0.09127   0.00000  Uiso   1.00
C342   C     0.47610   0.79103   0.40873   0.00000  Uiso   1.00
C343   C     0.53183   0.87276   0.04471   0.00000  Uiso   1.00
C344   C     0.46818   0.79390   0.45529   0.00000  Uiso   1.00
C345   C     0.49954   0.83339   0.02344   0.00000  Uiso   1.00
C346   C     0.50046   0.83327   0.47656   0.00000  Uiso   1.00
C347   C     0.46580   0.79442   0.04903   0.00000  Uiso   1.00
C348   C     0.48480   0.73512   0.25088   0.00000  Uiso   1.00
C349   C     0.53421   0.87224   0.45097   0.00000  Uiso   1.00
C350   C     0.57011   0.90782   0.01859   0.00000  Uiso   1.00
C351   C     0.42989   0.75884   0.48141   0.00000  Uiso   1.00
C352   C     0.61582   0.93943   0.03701   0.00000  Uiso   1.00
C353   C     0.38419   0.72723   0.46299   0.00000  Uiso   1.00
C354   C     0.56961   0.90813   0.47235   0.00000  Uiso   1.00
C355   C     0.43039   0.75853   0.02765   0.00000  Uiso   1.00
C356   C     0.52287   0.98562   0.24444   0.00000  Uiso   1.00
C357   C     0.47713   0.68105   0.25556   0.00000  Uiso   1.00
C358   C     0.50100   0.83355   0.33643   0.00000  Uiso   1.00
C359   C     0.49900   0.83312   0.16357   0.00000  Uiso   1.00
C360   C     0.46731   0.79295   0.09559   0.00000  Uiso   1.00
H361   H     0.59909   0.93562   0.45334   0.00000  Uiso   1.00
H362   H     0.40092   0.73105   0.04666   0.00000  Uiso   1.00
H363   H     0.33856   0.79544   0.21646   0.00000  Uiso   1.00
H364   H     0.66144   0.87123   0.28354   0.00000  Uiso   1.00
I365   I     0.42478   0.73054   0.13608   0.00000  Uiso   1.00
I366   I     0.57522   0.93612   0.36392   0.00000  Uiso   1.00
I367   I     0.53006   0.94803   0.12340   0.00000  Uiso   1.00
I368   I     0.46994   0.71863   0.37660   0.00000  Uiso   1.00
I369   I     0.60729   0.67739   0.21253   0.00000  Uiso   1.00
I370   I     0.39271   0.98928   0.28747   0.00000  Uiso   1.00
N371   N     0.65011   0.81932   0.23783   0.00000  Uiso   1.00
N372   N     0.34989   0.84735   0.26217   0.00000  Uiso   1.00
N373   N     0.65279   0.96463   0.05136   0.00000  Uiso   1.00
N374   N     0.34722   0.70203   0.44865   0.00000  Uiso   1.00
O375   O     0.46308   0.91286   0.25299   0.00000  Uiso   1.00
O376   O     0.53692   0.75381   0.24702   0.00000  Uiso   1.00
O377   O     0.55946   0.90387   0.24519   0.00000  Uiso   1.00
O378   O     0.44054   0.76279   0.25482   0.00000  Uiso   1.00
O379   O     0.45181   0.83784   0.31998   0.00000  Uiso   1.00
O380   O     0.54819   0.82883   0.18003   0.00000  Uiso   1.00
O381   O     0.54819   0.82885   0.31218   0.00000  Uiso   1.00
O382   O     0.45181   0.83781   0.18783   0.00000  Uiso   1.00
Zn383  Zn    0.43565   0.83933   0.25521   0.00000  Uiso   1.00
Zn384  Zn    0.56435   0.82734   0.24479   0.00000  Uiso   1.00
C385   C     0.84853   0.93155   0.24912   0.00000  Uiso   1.00
C386   C     0.86602   0.87371   0.40441   0.00000  Uiso   1.00
C387   C     0.83016   0.83368   0.11596   0.00000  Uiso   1.00
C388   C     0.83651   0.83299   0.38404   0.00000  Uiso   1.00
C389   C     0.85724   0.87564   0.09127   0.00000  Uiso   1.00
C390   C     0.80943   0.79103   0.40873   0.00000  Uiso   1.00
C391   C     0.86516   0.87276   0.04471   0.00000  Uiso   1.00
C392   C     0.80151   0.79390   0.45529   0.00000  Uiso   1.00
C393   C     0.83287   0.83339   0.02344   0.00000  Uiso   1.00
C394   C     0.83380   0.83327   0.47656   0.00000  Uiso   1.00
C395   C     0.79913   0.79442   0.04903   0.00000  Uiso   1.00
C396   C     0.81813   0.73512   0.25088   0.00000  Uiso   1.00
C397   C     0.86754   0.87224   0.45097   0.00000  Uiso   1.00
C398   C     0.90344   0.90782   0.01859   0.00000  Uiso   1.00
C399   C     0.76323   0.75884   0.48141   0.00000  Uiso   1.00
C400   C     0.94915   0.93943   0.03701   0.00000  Uiso   1.00
C401   C     0.71752   0.72723   0.46299   0.00000  Uiso   1.00
C402   C     0.90294   0.90813   0.47235   0.00000  Uiso   1.00
C403   C     0.76373   0.75853   0.02765   0.00000  Uiso   1.00
C404   C     0.85620   0.98562   0.24444   0.00000  Uiso   1.00
C405   C     0.81046   0.68105   0.25556   0.00000  Uiso   1.00
C406   C     0.83434   0.83355   0.33643   0.00000  Uiso   1.00
C407   C     0.83233   0.83312   0.16357   0.00000  Uiso   1.00
C408   C     0.80065   0.79295   0.09559   0.00000  Uiso   1.00
H409   H     0.93242   0.93562   0.45334   0.00000  Uiso   1.00
H410   H     0.73425   0.73105   0.04666   0.00000  Uiso   1.00
H411   H     0.67189   0.79544   0.21646   0.00000  Uiso   1.00
H412   H     0.99477   0.87123   0.28354   0.00000  Uiso   1.00
I413   I     0.75811   0.73054   0.13608   0.00000  Uiso   1.00
I414   I     0.90856   0.93612   0.36392   0.00000  Uiso   1.00
I415   I     0.86340   0.94803   0.12340   0.00000  Uiso   1.00
I416   I     0.80327   0.71863   0.37660   0.00000  Uiso   1.00
I417   I     0.94062   0.67739   0.21253   0.00000  Uiso   1.00
I418   I     0.72604   0.98928   0.28747   0.00000  Uiso   1.00
N419   N     0.98344   0.81932   0.23783   0.00000  Uiso   1.00
N420   N     0.68322   0.84735   0.26217   0.00000  Uiso   1.00
N421   N     0.98612   0.96463   0.05136   0.00000  Uiso   1.00
N422   N     0.68055   0.70203   0.44865   0.00000  Uiso   1.00
O423   O     0.79642   0.91286   0.25299   0.00000  Uiso   1.00
O424   O     0.87025   0.75381   0.24702   0.00000  Uiso   1.00
O425   O     0.89280   0.90387   0.24519   0.00000  Uiso   1.00
O426   O     0.77387   0.76279   0.25482   0.00000  Uiso   1.00
O427   O     0.78514   0.83784   0.31998   0.00000  Uiso   1.00
O428   O     0.88153   0.82883   0.18003   0.00000  Uiso   1.00
O429   O     0.88152   0.82885   0.31218   0.00000  Uiso   1.00
O430   O     0.78515   0.83781   0.18783   0.00000  Uiso   1.00
Zn431  Zn    0.76898   0.83933   0.25521   0.00000  Uiso   1.00
Zn432  Zn    0.89769   0.82734   0.24479   0.00000  Uiso   1.00
C433   C     0.18187   0.26488   0.74912   0.00000  Uiso   1.00
C434   C     0.19936   0.20704   0.90441   0.00000  Uiso   1.00
C435   C     0.16349   0.16701   0.61596   0.00000  Uiso   1.00
C436   C     0.16984   0.16632   0.88404   0.00000  Uiso   1.00
C437   C     0.19057   0.20897   0.59127   0.00000  Uiso   1.00
C438   C     0.14276   0.12436   0.90873   0.00000  Uiso   1.00
C439   C     0.19849   0.20610   0.54471   0.00000  Uiso   1.00
C440   C     0.13484   0.12723   0.95529   0.00000  Uiso   1.00
C441   C     0.16621   0.16673   0.52344   0.00000  Uiso   1.00
C442   C     0.16713   0.16661   0.97656   0.00000  Uiso   1.00
C443   C     0.13246   0.12775   0.54903   0.00000  Uiso   1.00
C444   C     0.15147   0.06845   0.75088   0.00000  Uiso   1.00
C445   C     0.20087   0.20558   0.95097   0.00000  Uiso   1.00
C446   C     0.23678   0.24115   0.51859   0.00000  Uiso   1.00
C447   C     0.09656   0.09218   0.98141   0.00000  Uiso   1.00
C448   C     0.28248   0.27276   0.53701   0.00000  Uiso   1.00
C449   C     0.05085   0.06057   0.96299   0.00000  Uiso   1.00
C450   C     0.23628   0.24146   0.97235   0.00000  Uiso   1.00
C451   C     0.09706   0.09187   0.52765   0.00000  Uiso   1.00
C452   C     0.18954   0.31895   0.74444   0.00000  Uiso   1.00
C453   C     0.14380   0.01438   0.75556   0.00000  Uiso   1.00
C454   C     0.16767   0.16688   0.83643   0.00000  Uiso   1.00
C455   C     0.16566   0.16645   0.66357   0.00000  Uiso   1.00
C456   C     0.13398   0.12629   0.59559   0.00000  Uiso   1.00
H457   H     0.26575   0.26895   0.95334   0.00000  Uiso   1.00
H458   H     0.06759   0.06438   0.54666   0.00000  Uiso   1.00
H459   H     0.00523   0.12878   0.71646   0.00000  Uiso   1.00
H460   H     0.32811   0.20456   0.78354   0.00000  Uiso   1.00
I461   I     0.09144   0.06387   0.63608   0.00000  Uiso   1.00
I462   I     0.24189   0.26946   0.86392   0.00000  Uiso   1.00
I463   I     0.19673   0.28137   0.62340   0.00000  Uiso   1.00
I464   I     0.13661   0.05197   0.87660   0.00000  Uiso   1.00
I465   I     0.27396   0.01072   0.71253   0.00000  Uiso   1.00
I466   I     0.05937   0.32261   0.78747   0.00000  Uiso   1.00
N467   N     0.31678   0.15265   0.73783   0.00000  Uiso   1.00
N468   N     0.01656   0.18068   0.76217   0.00000  Uiso   1.00
N469   N     0.31945   0.29796   0.55136   0.00000  Uiso   1.00
N470   N     0.01389   0.03536   0.94865   0.00000  Uiso   1.00
O471   O     0.12975   0.24619   0.75299   0.00000  Uiso   1.00
O472   O     0.20358   0.08714   0.74702   0.00000  Uiso   1.00
O473   O     0.22613   0.23721   0.74519   0.00000  Uiso   1.00
O474   O     0.10720   0.09613   0.75482   0.00000  Uiso   1.00
O475   O     0.11847   0.17117   0.81998   0.00000  Uiso   1.00
O476   O     0.21486   0.16216   0.68003   0.00000  Uiso   1.00
O477   O     0.21485   0.16219   0.81218   0.00000  Uiso   1.00
O478   O     0.11848   0.17115   0.68783   0.00000  Uiso   1.00
Zn479  Zn    0.10231   0.17266   0.75521   0.00000  Uiso   1.00
Zn480  Zn    0.23102   0.16067   0.74479   0.00000  Uiso   1.00
C481   C     0.51520   0.26488   0.74912   0.00000  Uiso   1.00
C482   C     0.53269   0.20704   0.90441   0.00000  Uiso   1.00
C483   C     0.49682   0.16701   0.61596   0.00000  Uiso   1.00
C484   C     0.50318   0.16632   0.88404   0.00000  Uiso   1.00
C485   C     0.52390   0.20897   0.59127   0.00000  Uiso   1.00
C486   C     0.47610   0.12436   0.90873   0.00000  Uiso   1.00
C487   C     0.53183   0.20610   0.54471   0.00000  Uiso   1.00
C488   C     0.46818   0.12723   0.95529   0.00000  Uiso   1.00
C489   C     0.49954   0.16673   0.52344   0.00000  Uiso   1.00
C490   C     0.50046   0.16661   0.97656   0.00000  Uiso   1.00
C491   C     0.46580   0.12775   0.54903   0.00000  Uiso   1.00
C492   C     0.48480   0.06845   0.75088   0.00000  Uiso   1.00
C493   C     0.53421   0.20558   0.95097   0.00000  Uiso   1.00
C494   C     0.57011   0.24115   0.51859   0.00000  Uiso   1.00
C495   C     0.42989   0.09218   0.98141   0.00000  Uiso   1.00
C496   C     0.61582   0.27276   0.53701   0.00000  Uiso   1.00
C497   C     0.38419   0.06057   0.96299   0.00000  Uiso   1.00
C498   C     0.56961   0.24146   0.97235   0.00000  Uiso   1.00
C499   C     0.43039   0.09187   0.52765   0.00000  Uiso   1.00
C500   C     0.52287   0.31895   0.74444   0.00000  Uiso   1.00
C501   C     0.47713   0.01438   0.75556   0.00000  Uiso   1.00
C502   C     0.50100   0.16688   0.83643   0.00000  Uiso   1.00
C503   C     0.49900   0.16645   0.66357   0.00000  Uiso   1.00
C504   C     0.46731   0.12629   0.59559   0.00000  Uiso   1.00
H505   H     0.59909   0.26895   0.95334   0.00000  Uiso   1.00
H506   H     0.40092   0.06438   0.54666   0.00000  Uiso   1.00
H507   H     0.33856   0.12878   0.71646   0.00000  Uiso   1.00
H508   H     0.66144   0.20456   0.78354   0.00000  Uiso   1.00
I509   I     0.42478   0.06387   0.63608   0.00000  Uiso   1.00
I510   I     0.57522   0.26946   0.86392   0.00000  Uiso   1.00
I511   I     0.53006   0.28137   0.62340   0.00000  Uiso   1.00
I512   I     0.46994   0.05197   0.87660   0.00000  Uiso   1.00
I513   I     0.60729   0.01072   0.71253   0.00000  Uiso   1.00
I514   I     0.39271   0.32261   0.78747   0.00000  Uiso   1.00
N515   N     0.65011   0.15265   0.73783   0.00000  Uiso   1.00
N516   N     0.34989   0.18068   0.76217   0.00000  Uiso   1.00
N517   N     0.65279   0.29796   0.55136   0.00000  Uiso   1.00
N518   N     0.34722   0.03536   0.94865   0.00000  Uiso   1.00
O519   O     0.46308   0.24619   0.75299   0.00000  Uiso   1.00
O520   O     0.53692   0.08714   0.74702   0.00000  Uiso   1.00
O521   O     0.55946   0.23721   0.74519   0.00000  Uiso   1.00
O522   O     0.44054   0.09613   0.75482   0.00000  Uiso   1.00
O523   O     0.45181   0.17117   0.81998   0.00000  Uiso   1.00
O524   O     0.54819   0.16216   0.68003   0.00000  Uiso   1.00
O525   O     0.54819   0.16219   0.81218   0.00000  Uiso   1.00
O526   O     0.45181   0.17115   0.68783   0.00000  Uiso   1.00
Zn527  Zn    0.43565   0.17266   0.75521   0.00000  Uiso   1.00
Zn528  Zn    0.56435   0.16067   0.74479   0.00000  Uiso   1.00
C529   C     0.84853   0.26488   0.74912   0.00000  Uiso   1.00
C530   C     0.86602   0.20704   0.90441   0.00000  Uiso   1.00
C531   C     0.83016   0.16701   0.61596   0.00000  Uiso   1.00
C532   C     0.83651   0.16632   0.88404   0.00000  Uiso   1.00
C533   C     0.85724   0.20897   0.59127   0.00000  Uiso   1.00
C534   C     0.80943   0.12436   0.90873   0.00000  Uiso   1.00
C535   C     0.86516   0.20610   0.54471   0.00000  Uiso   1.00
C536   C     0.80151   0.12723   0.95529   0.00000  Uiso   1.00
C537   C     0.83287   0.16673   0.52344   0.00000  Uiso   1.00
C538   C     0.83380   0.16661   0.97656   0.00000  Uiso   1.00
C539   C     0.79913   0.12775   0.54903   0.00000  Uiso   1.00
C540   C     0.81813   0.06845   0.75088   0.00000  Uiso   1.00
C541   C     0.86754   0.20558   0.95097   0.00000  Uiso   1.00
C542   C     0.90344   0.24115   0.51859   0.00000  Uiso   1.00
C543   C     0.76323   0.09218   0.98141   0.00000  Uiso   1.00
C544   C     0.94915   0.27276   0.53701   0.00000  Uiso   1.00
C545   C     0.71752   0.06057   0.96299   0.00000  Uiso   1.00
C546   C     0.90294   0.24146   0.97235   0.00000  Uiso   1.00
C547   C     0.76373   0.09187   0.52765   0.00000  Uiso   1.00
C548   C     0.85620   0.31895   0.74444   0.00000  Uiso   1.00
C549   C     0.81046   0.01438   0.75556   0.00000  Uiso   1.00
C550   C     0.83434   0.16688   0.83643   0.00000  Uiso   1.00
C551   C     0.83233   0.16645   0.66357   0.00000  Uiso   1.00
C552   C     0.80065   0.12629   0.59559   0.00000  Uiso   1.00
H553   H     0.93242   0.26895   0.95334   0.00000  Uiso   1.00
H554   H     0.73425   0.06438   0.54666   0.00000  Uiso   1.00
H555   H     0.67189   0.12878   0.71646   0.00000  Uiso   1.00
H556   H     0.99477   0.20456   0.78354   0.00000  Uiso   1.00
I557   I     0.75811   0.06387   0.63608   0.00000  Uiso   1.00
I558   I     0.90856   0.26946   0.86392   0.00000  Uiso   1.00
I559   I     0.86340   0.28137   0.62340   0.00000  Uiso   1.00
I560   I     0.80327   0.05197   0.87660   0.00000  Uiso   1.00
I561   I     0.94062   0.01072   0.71253   0.00000  Uiso   1.00
I562   I     0.72604   0.32261   0.78747   0.00000  Uiso   1.00
N563   N     0.98344   0.15265   0.73783   0.00000  Uiso   1.00
N564   N     0.68322   0.18068   0.76217   0.00000  Uiso   1.00
N565   N     0.98612   0.29796   0.55136   0.00000  Uiso   1.00
N566   N     0.68055   0.03536   0.94865   0.00000  Uiso   1.00
O567   O     0.79642   0.24619   0.75299   0.00000  Uiso   1.00
O568   O     0.87025   0.08714   0.74702   0.00000  Uiso   1.00
O569   O     0.89280   0.23721   0.74519   0.00000  Uiso   1.00
O570   O     0.77387   0.09613   0.75482   0.00000  Uiso   1.00
O571   O     0.78514   0.17117   0.81998   0.00000  Uiso   1.00
O572   O     0.88153   0.16216   0.68003   0.00000  Uiso   1.00
O573   O     0.88152   0.16219   0.81218   0.00000  Uiso   1.00
O574   O     0.78515   0.17115   0.68783   0.00000  Uiso   1.00
Zn575  Zn    0.76898   0.17266   0.75521   0.00000  Uiso   1.00
Zn576  Zn    0.89769   0.16067   0.74479   0.00000  Uiso   1.00
C577   C     0.18187   0.59821   0.74912   0.00000  Uiso   1.00
C578   C     0.19936   0.54038   0.90441   0.00000  Uiso   1.00
C579   C     0.16349   0.50034   0.61596   0.00000  Uiso   1.00
C580   C     0.16984   0.49966   0.88404   0.00000  Uiso   1.00
C581   C     0.19057   0.54230   0.59127   0.00000  Uiso   1.00
C582   C     0.14276   0.45770   0.90873   0.00000  Uiso   1.00
C583   C     0.19849   0.53943   0.54471   0.00000  Uiso   1.00
C584   C     0.13484   0.46057   0.95529   0.00000  Uiso   1.00
C585   C     0.16621   0.50006   0.52344   0.00000  Uiso   1.00
C586   C     0.16713   0.49994   0.97656   0.00000  Uiso   1.00
C587   C     0.13246   0.46109   0.54903   0.00000  Uiso   1.00
C588   C     0.15147   0.40179   0.75088   0.00000  Uiso   1.00
C589   C     0.20087   0.53891   0.95097   0.00000  Uiso   1.00
C590   C     0.23678   0.57449   0.51859   0.00000  Uiso   1.00
C591   C     0.09656   0.42551   0.98141   0.00000  Uiso   1.00
C592   C     0.28248   0.60609   0.53701   0.00000  Uiso   1.00
C593   C     0.05085   0.39390   0.96299   0.00000  Uiso   1.00
C594   C     0.23628   0.57480   0.97235   0.00000  Uiso   1.00
C595   C     0.09706   0.42520   0.52765   0.00000  Uiso   1.00
C596   C     0.18954   0.65228   0.74444   0.00000  Uiso   1.00
C597   C     0.14380   0.34772   0.75556   0.00000  Uiso   1.00
C598   C     0.16767   0.50021   0.83643   0.00000  Uiso   1.00
C599   C     0.16566   0.49979   0.66357   0.00000  Uiso   1.00
C600   C     0.13398   0.45962   0.59559   0.00000  Uiso   1.00
H601   H     0.26575   0.60228   0.95334   0.00000  Uiso   1.00
H602   H     0.06759   0.39771   0.54666   0.00000  Uiso   1.00
H603   H     0.00523   0.46211   0.71646   0.00000  Uiso   1.00
H604   H     0.32811   0.53789   0.78354   0.00000  Uiso   1.00
I605   I     0.09144   0.39721   0.63608   0.00000  Uiso   1.00
I606   I     0.24189   0.60279   0.86392   0.00000  Uiso   1.00
I607   I     0.19673   0.61470   0.62340   0.00000  Uiso   1.00
I608   I     0.13661   0.38530   0.87660   0.00000  Uiso   1.00
I609   I     0.27396   0.34406   0.71253   0.00000  Uiso   1.00
I610   I     0.05937   0.65594   0.78747   0.00000  Uiso   1.00
N611   N     0.31678   0.48598   0.73783   0.00000  Uiso   1.00
N612   N     0.01656   0.51402   0.76217   0.00000  Uiso   1.00
N613   N     0.31945   0.63129   0.55136   0.00000  Uiso   1.00
N614   N     0.01389   0.36870   0.94865   0.00000  Uiso   1.00
O615   O     0.12975   0.57952   0.75299   0.00000  Uiso   1.00
O616   O     0.20358   0.42048   0.74702   0.00000  Uiso   1.00
O617   O     0.22613   0.57054   0.74519   0.00000  Uiso   1.00
O618   O     0.10720   0.42946   0.75482   0.00000  Uiso   1.00
O619   O     0.11847   0.50450   0.81998   0.00000  Uiso   1.00
O620   O     0.21486   0.49550   0.68003   0.00000  Uiso   1.00
O621   O     0.21485   0.49552   0.81218   0.00000  Uiso   1.00
O622   O     0.11848   0.50448   0.68783   0.00000  Uiso   1.00
Zn623  Zn    0.10231   0.50600   0.75521   0.00000  Uiso   1.00
Zn624  Zn    0.23102   0.49400   0.74479   0.00000  Uiso   1.00
C625   C     0.51520   0.59821   0.74912   0.00000  Uiso   1.00
C626   C     0.53269   0.54038   0.90441   0.00000  Uiso   1.00
C627   C     0.49682   0.50034   0.61596   0.00000  Uiso   1.00
C628   C     0.50318   0.49966   0.88404   0.00000  Uiso   1.00
C629   C     0.52390   0.54230   0.59127   0.00000  Uiso   1.00
C630   C     0.47610   0.45770   0.90873   0.00000  Uiso   1.00
C631   C     0.53183   0.53943   0.54471   0.00000  Uiso   1.00
C632   C     0.46818   0.46057   0.95529   0.00000  Uiso   1.00
C633   C     0.49954   0.50006   0.52344   0.00000  Uiso   1.00
C634   C     0.50046   0.49994   0.97656   0.00000  Uiso   1.00
C635   C     0.46580   0.46109   0.54903   0.00000  Uiso   1.00
C636   C     0.48480   0.40179   0.75088   0.00000  Uiso   1.00
C637   C     0.53421   0.53891   0.95097   0.00000  Uiso   1.00
C638   C     0.57011   0.57449   0.51859   0.00000  Uiso   1.00
C639   C     0.42989   0.42551   0.98141   0.00000  Uiso   1.00
C640   C     0.61582   0.60609   0.53701   0.00000  Uiso   1.00
C641   C     0.38419   0.39390   0.96299   0.00000  Uiso   1.00
C642   C     0.56961   0.57480   0.97235   0.00000  Uiso   1.00
C643   C     0.43039   0.42520   0.52765   0.00000  Uiso   1.00
C644   C     0.52287   0.65228   0.74444   0.00000  Uiso   1.00
C645   C     0.47713   0.34772   0.75556   0.00000  Uiso   1.00
C646   C     0.50100   0.50021   0.83643   0.00000  Uiso   1.00
C647   C     0.49900   0.49979   0.66357   0.00000  Uiso   1.00
C648   C     0.46731   0.45962   0.59559   0.00000  Uiso   1.00
H649   H     0.59909   0.60228   0.95334   0.00000  Uiso   1.00
H650   H     0.40092   0.39771   0.54666   0.00000  Uiso   1.00
H651   H     0.33856   0.46211   0.71646   0.00000  Uiso   1.00
H652   H     0.66144   0.53789   0.78354   0.00000  Uiso   1.00
I653   I     0.42478   0.39721   0.63608   0.00000  Uiso   1.00
I654   I     0.57522   0.60279   0.86392   0.00000  Uiso   1.00
I655   I     0.53006   0.61470   0.62340   0.00000  Uiso   1.00
I656   I     0.46994   0.38530   0.87660   0.00000  Uiso   1.00
I657   I     0.60729   0.34406   0.71253   0.00000  Uiso   1.00
I658   I     0.39271   0.65594   0.78747   0.00000  Uiso   1.00
N659   N     0.65011   0.48598   0.73783   0.00000  Uiso   1.00
N660   N     0.34989   0.51402   0.76217   0.00000  Uiso   1.00
N661   N     0.65279   0.63129   0.55136   0.00000  Uiso   1.00
N662   N     0.34722   0.36870   0.94865   0.00000  Uiso   1.00
O663   O     0.46308   0.57952   0.75299   0.00000  Uiso   1.00
O664   O     0.53692   0.42048   0.74702   0.00000  Uiso   1.00
O665   O     0.55946   0.57054   0.74519   0.00000  Uiso   1.00
O666   O     0.44054   0.42946   0.75482   0.00000  Uiso   1.00
O667   O     0.45181   0.50450   0.81998   0.00000  Uiso   1.00
O668   O     0.54819   0.49550   0.68003   0.00000  Uiso   1.00
O669   O     0.54819   0.49552   0.81218   0.00000  Uiso   1.00
O670   O     0.45181   0.50448   0.68783   0.00000  Uiso   1.00
Zn671  Zn    0.43565   0.50600   0.75521   0.00000  Uiso   1.00
Zn672  Zn    0.56435   0.49400   0.74479   0.00000  Uiso   1.00
C673   C     0.84853   0.59821   0.74912   0.00000  Uiso   1.00
C674   C     0.86602   0.54038   0.90441   0.00000  Uiso   1.00
C675   C     0.83016   0.50034   0.61596   0.00000  Uiso   1.00
C676   C     0.83651   0.49966   0.88404   0.00000  Uiso   1.00
C677   C     0.85724   0.54230   0.59127   0.00000  Uiso   1.00
C678   C     0.80943   0.45770   0.90873   0.00000  Uiso   1.00
C679   C     0.86516   0.53943   0.54471   0.00000  Uiso   1.00
C680   C     0.80151   0.46057   0.95529   0.00000  Uiso   1.00
C681   C     0.83287   0.50006   0.52344   0.00000  Uiso   1.00
C682   C     0.83380   0.49994   0.97656   0.00000  Uiso   1.00
C683   C     0.79913   0.46109   0.54903   0.00000  Uiso   1.00
C684   C     0.81813   0.40179   0.75088   0.00000  Uiso   1.00
C685   C     0.86754   0.53891   0.95097   0.00000  Uiso   1.00
C686   C     0.90344   0.57449   0.51859   0.00000  Uiso   1.00
C687   C     0.76323   0.42551   0.98141   0.00000  Uiso   1.00
C688   C     0.94915   0.60609   0.53701   0.00000  Uiso   1.00
C689   C     0.71752   0.39390   0.96299   0.00000  Uiso   1.00
C690   C     0.90294   0.57480   0.97235   0.00000  Uiso   1.00
C691   C     0.76373   0.42520   0.52765   0.00000  Uiso   1.00
C692   C     0.85620   0.65228   0.74444   0.00000  Uiso   1.00
C693   C     0.81046   0.34772   0.75556   0.00000  Uiso   1.00
C694   C     0.83434   0.50021   0.83643   0.00000  Uiso   1.00
C695   C     0.83233   0.49979   0.66357   0.00000  Uiso   1.00
C696   C     0.80065   0.45962   0.59559   0.00000  Uiso   1.00
H697   H     0.93242   0.60228   0.95334   0.00000  Uiso   1.00
H698   H     0.73425   0.39771   0.54666   0.00000  Uiso   1.00
H699   H     0.67189   0.46211   0.71646   0.00000  Uiso   1.00
H700   H     0.99477   0.53789   0.78354   0.00000  Uiso   1.00
I701   I     0.75811   0.39721   0.63608   0.00000  Uiso   1.00
I702   I     0.90856   0.60279   0.86392   0.00000  Uiso   1.00
I703   I     0.86340   0.61470   0.62340   0.00000  Uiso   1.00
I704   I     0.80327   0.38530   0.87660   0.00000  Uiso   1.00
I705   I     0.94062   0.34406   0.71253   0.00000  Uiso   1.00
I706   I     0.72604   0.65594   0.78747   0.00000  Uiso   1.00
N707   N     0.98344   0.48598   0.73783   0.00000  Uiso   1.00
N708   N     0.68322   0.51402   0.76217   0.00000  Uiso   1.00
N709   N     0.98612   0.63129   0.55136   0.00000  Uiso   1.00
N710   N     0.68055   0.36870   0.94865   0.00000  Uiso   1.00
O711   O     0.79642   0.57952   0.75299   0.00000  Uiso   1.00
O712   O     0.87025   0.42048   0.74702   0.00000  Uiso   1.00
O713   O     0.89280   0.57054   0.74519   0.00000  Uiso   1.00
O714   O     0.77387   0.42946   0.75482   0.00000  Uiso   1.00
O715   O     0.78514   0.50450   0.81998   0.00000  Uiso   1.00
O716   O     0.88153   0.49550   0.68003   0.00000  Uiso   1.00
O717   O     0.88152   0.49552   0.81218   0.00000  Uiso   1.00
O718   O     0.78515   0.50448   0.68783   0.00000  Uiso   1.00
Zn719  Zn    0.76898   0.50600   0.75521   0.00000  Uiso   1.00
Zn720  Zn    0.89769   0.49400   0.74479   0.00000  Uiso   1.00
C721   C     0.18187   0.93155   0.74912   0.00000  Uiso   1.00
C722   C     0.19936   0.87371   0.90441   0.00000  Uiso   1.00
C723   C     0.16349   0.83368   0.61596   0.00000  Uiso   1.00
C724   C     0.16984   0.83299   0.88404   0.00000  Uiso   1.00
C725   C     0.19057   0.87564   0.59127   0.00000  Uiso   1.00
C726   C     0.14276   0.79103   0.90873   0.00000  Uiso   1.00
C727   C     0.19849   0.87276   0.54471   0.00000  Uiso   1.00
C728   C     0.13484   0.79390   0.95529   0.00000  Uiso   1.00
C729   C     0.16621   0.83339   0.52344   0.00000  Uiso   1.00
C730   C     0.16713   0.83327   0.97656   0.00000  Uiso   1.00
C731   C     0.13246   0.79442   0.54903   0.00000  Uiso   1.00
C732   C     0.15147   0.73512   0.75088   0.00000  Uiso   1.00
C733   C     0.20087   0.87224   0.95097   0.00000  Uiso   1.00
C734   C     0.23678   0.90782   0.51859   0.00000  Uiso   1.00
C735   C     0.09656   0.75884   0.98141   0.00000  Uiso   1.00
C736   C     0.28248   0.93943   0.53701   0.00000  Uiso   1.00
C737   C     0.05085   0.72723   0.96299   0.00000  Uiso   1.00
C738   C     0.23628   0.90813   0.97235   0.00000  Uiso   1.00
C739   C     0.09706   0.75853   0.52765   0.00000  Uiso   1.00
C740   C     0.18954   0.98562   0.74444   0.00000  Uiso   1.00
C741   C     0.14380   0.68105   0.75556   0.00000  Uiso   1.00
C742   C     0.16767   0.83355   0.83643   0.00000  Uiso   1.00
C743   C     0.16566   0.83312   0.66357   0.00000  Uiso   1.00
C744   C     0.13398   0.79295   0.59559   0.00000  Uiso   1.00
H745   H     0.26575   0.93562   0.95334   0.00000  Uiso   1.00
H746   H     0.06759   0.73105   0.54666   0.00000  Uiso   1.00
H747   H     0.00523   0.79544   0.71646   0.00000  Uiso   1.00
H748   H     0.32811   0.87123   0.78354   0.00000  Uiso   1.00
I749   I     0.09144   0.73054   0.63608   0.00000  Uiso   1.00
I750   I     0.24189   0.93612   0.86392   0.00000  Uiso   1.00
I751   I     0.19673   0.94803   0.62340   0.00000  Uiso   1.00
I752   I     0.13661   0.71863   0.87660   0.00000  Uiso   1.00
I753   I     0.27396   0.67739   0.71253   0.00000  Uiso   1.00
I754   I     0.05937   0.98928   0.78747   0.00000  Uiso   1.00
N755   N     0.31678   0.81932   0.73783   0.00000  Uiso   1.00
N756   N     0.01656   0.84735   0.76217   0.00000  Uiso   1.00
N757   N     0.31945   0.96463   0.55136   0.00000  Uiso   1.00
N758   N     0.01389   0.70203   0.94865   0.00000  Uiso   1.00
O759   O     0.12975   0.91286   0.75299   0.00000  Uiso   1.00
O760   O     0.20358   0.75381   0.74702   0.00000  Uiso   1.00
O761   O     0.22613   0.90387   0.74519   0.00000  Uiso   1.00
O762   O     0.10720   0.76279   0.75482   0.00000  Uiso   1.00
O763   O     0.11847   0.83784   0.81998   0.00000  Uiso   1.00
O764   O     0.21486   0.82883   0.68003   0.00000  Uiso   1.00
O765   O     0.21485   0.82885   0.81218   0.00000  Uiso   1.00
O766   O     0.11848   0.83781   0.68783   0.00000  Uiso   1.00
Zn767  Zn    0.10231   0.83933   0.75521   0.00000  Uiso   1.00
Zn768  Zn    0.23102   0.82734   0.74479   0.00000  Uiso   1.00
C769   C     0.51520   0.93155   0.74912   0.00000  Uiso   1.00
C770   C     0.53269   0.87371   0.90441   0.00000  Uiso   1.00
C771   C     0.49682   0.83368   0.61596   0.00000  Uiso   1.00
C772   C     0.50318   0.83299   0.88404   0.00000  Uiso   1.00
C773   C     0.52390   0.87564   0.59127   0.00000  Uiso   1.00
C774   C     0.47610   0.79103   0.90873   0.00000  Uiso   1.00
C775   C     0.53183   0.87276   0.54471   0.00000  Uiso   1.00
C776   C     0.46818   0.79390   0.95529   0.00000  Uiso   1.00
C777   C     0.49954   0.83339   0.52344   0.00000  Uiso   1.00
C778   C     0.50046   0.83327   0.97656   0.00000  Uiso   1.00
C779   C     0.46580   0.79442   0.54903   0.00000  Uiso   1.00
C780   C     0.48480   0.73512   0.75088   0.00000  Uiso   1.00
C781   C     0.53421   0.87224   0.95097   0.00000  Uiso   1.00
C782   C     0.57011   0.90782   0.51859   0.00000  Uiso   1.00
C783   C     0.42989   0.75884   0.98141   0.00000  Uiso   1.00
C784   C     0.61582   0.93943   0.53701   0.00000  Uiso   1.00
C785   C     0.38419   0.72723   0.96299   0.00000  Uiso   1.00
C786   C     0.56961   0.90813   0.97235   0.00000  Uiso   1.00
C787   C     0.43039   0.75853   0.52765   0.00000  Uiso   1.00
C788   C     0.52287   0.98562   0.74444   0.00000  Uiso   1.00
C789   C     0.47713   0.68105   0.75556   0.00000  Uiso   1.00
C790   C     0.50100   0.83355   0.83643   0.00000  Uiso   1.00
C791   C     0.49900   0.83312   0.66357   0.00000  Uiso   1.00
C792   C     0.46731   0.79295   0.59559   0.00000  Uiso   1.00
H793   H     0.59909   0.93562   0.95334   0.00000  Uiso   1.00
H794   H     0.40092   0.73105   0.54666   0.00000  Uiso   1.00
H795   H     0.33856   0.79544   0.71646   0.00000  Uiso   1.00
H796   H     0.66144   0.87123   0.78354   0.00000  Uiso   1.00
I797   I     0.42478   0.73054   0.63608   0.00000  Uiso   1.00
I798   I     0.57522   0.93612   0.86392   0.00000  Uiso   1.00
I799   I     0.53006   0.94803   0.62340   0.00000  Uiso   1.00
I800   I     0.46994   0.71863   0.87660   0.00000  Uiso   1.00
I801   I     0.60729   0.67739   0.71253   0.00000  Uiso   1.00
I802   I     0.39271   0.98928   0.78747   0.00000  Uiso   1.00
N803   N     0.65011   0.81932   0.73783   0.00000  Uiso   1.00
N804   N     0.34989   0.84735   0.76217   0.00000  Uiso   1.00
N805   N     0.65279   0.96463   0.55136   0.00000  Uiso   1.00
N806   N     0.34722   0.70203   0.94865   0.00000  Uiso   1.00
O807   O     0.46308   0.91286   0.75299   0.00000  Uiso   1.00
O808   O     0.53692   0.75381   0.74702   0.00000  Uiso   1.00
O809   O     0.55946   0.90387   0.74519   0.00000  Uiso   1.00
O810   O     0.44054   0.76279   0.75482   0.00000  Uiso   1.00
O811   O     0.45181   0.83784   0.81998   0.00000  Uiso   1.00
O812   O     0.54819   0.82883   0.68003   0.00000  Uiso   1.00
O813   O     0.54819   0.82885   0.81218   0.00000  Uiso   1.00
O814   O     0.45181   0.83781   0.68783   0.00000  Uiso   1.00
Zn815  Zn    0.43565   0.83933   0.75521   0.00000  Uiso   1.00
Zn816  Zn    0.56435   0.82734   0.74479   0.00000  Uiso   1.00
C817   C     0.84853   0.93155   0.74912   0.00000  Uiso   1.00
C818   C     0.86602   0.87371   0.90441   0.00000  Uiso   1.00
C819   C     0.83016   0.83368   0.61596   0.00000  Uiso   1.00
C820   C     0.83651   0.83299   0.88404   0.00000  Uiso   1.00
C821   C     0.85724   0.87564   0.59127   0.00000  Uiso   1.00
C822   C     0.80943   0.79103   0.90873   0.00000  Uiso   1.00
C823   C     0.86516   0.87276   0.54471   0.00000  Uiso   1.00
C824   C     0.80151   0.79390   0.95529   0.00000  Uiso   1.00
C825   C     0.83287   0.83339   0.52344   0.00000  Uiso   1.00
C826   C     0.83380   0.83327   0.97656   0.00000  Uiso   1.00
C827   C     0.79913   0.79442   0.54903   0.00000  Uiso   1.00
C828   C     0.81813   0.73512   0.75088   0.00000  Uiso   1.00
C829   C     0.86754   0.87224   0.95097   0.00000  Uiso   1.00
C830   C     0.90344   0.90782   0.51859   0.00000  Uiso   1.00
C831   C     0.76323   0.75884   0.98141   0.00000  Uiso   1.00
C832   C     0.94915   0.93943   0.53701   0.00000  Uiso   1.00
C833   C     0.71752   0.72723   0.96299   0.00000  Uiso   1.00
C834   C     0.90294   0.90813   0.97235   0.00000  Uiso   1.00
C835   C     0.76373   0.75853   0.52765   0.00000  Uiso   1.00
C836   C     0.85620   0.98562   0.74444   0.00000  Uiso   1.00
C837   C     0.81046   0.68105   0.75556   0.00000  Uiso   1.00
C838   C     0.83434   0.83355   0.83643   0.00000  Uiso   1.00
C839   C     0.83233   0.83312   0.66357   0.00000  Uiso   1.00
C840   C     0.80065   0.79295   0.59559   0.00000  Uiso   1.00
H841   H     0.93242   0.93562   0.95334   0.00000  Uiso   1.00
H842   H     0.73425   0.73105   0.54666   0.00000  Uiso   1.00
H843   H     0.67189   0.79544   0.71646   0.00000  Uiso   1.00
H844   H     0.99477   0.87123   0.78354   0.00000  Uiso   1.00
I845   I     0.75811   0.73054   0.63608   0.00000  Uiso   1.00
I846   I     0.90856   0.93612   0.86392   0.00000  Uiso   1.00
I847   I     0.86340   0.94803   0.62340   0.00000  Uiso   1.00
I848   I     0.80327   0.71863   0.87660   0.00000  Uiso   1.00
I849   I     0.94062   0.67739   0.71253   0.00000  Uiso   1.00
I850   I     0.72604   0.98928   0.78747   0.00000  Uiso   1.00
N851   N     0.98344   0.81932   0.73783   0.00000  Uiso   1.00
N852   N     0.68322   0.84735   0.76217   0.00000  Uiso   1.00
N853   N     0.98612   0.96463   0.55136   0.00000  Uiso   1.00
N854   N     0.68055   0.70203   0.94865   0.00000  Uiso   1.00
O855   O     0.79642   0.91286   0.75299   0.00000  Uiso   1.00
O856   O     0.87025   0.75381   0.74702   0.00000  Uiso   1.00
O857   O     0.89280   0.90387   0.74519   0.00000  Uiso   1.00
O858   O     0.77387   0.76279   0.75482   0.00000  Uiso   1.00
O859   O     0.78514   0.83784   0.81998   0.00000  Uiso   1.00
O860   O     0.88153   0.82883   0.68003   0.00000  Uiso   1.00
O861   O     0.88152   0.82885   0.81218   0.00000  Uiso   1.00
O862   O     0.78515   0.83781   0.68783   0.00000  Uiso   1.00
Zn863  Zn    0.76898   0.83933   0.75521   0.00000  Uiso   1.00
Zn864  Zn    0.89769   0.82734   0.74479   0.00000  Uiso   1.00
loop_
_geom_bond_atom_site_label_1
_geom_bond_atom_site_label_2
_geom_bond_distance
_geom_bond_site_symmetry_2
_ccdc_geom_bond_type
C1     O41     1.292   .     A
C1     O39     1.271   .     A
C1     C20     1.409   .     S
C2     C4      1.397   .     A
C2     I30     2.152   .     S
C2     C13     1.397   .     A
C3     C23     1.430   .     S
C3     C24     1.397   .     A
C3     C5      1.396   .     A
C4     C22     1.430   .     S
C4     C6      1.396   .     A
C5     C7      1.397   .     A
C5     I31     2.131   .     S
C6     C8      1.397   .     A
C6     I32     2.131   .     S
C7     C9      1.417   .     A
C7     C14     1.415   .     A
C8     C15     1.415   .     A
C8     C10     1.417   .     A
C9     C11     1.418   .     A
C9     C442    1.402   1_554 S
C10    C13     1.418   .     A
C10    C441    1.402   .     S
C11    C19     1.398   .     A
C11    C24     1.397   .     A
C12    O40     1.271   .     A
C12    O42     1.292   .     A
C12    C21     1.409   .     S
C13    C18     1.398   .     A
C14    C16     1.447   .     S
C14    C450    1.385   1_554 S
C15    C17     1.447   .     S
C15    C451    1.385   .     S
C16    N37     1.158   .     T
C17    N38     1.158   .     T
C18    H25     1.081   .     S
C18    C446    1.385   .     S
C19    H26     1.081   .     S
C19    C447    1.385   1_554 S
C20    C165    1.364   .     S
C20    I177    2.173   .     S
C21    C308    1.364   1_545 S
C21    I322    2.173   1_545 S
C22    O43     1.287   .     A
C22    O45     1.284   .     A
C23    O46     1.284   .     A
C23    O44     1.287   .     A
C24    I29     2.152   .     S
H27    N131    1.029   1_455 S
H28    N84     1.029   .     S
I33    C308    2.173   1_545 S
I34    C165    2.173   .     S
N35    Zn48    2.012   .     S
N35    H75     1.029   .     S
N35    N84     1.296   .     S
N36    Zn47    2.012   .     S
N36    H124    1.029   1_455 S
N36    N131    1.296   1_455 S
O39    Zn47    1.974   .     S
O40    Zn48    1.974   .     S
O41    Zn48    2.002   .     S
O42    Zn47    2.002   .     S
O43    Zn47    2.002   .     S
O44    Zn48    2.002   .     S
O45    Zn48    2.027   .     S
O46    Zn47    2.027   .     S
C49    O89     1.292   .     A
C49    O87     1.271   .     A
C49    C68     1.409   .     S
C50    C52     1.397   .     A
C50    I78     2.152   .     S
C50    C61     1.397   .     A
C51    C71     1.430   .     S
C51    C72     1.397   .     A
C51    C53     1.396   .     A
C52    C70     1.430   .     S
C52    C54     1.396   .     A
C53    C55     1.397   .     A
C53    I79     2.131   .     S
C54    C56     1.397   .     A
C54    I80     2.131   .     S
C55    C57     1.417   .     A
C55    C62     1.415   .     A
C56    C63     1.415   .     A
C56    C58     1.417   .     A
C57    C59     1.418   .     A
C57    C490    1.402   1_554 S
C58    C61     1.418   .     A
C58    C489    1.402   .     S
C59    C67     1.398   .     A
C59    C72     1.397   .     A
C60    O88     1.271   .     A
C60    O90     1.292   .     A
C60    C69     1.409   .     S
C61    C66     1.398   .     A
C62    C64     1.447   .     S
C62    C498    1.385   1_554 S
C63    C65     1.447   .     S
C63    C499    1.385   .     S
C64    N85     1.158   .     T
C65    N86     1.158   .     T
C66    H73     1.081   .     S
C66    C494    1.385   .     S
C67    H74     1.081   .     S
C67    C495    1.385   1_554 S
C68    C213    1.364   .     S
C68    I225    2.173   .     S
C69    C356    1.364   1_545 S
C69    I370    2.173   1_545 S
C70    O91     1.287   .     A
C70    O93     1.284   .     A
C71    O94     1.284   .     A
C71    O92     1.287   .     A
C72    I77     2.152   .     S
H76    N132    1.029   .     S
I81    C356    2.173   1_545 S
I82    C213    2.173   .     S
N83    Zn96    2.012   .     S
N83    H123    1.029   .     S
N83    N132    1.296   .     S
N84    Zn95    2.012   .     S
O87    Zn95    1.974   .     S
O88    Zn96    1.974   .     S
O89    Zn96    2.002   .     S
O90    Zn95    2.002   .     S
O91    Zn95    2.002   .     S
O92    Zn96    2.002   .     S
O93    Zn96    2.027   .     S
O94    Zn95    2.027   .     S
C97    O137    1.292   .     A
C97    O135    1.271   .     A
C97    C116    1.409   .     S
C98    C100    1.397   .     A
C98    I126    2.152   .     S
C98    C109    1.397   .     A
C99    C119    1.430   .     S
C99    C120    1.397   .     A
C99    C101    1.396   .     A
C100   C118    1.430   .     S
C100   C102    1.396   .     A
C101   C103    1.397   .     A
C101   I127    2.131   .     S
C102   C104    1.397   .     A
C102   I128    2.131   .     S
C103   C105    1.417   .     A
C103   C110    1.415   .     A
C104   C111    1.415   .     A
C104   C106    1.417   .     A
C105   C107    1.418   .     A
C105   C538    1.402   1_554 S
C106   C109    1.418   .     A
C106   C537    1.402   .     S
C107   C115    1.398   .     A
C107   C120    1.397   .     A
C108   O136    1.271   .     A
C108   O138    1.292   .     A
C108   C117    1.409   .     S
C109   C114    1.398   .     A
C110   C112    1.447   .     S
C110   C546    1.385   1_554 S
C111   C113    1.447   .     S
C111   C547    1.385   .     S
C112   N133    1.158   .     T
C113   N134    1.158   .     T
C114   H121    1.081   .     S
C114   C542    1.385   .     S
C115   H122    1.081   .     S
C115   C543    1.385   1_554 S
C116   C261    1.364   .     S
C116   I273    2.173   .     S
C117   C404    1.364   1_545 S
C117   I418    2.173   1_545 S
C118   O139    1.287   .     A
C118   O141    1.284   .     A
C119   O142    1.284   .     A
C119   O140    1.287   .     A
C120   I125    2.152   .     S
H124   N36     1.029   1_655 S
I129   C404    2.173   1_545 S
I130   C261    2.173   .     S
N131   Zn144   2.012   .     S
N131   H27     1.029   1_655 S
N131   N36     1.296   1_655 S
N132   Zn143   2.012   .     S
O135   Zn143   1.974   .     S
O136   Zn144   1.974   .     S
O137   Zn144   2.002   .     S
O138   Zn143   2.002   .     S
O139   Zn143   2.002   .     S
O140   Zn144   2.002   .     S
O141   Zn144   2.027   .     S
O142   Zn143   2.027   .     S
C145   O185    1.292   .     A
C145   O183    1.271   .     A
C145   C164    1.409   .     S
C146   C148    1.397   .     A
C146   I174    2.152   .     S
C146   C157    1.397   .     A
C147   C167    1.430   .     S
C147   C168    1.397   .     A
C147   C149    1.396   .     A
C148   C166    1.430   .     S
C148   C150    1.396   .     A
C149   C151    1.397   .     A
C149   I175    2.131   .     S
C150   C152    1.397   .     A
C150   I176    2.131   .     S
C151   C153    1.417   .     A
C151   C158    1.415   .     A
C152   C159    1.415   .     A
C152   C154    1.417   .     A
C153   C155    1.418   .     A
C153   C586    1.402   1_554 S
C154   C157    1.418   .     A
C154   C585    1.402   .     S
C155   C163    1.398   .     A
C155   C168    1.397   .     A
C156   O184    1.271   .     A
C156   O186    1.292   .     A
C156   C165    1.409   .     S
C157   C162    1.398   .     A
C158   C160    1.447   .     S
C158   C594    1.385   1_554 S
C159   C161    1.447   .     S
C159   C595    1.385   .     S
C160   N181    1.158   .     T
C161   N182    1.158   .     T
C162   H169    1.081   .     S
C162   C590    1.385   .     S
C163   H170    1.081   .     S
C163   C591    1.385   1_554 S
C164   C309    1.364   .     S
C164   I321    2.173   .     S
C166   O187    1.287   .     A
C166   O189    1.284   .     A
C167   O190    1.284   .     A
C167   O188    1.287   .     A
C168   I173    2.152   .     S
H171   N275    1.029   1_455 S
H172   N228    1.029   .     S
I178   C309    2.173   .     S
N179   Zn192   2.012   .     S
N179   H219    1.029   .     S
N179   N228    1.296   .     S
N180   Zn191   2.012   .     S
N180   H268    1.029   1_455 S
N180   N275    1.296   1_455 S
O183   Zn191   1.974   .     S
O184   Zn192   1.974   .     S
O185   Zn192   2.002   .     S
O186   Zn191   2.002   .     S
O187   Zn191   2.002   .     S
O188   Zn192   2.002   .     S
O189   Zn192   2.027   .     S
O190   Zn191   2.027   .     S
C193   O233    1.292   .     A
C193   O231    1.271   .     A
C193   C212    1.409   .     S
C194   C196    1.397   .     A
C194   I222    2.152   .     S
C194   C205    1.397   .     A
C195   C215    1.430   .     S
C195   C216    1.397   .     A
C195   C197    1.396   .     A
C196   C214    1.430   .     S
C196   C198    1.396   .     A
C197   C199    1.397   .     A
C197   I223    2.131   .     S
C198   C200    1.397   .     A
C198   I224    2.131   .     S
C199   C201    1.417   .     A
C199   C206    1.415   .     A
C200   C207    1.415   .     A
C200   C202    1.417   .     A
C201   C203    1.418   .     A
C201   C634    1.402   1_554 S
C202   C205    1.418   .     A
C202   C633    1.402   .     S
C203   C211    1.398   .     A
C203   C216    1.397   .     A
C204   O232    1.271   .     A
C204   O234    1.292   .     A
C204   C213    1.409   .     S
C205   C210    1.398   .     A
C206   C208    1.447   .     S
C206   C642    1.385   1_554 S
C207   C209    1.447   .     S
C207   C643    1.385   .     S
C208   N229    1.158   .     T
C209   N230    1.158   .     T
C210   H217    1.081   .     S
C210   C638    1.385   .     S
C211   H218    1.081   .     S
C211   C639    1.385   1_554 S
C212   C357    1.364   .     S
C212   I369    2.173   .     S
C214   O235    1.287   .     A
C214   O237    1.284   .     A
C215   O238    1.284   .     A
C215   O236    1.287   .     A
C216   I221    2.152   .     S
H220   N276    1.029   .     S
I226   C357    2.173   .     S
N227   Zn240   2.012   .     S
N227   H267    1.029   .     S
N227   N276    1.296   .     S
N228   Zn239   2.012   .     S
O231   Zn239   1.974   .     S
O232   Zn240   1.974   .     S
O233   Zn240   2.002   .     S
O234   Zn239   2.002   .     S
O235   Zn239   2.002   .     S
O236   Zn240   2.002   .     S
O237   Zn240   2.027   .     S
O238   Zn239   2.027   .     S
C241   O281    1.292   .     A
C241   O279    1.271   .     A
C241   C260    1.409   .     S
C242   C244    1.397   .     A
C242   I270    2.152   .     S
C242   C253    1.397   .     A
C243   C263    1.430   .     S
C243   C264    1.397   .     A
C243   C245    1.396   .     A
C244   C262    1.430   .     S
C244   C246    1.396   .     A
C245   C247    1.397   .     A
C245   I271    2.131   .     S
C246   C248    1.397   .     A
C246   I272    2.131   .     S
C247   C249    1.417   .     A
C247   C254    1.415   .     A
C248   C255    1.415   .     A
C248   C250    1.417   .     A
C249   C251    1.418   .     A
C249   C682    1.402   1_554 S
C250   C253    1.418   .     A
C250   C681    1.402   .     S
C251   C259    1.398   .     A
C251   C264    1.397   .     A
C252   O280    1.271   .     A
C252   O282    1.292   .     A
C252   C261    1.409   .     S
C253   C258    1.398   .     A
C254   C256    1.447   .     S
C254   C690    1.385   1_554 S
C255   C257    1.447   .     S
C255   C691    1.385   .     S
C256   N277    1.158   .     T
C257   N278    1.158   .     T
C258   H265    1.081   .     S
C258   C686    1.385   .     S
C259   H266    1.081   .     S
C259   C687    1.385   1_554 S
C260   C405    1.364   .     S
C260   I417    2.173   .     S
C262   O283    1.287   .     A
C262   O285    1.284   .     A
C263   O286    1.284   .     A
C263   O284    1.287   .     A
C264   I269    2.152   .     S
H268   N180    1.029   1_655 S
I274   C405    2.173   .     S
N275   Zn288   2.012   .     S
N275   H171    1.029   1_655 S
N275   N180    1.296   1_655 S
N276   Zn287   2.012   .     S
O279   Zn287   1.974   .     S
O280   Zn288   1.974   .     S
O281   Zn288   2.002   .     S
O282   Zn287   2.002   .     S
O283   Zn287   2.002   .     S
O284   Zn288   2.002   .     S
O285   Zn288   2.027   .     S
O286   Zn287   2.027   .     S
C289   O329    1.292   .     A
C289   O327    1.271   .     A
C289   C308    1.409   .     S
C290   C292    1.397   .     A
C290   I318    2.152   .     S
C290   C301    1.397   .     A
C291   C311    1.430   .     S
C291   C312    1.397   .     A
C291   C293    1.396   .     A
C292   C310    1.430   .     S
C292   C294    1.396   .     A
C293   C295    1.397   .     A
C293   I319    2.131   .     S
C294   C296    1.397   .     A
C294   I320    2.131   .     S
C295   C297    1.417   .     A
C295   C302    1.415   .     A
C296   C303    1.415   .     A
C296   C298    1.417   .     A
C297   C299    1.418   .     A
C297   C730    1.402   1_554 S
C298   C301    1.418   .     A
C298   C729    1.402   .     S
C299   C307    1.398   .     A
C299   C312    1.397   .     A
C300   O328    1.271   .     A
C300   O330    1.292   .     A
C300   C309    1.409   .     S
C301   C306    1.398   .     A
C302   C304    1.447   .     S
C302   C738    1.385   1_554 S
C303   C305    1.447   .     S
C303   C739    1.385   .     S
C304   N325    1.158   .     T
C305   N326    1.158   .     T
C306   H313    1.081   .     S
C306   C734    1.385   .     S
C307   H314    1.081   .     S
C307   C735    1.385   1_554 S
C308   C21     1.364   1_565 S
C308   I33     2.173   1_565 S
C310   O331    1.287   .     A
C310   O333    1.284   .     A
C311   O334    1.284   .     A
C311   O332    1.287   .     A
C312   I317    2.152   .     S
H315   N419    1.029   1_455 S
H316   N372    1.029   .     S
I322   C21     2.173   1_565 S
N323   Zn336   2.012   .     S
N323   H363    1.029   .     S
N323   N372    1.296   .     S
N324   Zn335   2.012   .     S
N324   H412    1.029   1_455 S
N324   N419    1.296   1_455 S
O327   Zn335   1.974   .     S
O328   Zn336   1.974   .     S
O329   Zn336   2.002   .     S
O330   Zn335   2.002   .     S
O331   Zn335   2.002   .     S
O332   Zn336   2.002   .     S
O333   Zn336   2.027   .     S
O334   Zn335   2.027   .     S
C337   O377    1.292   .     A
C337   O375    1.271   .     A
C337   C356    1.409   .     S
C338   C340    1.397   .     A
C338   I366    2.152   .     S
C338   C349    1.397   .     A
C339   C359    1.430   .     S
C339   C360    1.397   .     A
C339   C341    1.396   .     A
C340   C358    1.430   .     S
C340   C342    1.396   .     A
C341   C343    1.397   .     A
C341   I367    2.131   .     S
C342   C344    1.397   .     A
C342   I368    2.131   .     S
C343   C345    1.417   .     A
C343   C350    1.415   .     A
C344   C351    1.415   .     A
C344   C346    1.417   .     A
C345   C347    1.418   .     A
C345   C778    1.402   1_554 S
C346   C349    1.418   .     A
C346   C777    1.402   .     S
C347   C355    1.398   .     A
C347   C360    1.397   .     A
C348   O376    1.271   .     A
C348   O378    1.292   .     A
C348   C357    1.409   .     S
C349   C354    1.398   .     A
C350   C352    1.447   .     S
C350   C786    1.385   1_554 S
C351   C353    1.447   .     S
C351   C787    1.385   .     S
C352   N373    1.158   .     T
C353   N374    1.158   .     T
C354   H361    1.081   .     S
C354   C782    1.385   .     S
C355   H362    1.081   .     S
C355   C783    1.385   1_554 S
C356   C69     1.364   1_565 S
C356   I81     2.173   1_565 S
C358   O379    1.287   .     A
C358   O381    1.284   .     A
C359   O382    1.284   .     A
C359   O380    1.287   .     A
C360   I365    2.152   .     S
H364   N420    1.029   .     S
I370   C69     2.173   1_565 S
N371   Zn384   2.012   .     S
N371   H411    1.029   .     S
N371   N420    1.296   .     S
N372   Zn383   2.012   .     S
O375   Zn383   1.974   .     S
O376   Zn384   1.974   .     S
O377   Zn384   2.002   .     S
O378   Zn383   2.002   .     S
O379   Zn383   2.002   .     S
O380   Zn384   2.002   .     S
O381   Zn384   2.027   .     S
O382   Zn383   2.027   .     S
C385   O425    1.292   .     A
C385   O423    1.271   .     A
C385   C404    1.409   .     S
C386   C388    1.397   .     A
C386   I414    2.152   .     S
C386   C397    1.397   .     A
C387   C407    1.430   .     S
C387   C408    1.397   .     A
C387   C389    1.396   .     A
C388   C406    1.430   .     S
C388   C390    1.396   .     A
C389   C391    1.397   .     A
C389   I415    2.131   .     S
C390   C392    1.397   .     A
C390   I416    2.131   .     S
C391   C393    1.417   .     A
C391   C398    1.415   .     A
C392   C399    1.415   .     A
C392   C394    1.417   .     A
C393   C395    1.418   .     A
C393   C826    1.402   1_554 S
C394   C397    1.418   .     A
C394   C825    1.402   .     S
C395   C403    1.398   .     A
C395   C408    1.397   .     A
C396   O424    1.271   .     A
C396   O426    1.292   .     A
C396   C405    1.409   .     S
C397   C402    1.398   .     A
C398   C400    1.447   .     S
C398   C834    1.385   1_554 S
C399   C401    1.447   .     S
C399   C835    1.385   .     S
C400   N421    1.158   .     T
C401   N422    1.158   .     T
C402   H409    1.081   .     S
C402   C830    1.385   .     S
C403   H410    1.081   .     S
C403   C831    1.385   1_554 S
C404   C117    1.364   1_565 S
C404   I129    2.173   1_565 S
C406   O427    1.287   .     A
C406   O429    1.284   .     A
C407   O430    1.284   .     A
C407   O428    1.287   .     A
C408   I413    2.152   .     S
H412   N324    1.029   1_655 S
I418   C117    2.173   1_565 S
N419   Zn432   2.012   .     S
N419   H315    1.029   1_655 S
N419   N324    1.296   1_655 S
N420   Zn431   2.012   .     S
O423   Zn431   1.974   .     S
O424   Zn432   1.974   .     S
O425   Zn432   2.002   .     S
O426   Zn431   2.002   .     S
O427   Zn431   2.002   .     S
O428   Zn432   2.002   .     S
O429   Zn432   2.027   .     S
O430   Zn431   2.027   .     S
C433   O473    1.292   .     A
C433   O471    1.271   .     A
C433   C452    1.409   .     S
C434   C436    1.397   .     A
C434   I462    2.152   .     S
C434   C445    1.397   .     A
C435   C455    1.430   .     S
C435   C456    1.397   .     A
C435   C437    1.396   .     A
C436   C454    1.430   .     S
C436   C438    1.396   .     A
C437   C439    1.397   .     A
C437   I463    2.131   .     S
C438   C440    1.397   .     A
C438   I464    2.131   .     S
C439   C441    1.417   .     A
C439   C446    1.415   .     A
C440   C447    1.415   .     A
C440   C442    1.417   .     A
C441   C443    1.418   .     A
C442   C445    1.418   .     A
C442   C9      1.402   1_556 S
C443   C451    1.398   .     A
C443   C456    1.397   .     A
C444   O472    1.271   .     A
C444   O474    1.292   .     A
C444   C453    1.409   .     S
C445   C450    1.398   .     A
C446   C448    1.447   .     S
C447   C449    1.447   .     S
C447   C19     1.385   1_556 S
C448   N469    1.158   .     T
C449   N470    1.158   .     T
C450   H457    1.081   .     S
C450   C14     1.385   1_556 S
C451   H458    1.081   .     S
C452   C597    1.364   .     S
C452   I609    2.173   .     S
C453   C740    1.364   1_545 S
C453   I754    2.173   1_545 S
C454   O475    1.287   .     A
C454   O477    1.284   .     A
C455   O478    1.284   .     A
C455   O476    1.287   .     A
C456   I461    2.152   .     S
H459   N563    1.029   1_455 S
H460   N516    1.029   .     S
I465   C740    2.173   1_545 S
I466   C597    2.173   .     S
N467   Zn480   2.012   .     S
N467   H507    1.029   .     S
N467   N516    1.296   .     S
N468   Zn479   2.012   .     S
N468   H556    1.029   1_455 S
N468   N563    1.296   1_455 S
O471   Zn479   1.974   .     S
O472   Zn480   1.974   .     S
O473   Zn480   2.002   .     S
O474   Zn479   2.002   .     S
O475   Zn479   2.002   .     S
O476   Zn480   2.002   .     S
O477   Zn480   2.027   .     S
O478   Zn479   2.027   .     S
C481   O521    1.292   .     A
C481   O519    1.271   .     A
C481   C500    1.409   .     S
C482   C484    1.397   .     A
C482   I510    2.152   .     S
C482   C493    1.397   .     A
C483   C503    1.430   .     S
C483   C504    1.397   .     A
C483   C485    1.396   .     A
C484   C502    1.430   .     S
C484   C486    1.396   .     A
C485   C487    1.397   .     A
C485   I511    2.131   .     S
C486   C488    1.397   .     A
C486   I512    2.131   .     S
C487   C489    1.417   .     A
C487   C494    1.415   .     A
C488   C495    1.415   .     A
C488   C490    1.417   .     A
C489   C491    1.418   .     A
C490   C493    1.418   .     A
C490   C57     1.402   1_556 S
C491   C499    1.398   .     A
C491   C504    1.397   .     A
C492   O520    1.271   .     A
C492   O522    1.292   .     A
C492   C501    1.409   .     S
C493   C498    1.398   .     A
C494   C496    1.447   .     S
C495   C497    1.447   .     S
C495   C67     1.385   1_556 S
C496   N517    1.158   .     T
C497   N518    1.158   .     T
C498   H505    1.081   .     S
C498   C62     1.385   1_556 S
C499   H506    1.081   .     S
C500   C645    1.364   .     S
C500   I657    2.173   .     S
C501   C788    1.364   1_545 S
C501   I802    2.173   1_545 S
C502   O523    1.287   .     A
C502   O525    1.284   .     A
C503   O526    1.284   .     A
C503   O524    1.287   .     A
C504   I509    2.152   .     S
H508   N564    1.029   .     S
I513   C788    2.173   1_545 S
I514   C645    2.173   .     S
N515   Zn528   2.012   .     S
N515   H555    1.029   .     S
N515   N564    1.296   .     S
N516   Zn527   2.012   .     S
O519   Zn527   1.974   .     S
O520   Zn528   1.974   .     S
O521   Zn528   2.002   .     S
O522   Zn527   2.002   .     S
O523   Zn527   2.002   .     S
O524   Zn528   2.002   .     S
O525   Zn528   2.027   .     S
O526   Zn527   2.027   .     S
C529   O569    1.292   .     A
C529   O567    1.271   .     A
C529   C548    1.409   .     S
C530   C532    1.397   .     A
C530   I558    2.152   .     S
C530   C541    1.397   .     A
C531   C551    1.430   .     S
C531   C552    1.397   .     A
C531   C533    1.396   .     A
C532   C550    1.430   .     S
C532   C534    1.396   .     A
C533   C535    1.397   .     A
C533   I559    2.131   .     S
C534   C536    1.397   .     A
C534   I560    2.131   .     S
C535   C537    1.417   .     A
C535   C542    1.415   .     A
C536   C543    1.415   .     A
C536   C538    1.417   .     A
C537   C539    1.418   .     A
C538   C541    1.418   .     A
C538   C105    1.402   1_556 S
C539   C547    1.398   .     A
C539   C552    1.397   .     A
C540   O568    1.271   .     A
C540   O570    1.292   .     A
C540   C549    1.409   .     S
C541   C546    1.398   .     A
C542   C544    1.447   .     S
C543   C545    1.447   .     S
C543   C115    1.385   1_556 S
C544   N565    1.158   .     T
C545   N566    1.158   .     T
C546   H553    1.081   .     S
C546   C110    1.385   1_556 S
C547   H554    1.081   .     S
C548   C693    1.364   .     S
C548   I705    2.173   .     S
C549   C836    1.364   1_545 S
C549   I850    2.173   1_545 S
C550   O571    1.287   .     A
C550   O573    1.284   .     A
C551   O574    1.284   .     A
C551   O572    1.287   .     A
C552   I557    2.152   .     S
H556   N468    1.029   1_655 S
I561   C836    2.173   1_545 S
I562   C693    2.173   .     S
N563   Zn576   2.012   .     S
N563   H459    1.029   1_655 S
N563   N468    1.296   1_655 S
N564   Zn575   2.012   .     S
O567   Zn575   1.974   .     S
O568   Zn576   1.974   .     S
O569   Zn576   2.002   .     S
O570   Zn575   2.002   .     S
O571   Zn575   2.002   .     S
O572   Zn576   2.002   .     S
O573   Zn576   2.027   .     S
O574   Zn575   2.027   .     S
C577   O617    1.292   .     A
C577   O615    1.271   .     A
C577   C596    1.409   .     S
C578   C580    1.397   .     A
C578   I606    2.152   .     S
C578   C589    1.397   .     A
C579   C599    1.430   .     S
C579   C600    1.397   .     A
C579   C581    1.396   .     A
C580   C598    1.430   .     S
C580   C582    1.396   .     A
C581   C583    1.397   .     A
C581   I607    2.131   .     S
C582   C584    1.397   .     A
C582   I608    2.131   .     S
C583   C585    1.417   .     A
C583   C590    1.415   .     A
C584   C591    1.415   .     A
C584   C586    1.417   .     A
C585   C587    1.418   .     A
C586   C589    1.418   .     A
C586   C153    1.402   1_556 S
C587   C595    1.398   .     A
C587   C600    1.397   .     A
C588   O616    1.271   .     A
C588   O618    1.292   .     A
C588   C597    1.409   .     S
C589   C594    1.398   .     A
C590   C592    1.447   .     S
C591   C593    1.447   .     S
C591   C163    1.385   1_556 S
C592   N613    1.158   .     T
C593   N614    1.158   .     T
C594   H601    1.081   .     S
C594   C158    1.385   1_556 S
C595   H602    1.081   .     S
C596   C741    1.364   .     S
C596   I753    2.173   .     S
C598   O619    1.287   .     A
C598   O621    1.284   .     A
C599   O622    1.284   .     A
C599   O620    1.287   .     A
C600   I605    2.152   .     S
H603   N707    1.029   1_455 S
H604   N660    1.029   .     S
I610   C741    2.173   .     S
N611   Zn624   2.012   .     S
N611   H651    1.029   .     S
N611   N660    1.296   .     S
N612   Zn623   2.012   .     S
N612   H700    1.029   1_455 S
N612   N707    1.296   1_455 S
O615   Zn623   1.974   .     S
O616   Zn624   1.974   .     S
O617   Zn624   2.002   .     S
O618   Zn623   2.002   .     S
O619   Zn623   2.002   .     S
O620   Zn624   2.002   .     S
O621   Zn624   2.027   .     S
O622   Zn623   2.027   .     S
C625   O665    1.292   .     A
C625   O663    1.271   .     A
C625   C644    1.409   .     S
C626   C628    1.397   .     A
C626   I654    2.152   .     S
C626   C637    1.397   .     A
C627   C647    1.430   .     S
C627   C648    1.397   .     A
C627   C629    1.396   .     A
C628   C646    1.430   .     S
C628   C630    1.396   .     A
C629   C631    1.397   .     A
C629   I655    2.131   .     S
C630   C632    1.397   .     A
C630   I656    2.131   .     S
C631   C633    1.417   .     A
C631   C638    1.415   .     A
C632   C639    1.415   .     A
C632   C634    1.417   .     A
C633   C635    1.418   .     A
C634   C637    1.418   .     A
C634   C201    1.402   1_556 S
C635   C643    1.398   .     A
C635   C648    1.397   .     A
C636   O664    1.271   .     A
C636   O666    1.292   .     A
C636   C645    1.409   .     S
C637   C642    1.398   .     A
C638   C640    1.447   .     S
C639   C641    1.447   .     S
C639   C211    1.385   1_556 S
C640   N661    1.158   .     T
C641   N662    1.158   .     T
C642   H649    1.081   .     S
C642   C206    1.385   1_556 S
C643   H650    1.081   .     S
C644   C789    1.364   .     S
C644   I801    2.173   .     S
C646   O667    1.287   .     A
C646   O669    1.284   .     A
C647   O670    1.284   .     A
C647   O668    1.287   .     A
C648   I653    2.152   .     S
H652   N708    1.029   .     S
I658   C789    2.173   .     S
N659   Zn672   2.012   .     S
N659   H699    1.029   .     S
N659   N708    1.296   .     S
N660   Zn671   2.012   .     S
O663   Zn671   1.974   .     S
O664   Zn672   1.974   .     S
O665   Zn672   2.002   .     S
O666   Zn671   2.002   .     S
O667   Zn671   2.002   .     S
O668   Zn672   2.002   .     S
O669   Zn672   2.027   .     S
O670   Zn671   2.027   .     S
C673   O713    1.292   .     A
C673   O711    1.271   .     A
C673   C692    1.409   .     S
C674   C676    1.397   .     A
C674   I702    2.152   .     S
C674   C685    1.397   .     A
C675   C695    1.430   .     S
C675   C696    1.397   .     A
C675   C677    1.396   .     A
C676   C694    1.430   .     S
C676   C678    1.396   .     A
C677   C679    1.397   .     A
C677   I703    2.131   .     S
C678   C680    1.397   .     A
C678   I704    2.131   .     S
C679   C681    1.417   .     A
C679   C686    1.415   .     A
C680   C687    1.415   .     A
C680   C682    1.417   .     A
C681   C683    1.418   .     A
C682   C685    1.418   .     A
C682   C249    1.402   1_556 S
C683   C691    1.398   .     A
C683   C696    1.397   .     A
C684   O712    1.271   .     A
C684   O714    1.292   .     A
C684   C693    1.409   .     S
C685   C690    1.398   .     A
C686   C688    1.447   .     S
C687   C689    1.447   .     S
C687   C259    1.385   1_556 S
C688   N709    1.158   .     T
C689   N710    1.158   .     T
C690   H697    1.081   .     S
C690   C254    1.385   1_556 S
C691   H698    1.081   .     S
C692   C837    1.364   .     S
C692   I849    2.173   .     S
C694   O715    1.287   .     A
C694   O717    1.284   .     A
C695   O718    1.284   .     A
C695   O716    1.287   .     A
C696   I701    2.152   .     S
H700   N612    1.029   1_655 S
I706   C837    2.173   .     S
N707   Zn720   2.012   .     S
N707   H603    1.029   1_655 S
N707   N612    1.296   1_655 S
N708   Zn719   2.012   .     S
O711   Zn719   1.974   .     S
O712   Zn720   1.974   .     S
O713   Zn720   2.002   .     S
O714   Zn719   2.002   .     S
O715   Zn719   2.002   .     S
O716   Zn720   2.002   .     S
O717   Zn720   2.027   .     S
O718   Zn719   2.027   .     S
C721   O761    1.292   .     A
C721   O759    1.271   .     A
C721   C740    1.409   .     S
C722   C724    1.397   .     A
C722   I750    2.152   .     S
C722   C733    1.397   .     A
C723   C743    1.430   .     S
C723   C744    1.397   .     A
C723   C725    1.396   .     A
C724   C742    1.430   .     S
C724   C726    1.396   .     A
C725   C727    1.397   .     A
C725   I751    2.131   .     S
C726   C728    1.397   .     A
C726   I752    2.131   .     S
C727   C729    1.417   .     A
C727   C734    1.415   .     A
C728   C735    1.415   .     A
C728   C730    1.417   .     A
C729   C731    1.418   .     A
C730   C733    1.418   .     A
C730   C297    1.402   1_556 S
C731   C739    1.398   .     A
C731   C744    1.397   .     A
C732   O760    1.271   .     A
C732   O762    1.292   .     A
C732   C741    1.409   .     S
C733   C738    1.398   .     A
C734   C736    1.447   .     S
C735   C737    1.447   .     S
C735   C307    1.385   1_556 S
C736   N757    1.158   .     T
C737   N758    1.158   .     T
C738   H745    1.081   .     S
C738   C302    1.385   1_556 S
C739   H746    1.081   .     S
C740   C453    1.364   1_565 S
C740   I465    2.173   1_565 S
C742   O763    1.287   .     A
C742   O765    1.284   .     A
C743   O766    1.284   .     A
C743   O764    1.287   .     A
C744   I749    2.152   .     S
H747   N851    1.029   1_455 S
H748   N804    1.029   .     S
I754   C453    2.173   1_565 S
N755   Zn768   2.012   .     S
N755   H795    1.029   .     S
N755   N804    1.296   .     S
N756   Zn767   2.012   .     S
N756   H844    1.029   1_455 S
N756   N851    1.296   1_455 S
O759   Zn767   1.974   .     S
O760   Zn768   1.974   .     S
O761   Zn768   2.002   .     S
O762   Zn767   2.002   .     S
O763   Zn767   2.002   .     S
O764   Zn768   2.002   .     S
O765   Zn768   2.027   .     S
O766   Zn767   2.027   .     S
C769   O809    1.292   .     A
C769   O807    1.271   .     A
C769   C788    1.409   .     S
C770   C772    1.397   .     A
C770   I798    2.152   .     S
C770   C781    1.397   .     A
C771   C791    1.430   .     S
C771   C792    1.397   .     A
C771   C773    1.396   .     A
C772   C790    1.430   .     S
C772   C774    1.396   .     A
C773   C775    1.397   .     A
C773   I799    2.131   .     S
C774   C776    1.397   .     A
C774   I800    2.131   .     S
C775   C777    1.417   .     A
C775   C782    1.415   .     A
C776   C783    1.415   .     A
C776   C778    1.417   .     A
C777   C779    1.418   .     A
C778   C781    1.418   .     A
C778   C345    1.402   1_556 S
C779   C787    1.398   .     A
C779   C792    1.397   .     A
C780   O808    1.271   .     A
C780   O810    1.292   .     A
C780   C789    1.409   .     S
C781   C786    1.398   .     A
C782   C784    1.447   .     S
C783   C785    1.447   .     S
C783   C355    1.385   1_556 S
C784   N805    1.158   .     T
C785   N806    1.158   .     T
C786   H793    1.081   .     S
C786   C350    1.385   1_556 S
C787   H794    1.081   .     S
C788   C501    1.364   1_565 S
C788   I513    2.173   1_565 S
C790   O811    1.287   .     A
C790   O813    1.284   .     A
C791   O814    1.284   .     A
C791   O812    1.287   .     A
C792   I797    2.152   .     S
H796   N852    1.029   .     S
I802   C501    2.173   1_565 S
N803   Zn816   2.012   .     S
N803   H843    1.029   .     S
N803   N852    1.296   .     S
N804   Zn815   2.012   .     S
O807   Zn815   1.974   .     S
O808   Zn816   1.974   .     S
O809   Zn816   2.002   .     S
O810   Zn815   2.002   .     S
O811   Zn815   2.002   .     S
O812   Zn816   2.002   .     S
O813   Zn816   2.027   .     S
O814   Zn815   2.027   .     S
C817   O857    1.292   .     A
C817   O855    1.271   .     A
C817   C836    1.409   .     S
C818   C820    1.397   .     A
C818   I846    2.152   .     S
C818   C829    1.397   .     A
C819   C839    1.430   .     S
C819   C840    1.397   .     A
C819   C821    1.396   .     A
C820   C838    1.430   .     S
C820   C822    1.396   .     A
C821   C823    1.397   .     A
C821   I847    2.131   .     S
C822   C824    1.397   .     A
C822   I848    2.131   .     S
C823   C825    1.417   .     A
C823   C830    1.415   .     A
C824   C831    1.415   .     A
C824   C826    1.417   .     A
C825   C827    1.418   .     A
C826   C829    1.418   .     A
C826   C393    1.402   1_556 S
C827   C835    1.398   .     A
C827   C840    1.397   .     A
C828   O856    1.271   .     A
C828   O858    1.292   .     A
C828   C837    1.409   .     S
C829   C834    1.398   .     A
C830   C832    1.447   .     S
C831   C833    1.447   .     S
C831   C403    1.385   1_556 S
C832   N853    1.158   .     T
C833   N854    1.158   .     T
C834   H841    1.081   .     S
C834   C398    1.385   1_556 S
C835   H842    1.081   .     S
C836   C549    1.364   1_565 S
C836   I561    2.173   1_565 S
C838   O859    1.287   .     A
C838   O861    1.284   .     A
C839   O862    1.284   .     A
C839   O860    1.287   .     A
C840   I845    2.152   .     S
H844   N756    1.029   1_655 S
I850   C549    2.173   1_565 S
N851   Zn864   2.012   .     S
N851   H747    1.029   1_655 S
N851   N756    1.296   1_655 S
N852   Zn863   2.012   .     S
O855   Zn863   1.974   .     S
O856   Zn864   1.974   .     S
O857   Zn864   2.002   .     S
O858   Zn863   2.002   .     S
O859   Zn863   2.002   .     S
O860   Zn864   2.002   .     S
O861   Zn864   2.027   .     S
O862   Zn863   2.027   .     S
