data_str_m3_o1_o10_pcu_sym.68
_audit_creation_date              2020-01-03
_audit_creation_method            'Materials Studio'
_symmetry_space_group_name_H-M    'P1'
_symmetry_Int_Tables_number       1
_symmetry_cell_setting            triclinic
loop_
_symmetry_equiv_pos_as_xyz
  x,y,z
_cell_length_a                    25.9452
_cell_length_b                    32.3720
_cell_length_c                    29.4500
_cell_angle_alpha                 89.3456
_cell_angle_beta                  98.4157
_cell_angle_gamma                 89.8200
loop_
_atom_site_label
_atom_site_type_symbol
_atom_site_fract_x
_atom_site_fract_y
_atom_site_fract_z
_atom_site_U_iso_or_equiv
_atom_site_adp_type
_atom_site_occupancy
C1     C     0.16565   0.08662   0.16685   0.00000  Uiso   1.00
C2     C     0.17176   0.01949   0.20814   0.00000  Uiso   1.00
C3     C     0.15866   0.29118   0.16478   0.00000  Uiso   1.00
C4     C     0.16084   0.04262   0.16689   0.00000  Uiso   1.00
C5     C     0.21078   0.15675   0.02976   0.00000  Uiso   1.00
C6     C     0.12242   0.17615   0.30358   0.00000  Uiso   1.00
C7     C     0.21081   0.15686   0.31514   0.00000  Uiso   1.00
C8     C     0.12244   0.17618   0.01819   0.00000  Uiso   1.00
C9     C     0.16436   0.24685   0.16603   0.00000  Uiso   1.00
C10    C     0.06719   0.16771   0.15487   0.00000  Uiso   1.00
C11    C     0.26618   0.16606   0.17849   0.00000  Uiso   1.00
C12    C     0.01258   0.17360   0.14947   0.00000  Uiso   1.00
C13    C     0.32085   0.16062   0.18401   0.00000  Uiso   1.00
C14    C     0.14359   0.02259   0.12518   0.00000  Uiso   1.00
C15    C     0.15685   0.31197   0.20652   0.00000  Uiso   1.00
C16    C     0.15553   0.31433   0.12305   0.00000  Uiso   1.00
H17    H     0.24604   0.14861   0.05243   0.00000  Uiso   1.00
H18    H     0.27763   0.07523   0.27681   0.00000  Uiso   1.00
H19    H     0.08703   0.18385   0.28094   0.00000  Uiso   1.00
H20    H     0.24609   0.14891   0.30168   0.00000  Uiso   1.00
H21    H     0.08708   0.18394   0.03164   0.00000  Uiso   1.00
H22    H     0.01318   0.20556   0.09247   0.00000  Uiso   1.00
H23    H     0.32154   0.13237   0.24349   0.00000  Uiso   1.00
H24    H     0.03709   0.09172   0.07727   0.00000  Uiso   1.00
H25    H     0.05638   0.25569   0.25597   0.00000  Uiso   1.00
H26    H     0.22844   0.25352   0.04930   0.00000  Uiso   1.00
N27    N     0.16665   0.16666   0.28573   0.00000  Uiso   1.00
N28    N     0.16668   0.16668   0.04760   0.00000  Uiso   1.00
O29    O     0.16666   0.10558   0.20487   0.00000  Uiso   1.00
O30    O     0.01289   0.13888   0.22183   0.00000  Uiso   1.00
O31    O     0.12696   0.06974   0.04792   0.00000  Uiso   1.00
O32    O     0.06564   0.01334   0.05441   0.00000  Uiso   1.00
O33    O     0.05893   0.07827   0.10378   0.00000  Uiso   1.00
O34    O     0.16446   0.26792   0.28562   0.00000  Uiso   1.00
O35    O     0.10341   0.32631   0.27686   0.00000  Uiso   1.00
O36    O     0.07696   0.26022   0.23058   0.00000  Uiso   1.00
O37    O     0.12675   0.26858   0.04804   0.00000  Uiso   1.00
O38    O     0.17884   0.32991   0.03761   0.00000  Uiso   1.00
O39    O     0.22628   0.26710   0.07894   0.00000  Uiso   1.00
O40    O     0.16667   0.22775   0.12846   0.00000  Uiso   1.00
O41    O     0.17424   0.06151   0.28692   0.00000  Uiso   1.00
O42    O     0.23352   0.00230   0.28814   0.00000  Uiso   1.00
O43    O     0.25665   0.06903   0.24681   0.00000  Uiso   1.00
O44    O     0.16666   0.10559   0.12843   0.00000  Uiso   1.00
O45    O     0.16667   0.22774   0.20490   0.00000  Uiso   1.00
O46    O     0.09058   0.16666   0.19595   0.00000  Uiso   1.00
O47    O     0.24275   0.16667   0.13739   0.00000  Uiso   1.00
O48    O     0.09058   0.16667   0.11950   0.00000  Uiso   1.00
O49    O     0.24275   0.16666   0.21383   0.00000  Uiso   1.00
O50    O     0.32077   0.19580   0.11191   0.00000  Uiso   1.00
S51    S     0.09840   0.04593   0.08053   0.00000  Uiso   1.00
S52    S     0.12577   0.29168   0.25216   0.00000  Uiso   1.00
S53    S     0.17082   0.29505   0.06988   0.00000  Uiso   1.00
S54    S     0.20894   0.03794   0.25965   0.00000  Uiso   1.00
Zn55   Zn    0.16667   0.16666   0.21771   0.00000  Uiso   1.00
Zn56   Zn    0.16667   0.16667   0.11563   0.00000  Uiso   1.00
C57    C     0.49899   0.08662   0.16685   0.00000  Uiso   1.00
C58    C     0.50509   0.01949   0.20814   0.00000  Uiso   1.00
C59    C     0.49200   0.29118   0.16478   0.00000  Uiso   1.00
C60    C     0.49417   0.04262   0.16689   0.00000  Uiso   1.00
C61    C     0.54412   0.15675   0.02976   0.00000  Uiso   1.00
C62    C     0.45576   0.17615   0.30358   0.00000  Uiso   1.00
C63    C     0.54414   0.15686   0.31514   0.00000  Uiso   1.00
C64    C     0.45577   0.17618   0.01819   0.00000  Uiso   1.00
C65    C     0.49769   0.24685   0.16603   0.00000  Uiso   1.00
C66    C     0.40052   0.16771   0.15487   0.00000  Uiso   1.00
C67    C     0.59952   0.16606   0.17849   0.00000  Uiso   1.00
C68    C     0.34592   0.17360   0.14947   0.00000  Uiso   1.00
C69    C     0.65419   0.16062   0.18401   0.00000  Uiso   1.00
C70    C     0.47692   0.02259   0.12518   0.00000  Uiso   1.00
C71    C     0.49019   0.31197   0.20652   0.00000  Uiso   1.00
C72    C     0.48887   0.31433   0.12305   0.00000  Uiso   1.00
H73    H     0.57937   0.14861   0.05243   0.00000  Uiso   1.00
H74    H     0.61096   0.07523   0.27681   0.00000  Uiso   1.00
H75    H     0.42036   0.18385   0.28094   0.00000  Uiso   1.00
H76    H     0.57942   0.14891   0.30168   0.00000  Uiso   1.00
H77    H     0.42042   0.18394   0.03164   0.00000  Uiso   1.00
H78    H     0.34651   0.20556   0.09247   0.00000  Uiso   1.00
H79    H     0.65487   0.13237   0.24349   0.00000  Uiso   1.00
H80    H     0.37042   0.09172   0.07727   0.00000  Uiso   1.00
H81    H     0.38971   0.25569   0.25597   0.00000  Uiso   1.00
H82    H     0.56177   0.25352   0.04930   0.00000  Uiso   1.00
N83    N     0.49999   0.16666   0.28573   0.00000  Uiso   1.00
N84    N     0.50001   0.16668   0.04760   0.00000  Uiso   1.00
O85    O     0.50000   0.10558   0.20487   0.00000  Uiso   1.00
O86    O     0.34622   0.13888   0.22183   0.00000  Uiso   1.00
O87    O     0.46030   0.06974   0.04792   0.00000  Uiso   1.00
O88    O     0.39897   0.01334   0.05441   0.00000  Uiso   1.00
O89    O     0.39227   0.07827   0.10378   0.00000  Uiso   1.00
O90    O     0.49779   0.26792   0.28562   0.00000  Uiso   1.00
O91    O     0.43675   0.32631   0.27686   0.00000  Uiso   1.00
O92    O     0.41030   0.26022   0.23058   0.00000  Uiso   1.00
O93    O     0.46009   0.26858   0.04804   0.00000  Uiso   1.00
O94    O     0.51218   0.32991   0.03761   0.00000  Uiso   1.00
O95    O     0.55961   0.26710   0.07894   0.00000  Uiso   1.00
O96    O     0.50000   0.22775   0.12846   0.00000  Uiso   1.00
O97    O     0.50757   0.06151   0.28692   0.00000  Uiso   1.00
O98    O     0.56686   0.00230   0.28814   0.00000  Uiso   1.00
O99    O     0.58998   0.06903   0.24681   0.00000  Uiso   1.00
O100   O     0.50000   0.10559   0.12843   0.00000  Uiso   1.00
O101   O     0.50000   0.22774   0.20490   0.00000  Uiso   1.00
O102   O     0.42392   0.16666   0.19595   0.00000  Uiso   1.00
O103   O     0.57608   0.16667   0.13739   0.00000  Uiso   1.00
O104   O     0.42392   0.16667   0.11950   0.00000  Uiso   1.00
O105   O     0.57608   0.16666   0.21383   0.00000  Uiso   1.00
O106   O     0.65410   0.19580   0.11191   0.00000  Uiso   1.00
S107   S     0.43174   0.04593   0.08053   0.00000  Uiso   1.00
S108   S     0.45910   0.29168   0.25216   0.00000  Uiso   1.00
S109   S     0.50415   0.29505   0.06988   0.00000  Uiso   1.00
S110   S     0.54227   0.03794   0.25965   0.00000  Uiso   1.00
Zn111  Zn    0.50000   0.16666   0.21771   0.00000  Uiso   1.00
Zn112  Zn    0.50000   0.16667   0.11563   0.00000  Uiso   1.00
C113   C     0.83232   0.08662   0.16685   0.00000  Uiso   1.00
C114   C     0.83843   0.01949   0.20814   0.00000  Uiso   1.00
C115   C     0.82533   0.29118   0.16478   0.00000  Uiso   1.00
C116   C     0.82750   0.04262   0.16689   0.00000  Uiso   1.00
C117   C     0.87745   0.15675   0.02976   0.00000  Uiso   1.00
C118   C     0.78909   0.17615   0.30358   0.00000  Uiso   1.00
C119   C     0.87747   0.15686   0.31514   0.00000  Uiso   1.00
C120   C     0.78910   0.17618   0.01819   0.00000  Uiso   1.00
C121   C     0.83102   0.24685   0.16603   0.00000  Uiso   1.00
C122   C     0.73385   0.16771   0.15487   0.00000  Uiso   1.00
C123   C     0.93285   0.16606   0.17849   0.00000  Uiso   1.00
C124   C     0.67925   0.17360   0.14947   0.00000  Uiso   1.00
C125   C     0.98752   0.16062   0.18401   0.00000  Uiso   1.00
C126   C     0.81026   0.02259   0.12518   0.00000  Uiso   1.00
C127   C     0.82352   0.31197   0.20652   0.00000  Uiso   1.00
C128   C     0.82220   0.31433   0.12305   0.00000  Uiso   1.00
H129   H     0.91271   0.14861   0.05243   0.00000  Uiso   1.00
H130   H     0.94430   0.07523   0.27681   0.00000  Uiso   1.00
H131   H     0.75369   0.18385   0.28094   0.00000  Uiso   1.00
H132   H     0.91275   0.14891   0.30168   0.00000  Uiso   1.00
H133   H     0.75375   0.18394   0.03164   0.00000  Uiso   1.00
H134   H     0.67984   0.20556   0.09247   0.00000  Uiso   1.00
H135   H     0.98820   0.13237   0.24349   0.00000  Uiso   1.00
H136   H     0.70375   0.09172   0.07727   0.00000  Uiso   1.00
H137   H     0.72304   0.25569   0.25597   0.00000  Uiso   1.00
H138   H     0.89511   0.25352   0.04930   0.00000  Uiso   1.00
N139   N     0.83332   0.16666   0.28573   0.00000  Uiso   1.00
N140   N     0.83335   0.16668   0.04760   0.00000  Uiso   1.00
O141   O     0.83333   0.10558   0.20487   0.00000  Uiso   1.00
O142   O     0.67956   0.13888   0.22183   0.00000  Uiso   1.00
O143   O     0.79363   0.06974   0.04792   0.00000  Uiso   1.00
O144   O     0.73230   0.01334   0.05441   0.00000  Uiso   1.00
O145   O     0.72560   0.07827   0.10378   0.00000  Uiso   1.00
O146   O     0.83113   0.26792   0.28562   0.00000  Uiso   1.00
O147   O     0.77008   0.32631   0.27686   0.00000  Uiso   1.00
O148   O     0.74363   0.26022   0.23058   0.00000  Uiso   1.00
O149   O     0.79342   0.26858   0.04804   0.00000  Uiso   1.00
O150   O     0.84551   0.32991   0.03761   0.00000  Uiso   1.00
O151   O     0.89295   0.26710   0.07894   0.00000  Uiso   1.00
O152   O     0.83334   0.22775   0.12846   0.00000  Uiso   1.00
O153   O     0.84090   0.06151   0.28692   0.00000  Uiso   1.00
O154   O     0.90019   0.00230   0.28814   0.00000  Uiso   1.00
O155   O     0.92332   0.06903   0.24681   0.00000  Uiso   1.00
O156   O     0.83333   0.10559   0.12843   0.00000  Uiso   1.00
O157   O     0.83334   0.22774   0.20490   0.00000  Uiso   1.00
O158   O     0.75725   0.16666   0.19595   0.00000  Uiso   1.00
O159   O     0.90942   0.16667   0.13739   0.00000  Uiso   1.00
O160   O     0.75725   0.16667   0.11950   0.00000  Uiso   1.00
O161   O     0.90942   0.16666   0.21383   0.00000  Uiso   1.00
O162   O     0.98744   0.19580   0.11191   0.00000  Uiso   1.00
S163   S     0.76507   0.04593   0.08053   0.00000  Uiso   1.00
S164   S     0.79243   0.29168   0.25216   0.00000  Uiso   1.00
S165   S     0.83748   0.29505   0.06988   0.00000  Uiso   1.00
S166   S     0.87561   0.03794   0.25965   0.00000  Uiso   1.00
Zn167  Zn    0.83333   0.16666   0.21771   0.00000  Uiso   1.00
Zn168  Zn    0.83333   0.16667   0.11563   0.00000  Uiso   1.00
C169   C     0.16565   0.41995   0.16685   0.00000  Uiso   1.00
C170   C     0.17176   0.35283   0.20814   0.00000  Uiso   1.00
C171   C     0.15866   0.62451   0.16478   0.00000  Uiso   1.00
C172   C     0.16084   0.37595   0.16689   0.00000  Uiso   1.00
C173   C     0.21078   0.49009   0.02976   0.00000  Uiso   1.00
C174   C     0.12242   0.50948   0.30358   0.00000  Uiso   1.00
C175   C     0.21081   0.49019   0.31514   0.00000  Uiso   1.00
C176   C     0.12244   0.50951   0.01819   0.00000  Uiso   1.00
C177   C     0.16436   0.58018   0.16603   0.00000  Uiso   1.00
C178   C     0.06719   0.50104   0.15487   0.00000  Uiso   1.00
C179   C     0.26618   0.49939   0.17849   0.00000  Uiso   1.00
C180   C     0.01258   0.50694   0.14947   0.00000  Uiso   1.00
C181   C     0.32085   0.49395   0.18401   0.00000  Uiso   1.00
C182   C     0.14359   0.35592   0.12518   0.00000  Uiso   1.00
C183   C     0.15685   0.64530   0.20652   0.00000  Uiso   1.00
C184   C     0.15553   0.64767   0.12305   0.00000  Uiso   1.00
H185   H     0.24604   0.48194   0.05243   0.00000  Uiso   1.00
H186   H     0.27763   0.40856   0.27681   0.00000  Uiso   1.00
H187   H     0.08703   0.51719   0.28094   0.00000  Uiso   1.00
H188   H     0.24609   0.48225   0.30168   0.00000  Uiso   1.00
H189   H     0.08708   0.51727   0.03164   0.00000  Uiso   1.00
H190   H     0.01318   0.53889   0.09247   0.00000  Uiso   1.00
H191   H     0.32154   0.46570   0.24349   0.00000  Uiso   1.00
H192   H     0.03709   0.42505   0.07727   0.00000  Uiso   1.00
H193   H     0.05638   0.58903   0.25597   0.00000  Uiso   1.00
H194   H     0.22844   0.58685   0.04930   0.00000  Uiso   1.00
N195   N     0.16665   0.49999   0.28573   0.00000  Uiso   1.00
N196   N     0.16668   0.50001   0.04760   0.00000  Uiso   1.00
O197   O     0.16666   0.43892   0.20487   0.00000  Uiso   1.00
O198   O     0.01289   0.47222   0.22183   0.00000  Uiso   1.00
O199   O     0.12696   0.40308   0.04792   0.00000  Uiso   1.00
O200   O     0.06564   0.34667   0.05441   0.00000  Uiso   1.00
O201   O     0.05893   0.41160   0.10378   0.00000  Uiso   1.00
O202   O     0.16446   0.60126   0.28562   0.00000  Uiso   1.00
O203   O     0.10341   0.65964   0.27686   0.00000  Uiso   1.00
O204   O     0.07696   0.59355   0.23058   0.00000  Uiso   1.00
O205   O     0.12675   0.60191   0.04804   0.00000  Uiso   1.00
O206   O     0.17884   0.66324   0.03761   0.00000  Uiso   1.00
O207   O     0.22628   0.60044   0.07894   0.00000  Uiso   1.00
O208   O     0.16667   0.56108   0.12846   0.00000  Uiso   1.00
O209   O     0.17424   0.39484   0.28692   0.00000  Uiso   1.00
O210   O     0.23352   0.33563   0.28814   0.00000  Uiso   1.00
O211   O     0.25665   0.40236   0.24681   0.00000  Uiso   1.00
O212   O     0.16666   0.43893   0.12843   0.00000  Uiso   1.00
O213   O     0.16667   0.56107   0.20490   0.00000  Uiso   1.00
O214   O     0.09058   0.50000   0.19595   0.00000  Uiso   1.00
O215   O     0.24275   0.50000   0.13739   0.00000  Uiso   1.00
O216   O     0.09058   0.50000   0.11950   0.00000  Uiso   1.00
O217   O     0.24275   0.50000   0.21383   0.00000  Uiso   1.00
O218   O     0.32077   0.52914   0.11191   0.00000  Uiso   1.00
S219   S     0.09840   0.37927   0.08053   0.00000  Uiso   1.00
S220   S     0.12577   0.62501   0.25216   0.00000  Uiso   1.00
S221   S     0.17082   0.62838   0.06988   0.00000  Uiso   1.00
S222   S     0.20894   0.37128   0.25965   0.00000  Uiso   1.00
Zn223  Zn    0.16667   0.49999   0.21771   0.00000  Uiso   1.00
Zn224  Zn    0.16667   0.50001   0.11563   0.00000  Uiso   1.00
C225   C     0.49899   0.41995   0.16685   0.00000  Uiso   1.00
C226   C     0.50509   0.35283   0.20814   0.00000  Uiso   1.00
C227   C     0.49200   0.62451   0.16478   0.00000  Uiso   1.00
C228   C     0.49417   0.37595   0.16689   0.00000  Uiso   1.00
C229   C     0.54412   0.49009   0.02976   0.00000  Uiso   1.00
C230   C     0.45576   0.50948   0.30358   0.00000  Uiso   1.00
C231   C     0.54414   0.49019   0.31514   0.00000  Uiso   1.00
C232   C     0.45577   0.50951   0.01819   0.00000  Uiso   1.00
C233   C     0.49769   0.58018   0.16603   0.00000  Uiso   1.00
C234   C     0.40052   0.50104   0.15487   0.00000  Uiso   1.00
C235   C     0.59952   0.49939   0.17849   0.00000  Uiso   1.00
C236   C     0.34592   0.50694   0.14947   0.00000  Uiso   1.00
C237   C     0.65419   0.49395   0.18401   0.00000  Uiso   1.00
C238   C     0.47692   0.35592   0.12518   0.00000  Uiso   1.00
C239   C     0.49019   0.64530   0.20652   0.00000  Uiso   1.00
C240   C     0.48887   0.64767   0.12305   0.00000  Uiso   1.00
H241   H     0.57937   0.48194   0.05243   0.00000  Uiso   1.00
H242   H     0.61096   0.40856   0.27681   0.00000  Uiso   1.00
H243   H     0.42036   0.51719   0.28094   0.00000  Uiso   1.00
H244   H     0.57942   0.48225   0.30168   0.00000  Uiso   1.00
H245   H     0.42042   0.51727   0.03164   0.00000  Uiso   1.00
H246   H     0.34651   0.53889   0.09247   0.00000  Uiso   1.00
H247   H     0.65487   0.46570   0.24349   0.00000  Uiso   1.00
H248   H     0.37042   0.42505   0.07727   0.00000  Uiso   1.00
H249   H     0.38971   0.58903   0.25597   0.00000  Uiso   1.00
H250   H     0.56177   0.58685   0.04930   0.00000  Uiso   1.00
N251   N     0.49999   0.49999   0.28573   0.00000  Uiso   1.00
N252   N     0.50001   0.50001   0.04760   0.00000  Uiso   1.00
O253   O     0.50000   0.43892   0.20487   0.00000  Uiso   1.00
O254   O     0.34622   0.47222   0.22183   0.00000  Uiso   1.00
O255   O     0.46030   0.40308   0.04792   0.00000  Uiso   1.00
O256   O     0.39897   0.34667   0.05441   0.00000  Uiso   1.00
O257   O     0.39227   0.41160   0.10378   0.00000  Uiso   1.00
O258   O     0.49779   0.60126   0.28562   0.00000  Uiso   1.00
O259   O     0.43675   0.65964   0.27686   0.00000  Uiso   1.00
O260   O     0.41030   0.59355   0.23058   0.00000  Uiso   1.00
O261   O     0.46009   0.60191   0.04804   0.00000  Uiso   1.00
O262   O     0.51218   0.66324   0.03761   0.00000  Uiso   1.00
O263   O     0.55961   0.60044   0.07894   0.00000  Uiso   1.00
O264   O     0.50000   0.56108   0.12846   0.00000  Uiso   1.00
O265   O     0.50757   0.39484   0.28692   0.00000  Uiso   1.00
O266   O     0.56686   0.33563   0.28814   0.00000  Uiso   1.00
O267   O     0.58998   0.40236   0.24681   0.00000  Uiso   1.00
O268   O     0.50000   0.43893   0.12843   0.00000  Uiso   1.00
O269   O     0.50000   0.56107   0.20490   0.00000  Uiso   1.00
O270   O     0.42392   0.50000   0.19595   0.00000  Uiso   1.00
O271   O     0.57608   0.50000   0.13739   0.00000  Uiso   1.00
O272   O     0.42392   0.50000   0.11950   0.00000  Uiso   1.00
O273   O     0.57608   0.50000   0.21383   0.00000  Uiso   1.00
O274   O     0.65410   0.52914   0.11191   0.00000  Uiso   1.00
S275   S     0.43174   0.37927   0.08053   0.00000  Uiso   1.00
S276   S     0.45910   0.62501   0.25216   0.00000  Uiso   1.00
S277   S     0.50415   0.62838   0.06988   0.00000  Uiso   1.00
S278   S     0.54227   0.37128   0.25965   0.00000  Uiso   1.00
Zn279  Zn    0.50000   0.49999   0.21771   0.00000  Uiso   1.00
Zn280  Zn    0.50000   0.50001   0.11563   0.00000  Uiso   1.00
C281   C     0.83232   0.41995   0.16685   0.00000  Uiso   1.00
C282   C     0.83843   0.35283   0.20814   0.00000  Uiso   1.00
C283   C     0.82533   0.62451   0.16478   0.00000  Uiso   1.00
C284   C     0.82750   0.37595   0.16689   0.00000  Uiso   1.00
C285   C     0.87745   0.49009   0.02976   0.00000  Uiso   1.00
C286   C     0.78909   0.50948   0.30358   0.00000  Uiso   1.00
C287   C     0.87747   0.49019   0.31514   0.00000  Uiso   1.00
C288   C     0.78910   0.50951   0.01819   0.00000  Uiso   1.00
C289   C     0.83102   0.58018   0.16603   0.00000  Uiso   1.00
C290   C     0.73385   0.50104   0.15487   0.00000  Uiso   1.00
C291   C     0.93285   0.49939   0.17849   0.00000  Uiso   1.00
C292   C     0.67925   0.50694   0.14947   0.00000  Uiso   1.00
C293   C     0.98752   0.49395   0.18401   0.00000  Uiso   1.00
C294   C     0.81026   0.35592   0.12518   0.00000  Uiso   1.00
C295   C     0.82352   0.64530   0.20652   0.00000  Uiso   1.00
C296   C     0.82220   0.64767   0.12305   0.00000  Uiso   1.00
H297   H     0.91271   0.48194   0.05243   0.00000  Uiso   1.00
H298   H     0.94430   0.40856   0.27681   0.00000  Uiso   1.00
H299   H     0.75369   0.51719   0.28094   0.00000  Uiso   1.00
H300   H     0.91275   0.48225   0.30168   0.00000  Uiso   1.00
H301   H     0.75375   0.51727   0.03164   0.00000  Uiso   1.00
H302   H     0.67984   0.53889   0.09247   0.00000  Uiso   1.00
H303   H     0.98820   0.46570   0.24349   0.00000  Uiso   1.00
H304   H     0.70375   0.42505   0.07727   0.00000  Uiso   1.00
H305   H     0.72304   0.58903   0.25597   0.00000  Uiso   1.00
H306   H     0.89511   0.58685   0.04930   0.00000  Uiso   1.00
N307   N     0.83332   0.49999   0.28573   0.00000  Uiso   1.00
N308   N     0.83335   0.50001   0.04760   0.00000  Uiso   1.00
O309   O     0.83333   0.43892   0.20487   0.00000  Uiso   1.00
O310   O     0.67956   0.47222   0.22183   0.00000  Uiso   1.00
O311   O     0.79363   0.40308   0.04792   0.00000  Uiso   1.00
O312   O     0.73230   0.34667   0.05441   0.00000  Uiso   1.00
O313   O     0.72560   0.41160   0.10378   0.00000  Uiso   1.00
O314   O     0.83113   0.60126   0.28562   0.00000  Uiso   1.00
O315   O     0.77008   0.65964   0.27686   0.00000  Uiso   1.00
O316   O     0.74363   0.59355   0.23058   0.00000  Uiso   1.00
O317   O     0.79342   0.60191   0.04804   0.00000  Uiso   1.00
O318   O     0.84551   0.66324   0.03761   0.00000  Uiso   1.00
O319   O     0.89295   0.60044   0.07894   0.00000  Uiso   1.00
O320   O     0.83334   0.56108   0.12846   0.00000  Uiso   1.00
O321   O     0.84090   0.39484   0.28692   0.00000  Uiso   1.00
O322   O     0.90019   0.33563   0.28814   0.00000  Uiso   1.00
O323   O     0.92332   0.40236   0.24681   0.00000  Uiso   1.00
O324   O     0.83333   0.43893   0.12843   0.00000  Uiso   1.00
O325   O     0.83334   0.56107   0.20490   0.00000  Uiso   1.00
O326   O     0.75725   0.50000   0.19595   0.00000  Uiso   1.00
O327   O     0.90942   0.50000   0.13739   0.00000  Uiso   1.00
O328   O     0.75725   0.50000   0.11950   0.00000  Uiso   1.00
O329   O     0.90942   0.50000   0.21383   0.00000  Uiso   1.00
O330   O     0.98744   0.52914   0.11191   0.00000  Uiso   1.00
S331   S     0.76507   0.37927   0.08053   0.00000  Uiso   1.00
S332   S     0.79243   0.62501   0.25216   0.00000  Uiso   1.00
S333   S     0.83748   0.62838   0.06988   0.00000  Uiso   1.00
S334   S     0.87561   0.37128   0.25965   0.00000  Uiso   1.00
Zn335  Zn    0.83333   0.49999   0.21771   0.00000  Uiso   1.00
Zn336  Zn    0.83333   0.50001   0.11563   0.00000  Uiso   1.00
C337   C     0.16565   0.75329   0.16685   0.00000  Uiso   1.00
C338   C     0.17176   0.68616   0.20814   0.00000  Uiso   1.00
C339   C     0.15866   0.95784   0.16478   0.00000  Uiso   1.00
C340   C     0.16084   0.70928   0.16689   0.00000  Uiso   1.00
C341   C     0.21078   0.82342   0.02976   0.00000  Uiso   1.00
C342   C     0.12242   0.84281   0.30358   0.00000  Uiso   1.00
C343   C     0.21081   0.82352   0.31514   0.00000  Uiso   1.00
C344   C     0.12244   0.84284   0.01819   0.00000  Uiso   1.00
C345   C     0.16436   0.91352   0.16603   0.00000  Uiso   1.00
C346   C     0.06719   0.83438   0.15487   0.00000  Uiso   1.00
C347   C     0.26618   0.83273   0.17849   0.00000  Uiso   1.00
C348   C     0.01258   0.84027   0.14947   0.00000  Uiso   1.00
C349   C     0.32085   0.82728   0.18401   0.00000  Uiso   1.00
C350   C     0.14359   0.68926   0.12518   0.00000  Uiso   1.00
C351   C     0.15685   0.97864   0.20652   0.00000  Uiso   1.00
C352   C     0.15553   0.98100   0.12305   0.00000  Uiso   1.00
H353   H     0.24604   0.81527   0.05243   0.00000  Uiso   1.00
H354   H     0.27763   0.74189   0.27681   0.00000  Uiso   1.00
H355   H     0.08703   0.85052   0.28094   0.00000  Uiso   1.00
H356   H     0.24609   0.81558   0.30168   0.00000  Uiso   1.00
H357   H     0.08708   0.85061   0.03164   0.00000  Uiso   1.00
H358   H     0.01318   0.87222   0.09247   0.00000  Uiso   1.00
H359   H     0.32154   0.79903   0.24349   0.00000  Uiso   1.00
H360   H     0.03709   0.75838   0.07727   0.00000  Uiso   1.00
H361   H     0.05638   0.92236   0.25597   0.00000  Uiso   1.00
H362   H     0.22844   0.92019   0.04930   0.00000  Uiso   1.00
N363   N     0.16665   0.83332   0.28573   0.00000  Uiso   1.00
N364   N     0.16668   0.83334   0.04760   0.00000  Uiso   1.00
O365   O     0.16666   0.77225   0.20487   0.00000  Uiso   1.00
O366   O     0.01289   0.80555   0.22183   0.00000  Uiso   1.00
O367   O     0.12696   0.73641   0.04792   0.00000  Uiso   1.00
O368   O     0.06564   0.68001   0.05441   0.00000  Uiso   1.00
O369   O     0.05893   0.74493   0.10378   0.00000  Uiso   1.00
O370   O     0.16446   0.93459   0.28562   0.00000  Uiso   1.00
O371   O     0.10341   0.99298   0.27686   0.00000  Uiso   1.00
O372   O     0.07696   0.92688   0.23058   0.00000  Uiso   1.00
O373   O     0.12675   0.93524   0.04804   0.00000  Uiso   1.00
O374   O     0.17884   0.99657   0.03761   0.00000  Uiso   1.00
O375   O     0.22628   0.93377   0.07894   0.00000  Uiso   1.00
O376   O     0.16667   0.89442   0.12846   0.00000  Uiso   1.00
O377   O     0.17424   0.72817   0.28692   0.00000  Uiso   1.00
O378   O     0.23352   0.66897   0.28814   0.00000  Uiso   1.00
O379   O     0.25665   0.73569   0.24681   0.00000  Uiso   1.00
O380   O     0.16666   0.77226   0.12843   0.00000  Uiso   1.00
O381   O     0.16667   0.89441   0.20490   0.00000  Uiso   1.00
O382   O     0.09058   0.83333   0.19595   0.00000  Uiso   1.00
O383   O     0.24275   0.83334   0.13739   0.00000  Uiso   1.00
O384   O     0.09058   0.83334   0.11950   0.00000  Uiso   1.00
O385   O     0.24275   0.83333   0.21383   0.00000  Uiso   1.00
O386   O     0.32077   0.86247   0.11191   0.00000  Uiso   1.00
S387   S     0.09840   0.71260   0.08053   0.00000  Uiso   1.00
S388   S     0.12577   0.95835   0.25216   0.00000  Uiso   1.00
S389   S     0.17082   0.96172   0.06988   0.00000  Uiso   1.00
S390   S     0.20894   0.70461   0.25965   0.00000  Uiso   1.00
Zn391  Zn    0.16667   0.83333   0.21771   0.00000  Uiso   1.00
Zn392  Zn    0.16667   0.83334   0.11563   0.00000  Uiso   1.00
C393   C     0.49899   0.75329   0.16685   0.00000  Uiso   1.00
C394   C     0.50509   0.68616   0.20814   0.00000  Uiso   1.00
C395   C     0.49200   0.95784   0.16478   0.00000  Uiso   1.00
C396   C     0.49417   0.70928   0.16689   0.00000  Uiso   1.00
C397   C     0.54412   0.82342   0.02976   0.00000  Uiso   1.00
C398   C     0.45576   0.84281   0.30358   0.00000  Uiso   1.00
C399   C     0.54414   0.82352   0.31514   0.00000  Uiso   1.00
C400   C     0.45577   0.84284   0.01819   0.00000  Uiso   1.00
C401   C     0.49769   0.91352   0.16603   0.00000  Uiso   1.00
C402   C     0.40052   0.83438   0.15487   0.00000  Uiso   1.00
C403   C     0.59952   0.83273   0.17849   0.00000  Uiso   1.00
C404   C     0.34592   0.84027   0.14947   0.00000  Uiso   1.00
C405   C     0.65419   0.82728   0.18401   0.00000  Uiso   1.00
C406   C     0.47692   0.68926   0.12518   0.00000  Uiso   1.00
C407   C     0.49019   0.97864   0.20652   0.00000  Uiso   1.00
C408   C     0.48887   0.98100   0.12305   0.00000  Uiso   1.00
H409   H     0.57937   0.81527   0.05243   0.00000  Uiso   1.00
H410   H     0.61096   0.74189   0.27681   0.00000  Uiso   1.00
H411   H     0.42036   0.85052   0.28094   0.00000  Uiso   1.00
H412   H     0.57942   0.81558   0.30168   0.00000  Uiso   1.00
H413   H     0.42042   0.85061   0.03164   0.00000  Uiso   1.00
H414   H     0.34651   0.87222   0.09247   0.00000  Uiso   1.00
H415   H     0.65487   0.79903   0.24349   0.00000  Uiso   1.00
H416   H     0.37042   0.75838   0.07727   0.00000  Uiso   1.00
H417   H     0.38971   0.92236   0.25597   0.00000  Uiso   1.00
H418   H     0.56177   0.92019   0.04930   0.00000  Uiso   1.00
N419   N     0.49999   0.83332   0.28573   0.00000  Uiso   1.00
N420   N     0.50001   0.83334   0.04760   0.00000  Uiso   1.00
O421   O     0.50000   0.77225   0.20487   0.00000  Uiso   1.00
O422   O     0.34622   0.80555   0.22183   0.00000  Uiso   1.00
O423   O     0.46030   0.73641   0.04792   0.00000  Uiso   1.00
O424   O     0.39897   0.68001   0.05441   0.00000  Uiso   1.00
O425   O     0.39227   0.74493   0.10378   0.00000  Uiso   1.00
O426   O     0.49779   0.93459   0.28562   0.00000  Uiso   1.00
O427   O     0.43675   0.99298   0.27686   0.00000  Uiso   1.00
O428   O     0.41030   0.92688   0.23058   0.00000  Uiso   1.00
O429   O     0.46009   0.93524   0.04804   0.00000  Uiso   1.00
O430   O     0.51218   0.99657   0.03761   0.00000  Uiso   1.00
O431   O     0.55961   0.93377   0.07894   0.00000  Uiso   1.00
O432   O     0.50000   0.89442   0.12846   0.00000  Uiso   1.00
O433   O     0.50757   0.72817   0.28692   0.00000  Uiso   1.00
O434   O     0.56686   0.66897   0.28814   0.00000  Uiso   1.00
O435   O     0.58998   0.73569   0.24681   0.00000  Uiso   1.00
O436   O     0.50000   0.77226   0.12843   0.00000  Uiso   1.00
O437   O     0.50000   0.89441   0.20490   0.00000  Uiso   1.00
O438   O     0.42392   0.83333   0.19595   0.00000  Uiso   1.00
O439   O     0.57608   0.83334   0.13739   0.00000  Uiso   1.00
O440   O     0.42392   0.83334   0.11950   0.00000  Uiso   1.00
O441   O     0.57608   0.83333   0.21383   0.00000  Uiso   1.00
O442   O     0.65410   0.86247   0.11191   0.00000  Uiso   1.00
S443   S     0.43174   0.71260   0.08053   0.00000  Uiso   1.00
S444   S     0.45910   0.95835   0.25216   0.00000  Uiso   1.00
S445   S     0.50415   0.96172   0.06988   0.00000  Uiso   1.00
S446   S     0.54227   0.70461   0.25965   0.00000  Uiso   1.00
Zn447  Zn    0.50000   0.83333   0.21771   0.00000  Uiso   1.00
Zn448  Zn    0.50000   0.83334   0.11563   0.00000  Uiso   1.00
C449   C     0.83232   0.75329   0.16685   0.00000  Uiso   1.00
C450   C     0.83843   0.68616   0.20814   0.00000  Uiso   1.00
C451   C     0.82533   0.95784   0.16478   0.00000  Uiso   1.00
C452   C     0.82750   0.70928   0.16689   0.00000  Uiso   1.00
C453   C     0.87745   0.82342   0.02976   0.00000  Uiso   1.00
C454   C     0.78909   0.84281   0.30358   0.00000  Uiso   1.00
C455   C     0.87747   0.82352   0.31514   0.00000  Uiso   1.00
C456   C     0.78910   0.84284   0.01819   0.00000  Uiso   1.00
C457   C     0.83102   0.91352   0.16603   0.00000  Uiso   1.00
C458   C     0.73385   0.83438   0.15487   0.00000  Uiso   1.00
C459   C     0.93285   0.83273   0.17849   0.00000  Uiso   1.00
C460   C     0.67925   0.84027   0.14947   0.00000  Uiso   1.00
C461   C     0.98752   0.82728   0.18401   0.00000  Uiso   1.00
C462   C     0.81026   0.68926   0.12518   0.00000  Uiso   1.00
C463   C     0.82352   0.97864   0.20652   0.00000  Uiso   1.00
C464   C     0.82220   0.98100   0.12305   0.00000  Uiso   1.00
H465   H     0.91271   0.81527   0.05243   0.00000  Uiso   1.00
H466   H     0.94430   0.74189   0.27681   0.00000  Uiso   1.00
H467   H     0.75369   0.85052   0.28094   0.00000  Uiso   1.00
H468   H     0.91275   0.81558   0.30168   0.00000  Uiso   1.00
H469   H     0.75375   0.85061   0.03164   0.00000  Uiso   1.00
H470   H     0.67984   0.87222   0.09247   0.00000  Uiso   1.00
H471   H     0.98820   0.79903   0.24349   0.00000  Uiso   1.00
H472   H     0.70375   0.75838   0.07727   0.00000  Uiso   1.00
H473   H     0.72304   0.92236   0.25597   0.00000  Uiso   1.00
H474   H     0.89511   0.92019   0.04930   0.00000  Uiso   1.00
N475   N     0.83332   0.83332   0.28573   0.00000  Uiso   1.00
N476   N     0.83335   0.83334   0.04760   0.00000  Uiso   1.00
O477   O     0.83333   0.77225   0.20487   0.00000  Uiso   1.00
O478   O     0.67956   0.80555   0.22183   0.00000  Uiso   1.00
O479   O     0.79363   0.73641   0.04792   0.00000  Uiso   1.00
O480   O     0.73230   0.68001   0.05441   0.00000  Uiso   1.00
O481   O     0.72560   0.74493   0.10378   0.00000  Uiso   1.00
O482   O     0.83113   0.93459   0.28562   0.00000  Uiso   1.00
O483   O     0.77008   0.99298   0.27686   0.00000  Uiso   1.00
O484   O     0.74363   0.92688   0.23058   0.00000  Uiso   1.00
O485   O     0.79342   0.93524   0.04804   0.00000  Uiso   1.00
O486   O     0.84551   0.99657   0.03761   0.00000  Uiso   1.00
O487   O     0.89295   0.93377   0.07894   0.00000  Uiso   1.00
O488   O     0.83334   0.89442   0.12846   0.00000  Uiso   1.00
O489   O     0.84090   0.72817   0.28692   0.00000  Uiso   1.00
O490   O     0.90019   0.66897   0.28814   0.00000  Uiso   1.00
O491   O     0.92332   0.73569   0.24681   0.00000  Uiso   1.00
O492   O     0.83333   0.77226   0.12843   0.00000  Uiso   1.00
O493   O     0.83334   0.89441   0.20490   0.00000  Uiso   1.00
O494   O     0.75725   0.83333   0.19595   0.00000  Uiso   1.00
O495   O     0.90942   0.83334   0.13739   0.00000  Uiso   1.00
O496   O     0.75725   0.83334   0.11950   0.00000  Uiso   1.00
O497   O     0.90942   0.83333   0.21383   0.00000  Uiso   1.00
O498   O     0.98744   0.86247   0.11191   0.00000  Uiso   1.00
S499   S     0.76507   0.71260   0.08053   0.00000  Uiso   1.00
S500   S     0.79243   0.95835   0.25216   0.00000  Uiso   1.00
S501   S     0.83748   0.96172   0.06988   0.00000  Uiso   1.00
S502   S     0.87561   0.70461   0.25965   0.00000  Uiso   1.00
Zn503  Zn    0.83333   0.83333   0.21771   0.00000  Uiso   1.00
Zn504  Zn    0.83333   0.83334   0.11563   0.00000  Uiso   1.00
C505   C     0.16565   0.08662   0.50018   0.00000  Uiso   1.00
C506   C     0.17176   0.01949   0.54148   0.00000  Uiso   1.00
C507   C     0.15866   0.29118   0.49811   0.00000  Uiso   1.00
C508   C     0.16084   0.04262   0.50022   0.00000  Uiso   1.00
C509   C     0.21078   0.15675   0.36309   0.00000  Uiso   1.00
C510   C     0.12242   0.17615   0.63691   0.00000  Uiso   1.00
C511   C     0.21081   0.15686   0.64847   0.00000  Uiso   1.00
C512   C     0.12244   0.17618   0.35152   0.00000  Uiso   1.00
C513   C     0.16436   0.24685   0.49936   0.00000  Uiso   1.00
C514   C     0.06719   0.16771   0.48820   0.00000  Uiso   1.00
C515   C     0.26618   0.16606   0.51182   0.00000  Uiso   1.00
C516   C     0.01258   0.17360   0.48280   0.00000  Uiso   1.00
C517   C     0.32085   0.16062   0.51734   0.00000  Uiso   1.00
C518   C     0.14359   0.02259   0.45851   0.00000  Uiso   1.00
C519   C     0.15685   0.31197   0.53985   0.00000  Uiso   1.00
C520   C     0.15553   0.31433   0.45638   0.00000  Uiso   1.00
H521   H     0.24604   0.14861   0.38576   0.00000  Uiso   1.00
H522   H     0.27763   0.07523   0.61014   0.00000  Uiso   1.00
H523   H     0.08703   0.18385   0.61428   0.00000  Uiso   1.00
H524   H     0.24609   0.14891   0.63501   0.00000  Uiso   1.00
H525   H     0.08708   0.18394   0.36497   0.00000  Uiso   1.00
H526   H     0.01318   0.20556   0.42581   0.00000  Uiso   1.00
H527   H     0.32154   0.13237   0.57682   0.00000  Uiso   1.00
H528   H     0.03709   0.09172   0.41060   0.00000  Uiso   1.00
H529   H     0.05638   0.25569   0.58931   0.00000  Uiso   1.00
H530   H     0.22844   0.25352   0.38263   0.00000  Uiso   1.00
N531   N     0.16665   0.16666   0.61907   0.00000  Uiso   1.00
N532   N     0.16668   0.16668   0.38093   0.00000  Uiso   1.00
O533   O     0.16666   0.10558   0.53821   0.00000  Uiso   1.00
O534   O     0.01289   0.13888   0.55517   0.00000  Uiso   1.00
O535   O     0.12696   0.06974   0.38125   0.00000  Uiso   1.00
O536   O     0.06564   0.01334   0.38775   0.00000  Uiso   1.00
O537   O     0.05893   0.07827   0.43711   0.00000  Uiso   1.00
O538   O     0.16446   0.26792   0.61895   0.00000  Uiso   1.00
O539   O     0.10341   0.32631   0.61019   0.00000  Uiso   1.00
O540   O     0.07696   0.26022   0.56391   0.00000  Uiso   1.00
O541   O     0.12675   0.26858   0.38137   0.00000  Uiso   1.00
O542   O     0.17884   0.32991   0.37095   0.00000  Uiso   1.00
O543   O     0.22628   0.26710   0.41227   0.00000  Uiso   1.00
O544   O     0.16667   0.22775   0.46179   0.00000  Uiso   1.00
O545   O     0.17424   0.06151   0.62026   0.00000  Uiso   1.00
O546   O     0.23352   0.00230   0.62148   0.00000  Uiso   1.00
O547   O     0.25665   0.06903   0.58014   0.00000  Uiso   1.00
O548   O     0.16666   0.10559   0.46176   0.00000  Uiso   1.00
O549   O     0.16667   0.22774   0.53824   0.00000  Uiso   1.00
O550   O     0.09058   0.16666   0.52928   0.00000  Uiso   1.00
O551   O     0.24275   0.16667   0.47072   0.00000  Uiso   1.00
O552   O     0.09058   0.16667   0.45284   0.00000  Uiso   1.00
O553   O     0.24275   0.16666   0.54716   0.00000  Uiso   1.00
O554   O     0.32077   0.19580   0.44524   0.00000  Uiso   1.00
S555   S     0.09840   0.04593   0.41386   0.00000  Uiso   1.00
S556   S     0.12577   0.29168   0.58549   0.00000  Uiso   1.00
S557   S     0.17082   0.29505   0.40321   0.00000  Uiso   1.00
S558   S     0.20894   0.03794   0.59298   0.00000  Uiso   1.00
Zn559  Zn    0.16667   0.16666   0.55104   0.00000  Uiso   1.00
Zn560  Zn    0.16667   0.16667   0.44896   0.00000  Uiso   1.00
C561   C     0.49899   0.08662   0.50018   0.00000  Uiso   1.00
C562   C     0.50509   0.01949   0.54148   0.00000  Uiso   1.00
C563   C     0.49200   0.29118   0.49811   0.00000  Uiso   1.00
C564   C     0.49417   0.04262   0.50022   0.00000  Uiso   1.00
C565   C     0.54412   0.15675   0.36309   0.00000  Uiso   1.00
C566   C     0.45576   0.17615   0.63691   0.00000  Uiso   1.00
C567   C     0.54414   0.15686   0.64847   0.00000  Uiso   1.00
C568   C     0.45577   0.17618   0.35152   0.00000  Uiso   1.00
C569   C     0.49769   0.24685   0.49936   0.00000  Uiso   1.00
C570   C     0.40052   0.16771   0.48820   0.00000  Uiso   1.00
C571   C     0.59952   0.16606   0.51182   0.00000  Uiso   1.00
C572   C     0.34592   0.17360   0.48280   0.00000  Uiso   1.00
C573   C     0.65419   0.16062   0.51734   0.00000  Uiso   1.00
C574   C     0.47692   0.02259   0.45851   0.00000  Uiso   1.00
C575   C     0.49019   0.31197   0.53985   0.00000  Uiso   1.00
C576   C     0.48887   0.31433   0.45638   0.00000  Uiso   1.00
H577   H     0.57937   0.14861   0.38576   0.00000  Uiso   1.00
H578   H     0.61096   0.07523   0.61014   0.00000  Uiso   1.00
H579   H     0.42036   0.18385   0.61428   0.00000  Uiso   1.00
H580   H     0.57942   0.14891   0.63501   0.00000  Uiso   1.00
H581   H     0.42042   0.18394   0.36497   0.00000  Uiso   1.00
H582   H     0.34651   0.20556   0.42581   0.00000  Uiso   1.00
H583   H     0.65487   0.13237   0.57682   0.00000  Uiso   1.00
H584   H     0.37042   0.09172   0.41060   0.00000  Uiso   1.00
H585   H     0.38971   0.25569   0.58931   0.00000  Uiso   1.00
H586   H     0.56177   0.25352   0.38263   0.00000  Uiso   1.00
N587   N     0.49999   0.16666   0.61907   0.00000  Uiso   1.00
N588   N     0.50001   0.16668   0.38093   0.00000  Uiso   1.00
O589   O     0.50000   0.10558   0.53821   0.00000  Uiso   1.00
O590   O     0.34622   0.13888   0.55517   0.00000  Uiso   1.00
O591   O     0.46030   0.06974   0.38125   0.00000  Uiso   1.00
O592   O     0.39897   0.01334   0.38775   0.00000  Uiso   1.00
O593   O     0.39227   0.07827   0.43711   0.00000  Uiso   1.00
O594   O     0.49779   0.26792   0.61895   0.00000  Uiso   1.00
O595   O     0.43675   0.32631   0.61019   0.00000  Uiso   1.00
O596   O     0.41030   0.26022   0.56391   0.00000  Uiso   1.00
O597   O     0.46009   0.26858   0.38137   0.00000  Uiso   1.00
O598   O     0.51218   0.32991   0.37095   0.00000  Uiso   1.00
O599   O     0.55961   0.26710   0.41227   0.00000  Uiso   1.00
O600   O     0.50000   0.22775   0.46179   0.00000  Uiso   1.00
O601   O     0.50757   0.06151   0.62026   0.00000  Uiso   1.00
O602   O     0.56686   0.00230   0.62148   0.00000  Uiso   1.00
O603   O     0.58998   0.06903   0.58014   0.00000  Uiso   1.00
O604   O     0.50000   0.10559   0.46176   0.00000  Uiso   1.00
O605   O     0.50000   0.22774   0.53824   0.00000  Uiso   1.00
O606   O     0.42392   0.16666   0.52928   0.00000  Uiso   1.00
O607   O     0.57608   0.16667   0.47072   0.00000  Uiso   1.00
O608   O     0.42392   0.16667   0.45284   0.00000  Uiso   1.00
O609   O     0.57608   0.16666   0.54716   0.00000  Uiso   1.00
O610   O     0.65410   0.19580   0.44524   0.00000  Uiso   1.00
S611   S     0.43174   0.04593   0.41386   0.00000  Uiso   1.00
S612   S     0.45910   0.29168   0.58549   0.00000  Uiso   1.00
S613   S     0.50415   0.29505   0.40321   0.00000  Uiso   1.00
S614   S     0.54227   0.03794   0.59298   0.00000  Uiso   1.00
Zn615  Zn    0.50000   0.16666   0.55104   0.00000  Uiso   1.00
Zn616  Zn    0.50000   0.16667   0.44896   0.00000  Uiso   1.00
C617   C     0.83232   0.08662   0.50018   0.00000  Uiso   1.00
C618   C     0.83843   0.01949   0.54148   0.00000  Uiso   1.00
C619   C     0.82533   0.29118   0.49811   0.00000  Uiso   1.00
C620   C     0.82750   0.04262   0.50022   0.00000  Uiso   1.00
C621   C     0.87745   0.15675   0.36309   0.00000  Uiso   1.00
C622   C     0.78909   0.17615   0.63691   0.00000  Uiso   1.00
C623   C     0.87747   0.15686   0.64847   0.00000  Uiso   1.00
C624   C     0.78910   0.17618   0.35152   0.00000  Uiso   1.00
C625   C     0.83102   0.24685   0.49936   0.00000  Uiso   1.00
C626   C     0.73385   0.16771   0.48820   0.00000  Uiso   1.00
C627   C     0.93285   0.16606   0.51182   0.00000  Uiso   1.00
C628   C     0.67925   0.17360   0.48280   0.00000  Uiso   1.00
C629   C     0.98752   0.16062   0.51734   0.00000  Uiso   1.00
C630   C     0.81026   0.02259   0.45851   0.00000  Uiso   1.00
C631   C     0.82352   0.31197   0.53985   0.00000  Uiso   1.00
C632   C     0.82220   0.31433   0.45638   0.00000  Uiso   1.00
H633   H     0.91271   0.14861   0.38576   0.00000  Uiso   1.00
H634   H     0.94430   0.07523   0.61014   0.00000  Uiso   1.00
H635   H     0.75369   0.18385   0.61428   0.00000  Uiso   1.00
H636   H     0.91275   0.14891   0.63501   0.00000  Uiso   1.00
H637   H     0.75375   0.18394   0.36497   0.00000  Uiso   1.00
H638   H     0.67984   0.20556   0.42581   0.00000  Uiso   1.00
H639   H     0.98820   0.13237   0.57682   0.00000  Uiso   1.00
H640   H     0.70375   0.09172   0.41060   0.00000  Uiso   1.00
H641   H     0.72304   0.25569   0.58931   0.00000  Uiso   1.00
H642   H     0.89511   0.25352   0.38263   0.00000  Uiso   1.00
N643   N     0.83332   0.16666   0.61907   0.00000  Uiso   1.00
N644   N     0.83335   0.16668   0.38093   0.00000  Uiso   1.00
O645   O     0.83333   0.10558   0.53821   0.00000  Uiso   1.00
O646   O     0.67956   0.13888   0.55517   0.00000  Uiso   1.00
O647   O     0.79363   0.06974   0.38125   0.00000  Uiso   1.00
O648   O     0.73230   0.01334   0.38775   0.00000  Uiso   1.00
O649   O     0.72560   0.07827   0.43711   0.00000  Uiso   1.00
O650   O     0.83113   0.26792   0.61895   0.00000  Uiso   1.00
O651   O     0.77008   0.32631   0.61019   0.00000  Uiso   1.00
O652   O     0.74363   0.26022   0.56391   0.00000  Uiso   1.00
O653   O     0.79342   0.26858   0.38137   0.00000  Uiso   1.00
O654   O     0.84551   0.32991   0.37095   0.00000  Uiso   1.00
O655   O     0.89295   0.26710   0.41227   0.00000  Uiso   1.00
O656   O     0.83334   0.22775   0.46179   0.00000  Uiso   1.00
O657   O     0.84090   0.06151   0.62026   0.00000  Uiso   1.00
O658   O     0.90019   0.00230   0.62148   0.00000  Uiso   1.00
O659   O     0.92332   0.06903   0.58014   0.00000  Uiso   1.00
O660   O     0.83333   0.10559   0.46176   0.00000  Uiso   1.00
O661   O     0.83334   0.22774   0.53824   0.00000  Uiso   1.00
O662   O     0.75725   0.16666   0.52928   0.00000  Uiso   1.00
O663   O     0.90942   0.16667   0.47072   0.00000  Uiso   1.00
O664   O     0.75725   0.16667   0.45284   0.00000  Uiso   1.00
O665   O     0.90942   0.16666   0.54716   0.00000  Uiso   1.00
O666   O     0.98744   0.19580   0.44524   0.00000  Uiso   1.00
S667   S     0.76507   0.04593   0.41386   0.00000  Uiso   1.00
S668   S     0.79243   0.29168   0.58549   0.00000  Uiso   1.00
S669   S     0.83748   0.29505   0.40321   0.00000  Uiso   1.00
S670   S     0.87561   0.03794   0.59298   0.00000  Uiso   1.00
Zn671  Zn    0.83333   0.16666   0.55104   0.00000  Uiso   1.00
Zn672  Zn    0.83333   0.16667   0.44896   0.00000  Uiso   1.00
C673   C     0.16565   0.41995   0.50018   0.00000  Uiso   1.00
C674   C     0.17176   0.35283   0.54148   0.00000  Uiso   1.00
C675   C     0.15866   0.62451   0.49811   0.00000  Uiso   1.00
C676   C     0.16084   0.37595   0.50022   0.00000  Uiso   1.00
C677   C     0.21078   0.49009   0.36309   0.00000  Uiso   1.00
C678   C     0.12242   0.50948   0.63691   0.00000  Uiso   1.00
C679   C     0.21081   0.49019   0.64847   0.00000  Uiso   1.00
C680   C     0.12244   0.50951   0.35152   0.00000  Uiso   1.00
C681   C     0.16436   0.58018   0.49936   0.00000  Uiso   1.00
C682   C     0.06719   0.50104   0.48820   0.00000  Uiso   1.00
C683   C     0.26618   0.49939   0.51182   0.00000  Uiso   1.00
C684   C     0.01258   0.50694   0.48280   0.00000  Uiso   1.00
C685   C     0.32085   0.49395   0.51734   0.00000  Uiso   1.00
C686   C     0.14359   0.35592   0.45851   0.00000  Uiso   1.00
C687   C     0.15685   0.64530   0.53985   0.00000  Uiso   1.00
C688   C     0.15553   0.64767   0.45638   0.00000  Uiso   1.00
H689   H     0.24604   0.48194   0.38576   0.00000  Uiso   1.00
H690   H     0.27763   0.40856   0.61014   0.00000  Uiso   1.00
H691   H     0.08703   0.51719   0.61428   0.00000  Uiso   1.00
H692   H     0.24609   0.48225   0.63501   0.00000  Uiso   1.00
H693   H     0.08708   0.51727   0.36497   0.00000  Uiso   1.00
H694   H     0.01318   0.53889   0.42581   0.00000  Uiso   1.00
H695   H     0.32154   0.46570   0.57682   0.00000  Uiso   1.00
H696   H     0.03709   0.42505   0.41060   0.00000  Uiso   1.00
H697   H     0.05638   0.58903   0.58931   0.00000  Uiso   1.00
H698   H     0.22844   0.58685   0.38263   0.00000  Uiso   1.00
N699   N     0.16665   0.49999   0.61907   0.00000  Uiso   1.00
N700   N     0.16668   0.50001   0.38093   0.00000  Uiso   1.00
O701   O     0.16666   0.43892   0.53821   0.00000  Uiso   1.00
O702   O     0.01289   0.47222   0.55517   0.00000  Uiso   1.00
O703   O     0.12696   0.40308   0.38125   0.00000  Uiso   1.00
O704   O     0.06564   0.34667   0.38775   0.00000  Uiso   1.00
O705   O     0.05893   0.41160   0.43711   0.00000  Uiso   1.00
O706   O     0.16446   0.60126   0.61895   0.00000  Uiso   1.00
O707   O     0.10341   0.65964   0.61019   0.00000  Uiso   1.00
O708   O     0.07696   0.59355   0.56391   0.00000  Uiso   1.00
O709   O     0.12675   0.60191   0.38137   0.00000  Uiso   1.00
O710   O     0.17884   0.66324   0.37095   0.00000  Uiso   1.00
O711   O     0.22628   0.60044   0.41227   0.00000  Uiso   1.00
O712   O     0.16667   0.56108   0.46179   0.00000  Uiso   1.00
O713   O     0.17424   0.39484   0.62026   0.00000  Uiso   1.00
O714   O     0.23352   0.33563   0.62148   0.00000  Uiso   1.00
O715   O     0.25665   0.40236   0.58014   0.00000  Uiso   1.00
O716   O     0.16666   0.43893   0.46176   0.00000  Uiso   1.00
O717   O     0.16667   0.56107   0.53824   0.00000  Uiso   1.00
O718   O     0.09058   0.50000   0.52928   0.00000  Uiso   1.00
O719   O     0.24275   0.50000   0.47072   0.00000  Uiso   1.00
O720   O     0.09058   0.50000   0.45284   0.00000  Uiso   1.00
O721   O     0.24275   0.50000   0.54716   0.00000  Uiso   1.00
O722   O     0.32077   0.52914   0.44524   0.00000  Uiso   1.00
S723   S     0.09840   0.37927   0.41386   0.00000  Uiso   1.00
S724   S     0.12577   0.62501   0.58549   0.00000  Uiso   1.00
S725   S     0.17082   0.62838   0.40321   0.00000  Uiso   1.00
S726   S     0.20894   0.37128   0.59298   0.00000  Uiso   1.00
Zn727  Zn    0.16667   0.49999   0.55104   0.00000  Uiso   1.00
Zn728  Zn    0.16667   0.50001   0.44896   0.00000  Uiso   1.00
C729   C     0.49899   0.41995   0.50018   0.00000  Uiso   1.00
C730   C     0.50509   0.35283   0.54148   0.00000  Uiso   1.00
C731   C     0.49200   0.62451   0.49811   0.00000  Uiso   1.00
C732   C     0.49417   0.37595   0.50022   0.00000  Uiso   1.00
C733   C     0.54412   0.49009   0.36309   0.00000  Uiso   1.00
C734   C     0.45576   0.50948   0.63691   0.00000  Uiso   1.00
C735   C     0.54414   0.49019   0.64847   0.00000  Uiso   1.00
C736   C     0.45577   0.50951   0.35152   0.00000  Uiso   1.00
C737   C     0.49769   0.58018   0.49936   0.00000  Uiso   1.00
C738   C     0.40052   0.50104   0.48820   0.00000  Uiso   1.00
C739   C     0.59952   0.49939   0.51182   0.00000  Uiso   1.00
C740   C     0.34592   0.50694   0.48280   0.00000  Uiso   1.00
C741   C     0.65419   0.49395   0.51734   0.00000  Uiso   1.00
C742   C     0.47692   0.35592   0.45851   0.00000  Uiso   1.00
C743   C     0.49019   0.64530   0.53985   0.00000  Uiso   1.00
C744   C     0.48887   0.64767   0.45638   0.00000  Uiso   1.00
H745   H     0.57937   0.48194   0.38576   0.00000  Uiso   1.00
H746   H     0.61096   0.40856   0.61014   0.00000  Uiso   1.00
H747   H     0.42036   0.51719   0.61428   0.00000  Uiso   1.00
H748   H     0.57942   0.48225   0.63501   0.00000  Uiso   1.00
H749   H     0.42042   0.51727   0.36497   0.00000  Uiso   1.00
H750   H     0.34651   0.53889   0.42581   0.00000  Uiso   1.00
H751   H     0.65487   0.46570   0.57682   0.00000  Uiso   1.00
H752   H     0.37042   0.42505   0.41060   0.00000  Uiso   1.00
H753   H     0.38971   0.58903   0.58931   0.00000  Uiso   1.00
H754   H     0.56177   0.58685   0.38263   0.00000  Uiso   1.00
N755   N     0.49999   0.49999   0.61907   0.00000  Uiso   1.00
N756   N     0.50001   0.50001   0.38093   0.00000  Uiso   1.00
O757   O     0.50000   0.43892   0.53821   0.00000  Uiso   1.00
O758   O     0.34622   0.47222   0.55517   0.00000  Uiso   1.00
O759   O     0.46030   0.40308   0.38125   0.00000  Uiso   1.00
O760   O     0.39897   0.34667   0.38775   0.00000  Uiso   1.00
O761   O     0.39227   0.41160   0.43711   0.00000  Uiso   1.00
O762   O     0.49779   0.60126   0.61895   0.00000  Uiso   1.00
O763   O     0.43675   0.65964   0.61019   0.00000  Uiso   1.00
O764   O     0.41030   0.59355   0.56391   0.00000  Uiso   1.00
O765   O     0.46009   0.60191   0.38137   0.00000  Uiso   1.00
O766   O     0.51218   0.66324   0.37095   0.00000  Uiso   1.00
O767   O     0.55961   0.60044   0.41227   0.00000  Uiso   1.00
O768   O     0.50000   0.56108   0.46179   0.00000  Uiso   1.00
O769   O     0.50757   0.39484   0.62026   0.00000  Uiso   1.00
O770   O     0.56686   0.33563   0.62148   0.00000  Uiso   1.00
O771   O     0.58998   0.40236   0.58014   0.00000  Uiso   1.00
O772   O     0.50000   0.43893   0.46176   0.00000  Uiso   1.00
O773   O     0.50000   0.56107   0.53824   0.00000  Uiso   1.00
O774   O     0.42392   0.50000   0.52928   0.00000  Uiso   1.00
O775   O     0.57608   0.50000   0.47072   0.00000  Uiso   1.00
O776   O     0.42392   0.50000   0.45284   0.00000  Uiso   1.00
O777   O     0.57608   0.50000   0.54716   0.00000  Uiso   1.00
O778   O     0.65410   0.52914   0.44524   0.00000  Uiso   1.00
S779   S     0.43174   0.37927   0.41386   0.00000  Uiso   1.00
S780   S     0.45910   0.62501   0.58549   0.00000  Uiso   1.00
S781   S     0.50415   0.62838   0.40321   0.00000  Uiso   1.00
S782   S     0.54227   0.37128   0.59298   0.00000  Uiso   1.00
Zn783  Zn    0.50000   0.49999   0.55104   0.00000  Uiso   1.00
Zn784  Zn    0.50000   0.50001   0.44896   0.00000  Uiso   1.00
C785   C     0.83232   0.41995   0.50018   0.00000  Uiso   1.00
C786   C     0.83843   0.35283   0.54148   0.00000  Uiso   1.00
C787   C     0.82533   0.62451   0.49811   0.00000  Uiso   1.00
C788   C     0.82750   0.37595   0.50022   0.00000  Uiso   1.00
C789   C     0.87745   0.49009   0.36309   0.00000  Uiso   1.00
C790   C     0.78909   0.50948   0.63691   0.00000  Uiso   1.00
C791   C     0.87747   0.49019   0.64847   0.00000  Uiso   1.00
C792   C     0.78910   0.50951   0.35152   0.00000  Uiso   1.00
C793   C     0.83102   0.58018   0.49936   0.00000  Uiso   1.00
C794   C     0.73385   0.50104   0.48820   0.00000  Uiso   1.00
C795   C     0.93285   0.49939   0.51182   0.00000  Uiso   1.00
C796   C     0.67925   0.50694   0.48280   0.00000  Uiso   1.00
C797   C     0.98752   0.49395   0.51734   0.00000  Uiso   1.00
C798   C     0.81026   0.35592   0.45851   0.00000  Uiso   1.00
C799   C     0.82352   0.64530   0.53985   0.00000  Uiso   1.00
C800   C     0.82220   0.64767   0.45638   0.00000  Uiso   1.00
H801   H     0.91271   0.48194   0.38576   0.00000  Uiso   1.00
H802   H     0.94430   0.40856   0.61014   0.00000  Uiso   1.00
H803   H     0.75369   0.51719   0.61428   0.00000  Uiso   1.00
H804   H     0.91275   0.48225   0.63501   0.00000  Uiso   1.00
H805   H     0.75375   0.51727   0.36497   0.00000  Uiso   1.00
H806   H     0.67984   0.53889   0.42581   0.00000  Uiso   1.00
H807   H     0.98820   0.46570   0.57682   0.00000  Uiso   1.00
H808   H     0.70375   0.42505   0.41060   0.00000  Uiso   1.00
H809   H     0.72304   0.58903   0.58931   0.00000  Uiso   1.00
H810   H     0.89511   0.58685   0.38263   0.00000  Uiso   1.00
N811   N     0.83332   0.49999   0.61907   0.00000  Uiso   1.00
N812   N     0.83335   0.50001   0.38093   0.00000  Uiso   1.00
O813   O     0.83333   0.43892   0.53821   0.00000  Uiso   1.00
O814   O     0.67956   0.47222   0.55517   0.00000  Uiso   1.00
O815   O     0.79363   0.40308   0.38125   0.00000  Uiso   1.00
O816   O     0.73230   0.34667   0.38775   0.00000  Uiso   1.00
O817   O     0.72560   0.41160   0.43711   0.00000  Uiso   1.00
O818   O     0.83113   0.60126   0.61895   0.00000  Uiso   1.00
O819   O     0.77008   0.65964   0.61019   0.00000  Uiso   1.00
O820   O     0.74363   0.59355   0.56391   0.00000  Uiso   1.00
O821   O     0.79342   0.60191   0.38137   0.00000  Uiso   1.00
O822   O     0.84551   0.66324   0.37095   0.00000  Uiso   1.00
O823   O     0.89295   0.60044   0.41227   0.00000  Uiso   1.00
O824   O     0.83334   0.56108   0.46179   0.00000  Uiso   1.00
O825   O     0.84090   0.39484   0.62026   0.00000  Uiso   1.00
O826   O     0.90019   0.33563   0.62148   0.00000  Uiso   1.00
O827   O     0.92332   0.40236   0.58014   0.00000  Uiso   1.00
O828   O     0.83333   0.43893   0.46176   0.00000  Uiso   1.00
O829   O     0.83334   0.56107   0.53824   0.00000  Uiso   1.00
O830   O     0.75725   0.50000   0.52928   0.00000  Uiso   1.00
O831   O     0.90942   0.50000   0.47072   0.00000  Uiso   1.00
O832   O     0.75725   0.50000   0.45284   0.00000  Uiso   1.00
O833   O     0.90942   0.50000   0.54716   0.00000  Uiso   1.00
O834   O     0.98744   0.52914   0.44524   0.00000  Uiso   1.00
S835   S     0.76507   0.37927   0.41386   0.00000  Uiso   1.00
S836   S     0.79243   0.62501   0.58549   0.00000  Uiso   1.00
S837   S     0.83748   0.62838   0.40321   0.00000  Uiso   1.00
S838   S     0.87561   0.37128   0.59298   0.00000  Uiso   1.00
Zn839  Zn    0.83333   0.49999   0.55104   0.00000  Uiso   1.00
Zn840  Zn    0.83333   0.50001   0.44896   0.00000  Uiso   1.00
C841   C     0.16565   0.75329   0.50018   0.00000  Uiso   1.00
C842   C     0.17176   0.68616   0.54148   0.00000  Uiso   1.00
C843   C     0.15866   0.95784   0.49811   0.00000  Uiso   1.00
C844   C     0.16084   0.70928   0.50022   0.00000  Uiso   1.00
C845   C     0.21078   0.82342   0.36309   0.00000  Uiso   1.00
C846   C     0.12242   0.84281   0.63691   0.00000  Uiso   1.00
C847   C     0.21081   0.82352   0.64847   0.00000  Uiso   1.00
C848   C     0.12244   0.84284   0.35152   0.00000  Uiso   1.00
C849   C     0.16436   0.91352   0.49936   0.00000  Uiso   1.00
C850   C     0.06719   0.83438   0.48820   0.00000  Uiso   1.00
C851   C     0.26618   0.83273   0.51182   0.00000  Uiso   1.00
C852   C     0.01258   0.84027   0.48280   0.00000  Uiso   1.00
C853   C     0.32085   0.82728   0.51734   0.00000  Uiso   1.00
C854   C     0.14359   0.68926   0.45851   0.00000  Uiso   1.00
C855   C     0.15685   0.97864   0.53985   0.00000  Uiso   1.00
C856   C     0.15553   0.98100   0.45638   0.00000  Uiso   1.00
H857   H     0.24604   0.81527   0.38576   0.00000  Uiso   1.00
H858   H     0.27763   0.74189   0.61014   0.00000  Uiso   1.00
H859   H     0.08703   0.85052   0.61428   0.00000  Uiso   1.00
H860   H     0.24609   0.81558   0.63501   0.00000  Uiso   1.00
H861   H     0.08708   0.85061   0.36497   0.00000  Uiso   1.00
H862   H     0.01318   0.87222   0.42581   0.00000  Uiso   1.00
H863   H     0.32154   0.79903   0.57682   0.00000  Uiso   1.00
H864   H     0.03709   0.75838   0.41060   0.00000  Uiso   1.00
H865   H     0.05638   0.92236   0.58931   0.00000  Uiso   1.00
H866   H     0.22844   0.92019   0.38263   0.00000  Uiso   1.00
N867   N     0.16665   0.83332   0.61907   0.00000  Uiso   1.00
N868   N     0.16668   0.83334   0.38093   0.00000  Uiso   1.00
O869   O     0.16666   0.77225   0.53821   0.00000  Uiso   1.00
O870   O     0.01289   0.80555   0.55517   0.00000  Uiso   1.00
O871   O     0.12696   0.73641   0.38125   0.00000  Uiso   1.00
O872   O     0.06564   0.68001   0.38775   0.00000  Uiso   1.00
O873   O     0.05893   0.74493   0.43711   0.00000  Uiso   1.00
O874   O     0.16446   0.93459   0.61895   0.00000  Uiso   1.00
O875   O     0.10341   0.99298   0.61019   0.00000  Uiso   1.00
O876   O     0.07696   0.92688   0.56391   0.00000  Uiso   1.00
O877   O     0.12675   0.93524   0.38137   0.00000  Uiso   1.00
O878   O     0.17884   0.99657   0.37095   0.00000  Uiso   1.00
O879   O     0.22628   0.93377   0.41227   0.00000  Uiso   1.00
O880   O     0.16667   0.89442   0.46179   0.00000  Uiso   1.00
O881   O     0.17424   0.72817   0.62026   0.00000  Uiso   1.00
O882   O     0.23352   0.66897   0.62148   0.00000  Uiso   1.00
O883   O     0.25665   0.73569   0.58014   0.00000  Uiso   1.00
O884   O     0.16666   0.77226   0.46176   0.00000  Uiso   1.00
O885   O     0.16667   0.89441   0.53824   0.00000  Uiso   1.00
O886   O     0.09058   0.83333   0.52928   0.00000  Uiso   1.00
O887   O     0.24275   0.83334   0.47072   0.00000  Uiso   1.00
O888   O     0.09058   0.83334   0.45284   0.00000  Uiso   1.00
O889   O     0.24275   0.83333   0.54716   0.00000  Uiso   1.00
O890   O     0.32077   0.86247   0.44524   0.00000  Uiso   1.00
S891   S     0.09840   0.71260   0.41386   0.00000  Uiso   1.00
S892   S     0.12577   0.95835   0.58549   0.00000  Uiso   1.00
S893   S     0.17082   0.96172   0.40321   0.00000  Uiso   1.00
S894   S     0.20894   0.70461   0.59298   0.00000  Uiso   1.00
Zn895  Zn    0.16667   0.83333   0.55104   0.00000  Uiso   1.00
Zn896  Zn    0.16667   0.83334   0.44896   0.00000  Uiso   1.00
C897   C     0.49899   0.75329   0.50018   0.00000  Uiso   1.00
C898   C     0.50509   0.68616   0.54148   0.00000  Uiso   1.00
C899   C     0.49200   0.95784   0.49811   0.00000  Uiso   1.00
C900   C     0.49417   0.70928   0.50022   0.00000  Uiso   1.00
C901   C     0.54412   0.82342   0.36309   0.00000  Uiso   1.00
C902   C     0.45576   0.84281   0.63691   0.00000  Uiso   1.00
C903   C     0.54414   0.82352   0.64847   0.00000  Uiso   1.00
C904   C     0.45577   0.84284   0.35152   0.00000  Uiso   1.00
C905   C     0.49769   0.91352   0.49936   0.00000  Uiso   1.00
C906   C     0.40052   0.83438   0.48820   0.00000  Uiso   1.00
C907   C     0.59952   0.83273   0.51182   0.00000  Uiso   1.00
C908   C     0.34592   0.84027   0.48280   0.00000  Uiso   1.00
C909   C     0.65419   0.82728   0.51734   0.00000  Uiso   1.00
C910   C     0.47692   0.68926   0.45851   0.00000  Uiso   1.00
C911   C     0.49019   0.97864   0.53985   0.00000  Uiso   1.00
C912   C     0.48887   0.98100   0.45638   0.00000  Uiso   1.00
H913   H     0.57937   0.81527   0.38576   0.00000  Uiso   1.00
H914   H     0.61096   0.74189   0.61014   0.00000  Uiso   1.00
H915   H     0.42036   0.85052   0.61428   0.00000  Uiso   1.00
H916   H     0.57942   0.81558   0.63501   0.00000  Uiso   1.00
H917   H     0.42042   0.85061   0.36497   0.00000  Uiso   1.00
H918   H     0.34651   0.87222   0.42581   0.00000  Uiso   1.00
H919   H     0.65487   0.79903   0.57682   0.00000  Uiso   1.00
H920   H     0.37042   0.75838   0.41060   0.00000  Uiso   1.00
H921   H     0.38971   0.92236   0.58931   0.00000  Uiso   1.00
H922   H     0.56177   0.92019   0.38263   0.00000  Uiso   1.00
N923   N     0.49999   0.83332   0.61907   0.00000  Uiso   1.00
N924   N     0.50001   0.83334   0.38093   0.00000  Uiso   1.00
O925   O     0.50000   0.77225   0.53821   0.00000  Uiso   1.00
O926   O     0.34622   0.80555   0.55517   0.00000  Uiso   1.00
O927   O     0.46030   0.73641   0.38125   0.00000  Uiso   1.00
O928   O     0.39897   0.68001   0.38775   0.00000  Uiso   1.00
O929   O     0.39227   0.74493   0.43711   0.00000  Uiso   1.00
O930   O     0.49779   0.93459   0.61895   0.00000  Uiso   1.00
O931   O     0.43675   0.99298   0.61019   0.00000  Uiso   1.00
O932   O     0.41030   0.92688   0.56391   0.00000  Uiso   1.00
O933   O     0.46009   0.93524   0.38137   0.00000  Uiso   1.00
O934   O     0.51218   0.99657   0.37095   0.00000  Uiso   1.00
O935   O     0.55961   0.93377   0.41227   0.00000  Uiso   1.00
O936   O     0.50000   0.89442   0.46179   0.00000  Uiso   1.00
O937   O     0.50757   0.72817   0.62026   0.00000  Uiso   1.00
O938   O     0.56686   0.66897   0.62148   0.00000  Uiso   1.00
O939   O     0.58998   0.73569   0.58014   0.00000  Uiso   1.00
O940   O     0.50000   0.77226   0.46176   0.00000  Uiso   1.00
O941   O     0.50000   0.89441   0.53824   0.00000  Uiso   1.00
O942   O     0.42392   0.83333   0.52928   0.00000  Uiso   1.00
O943   O     0.57608   0.83334   0.47072   0.00000  Uiso   1.00
O944   O     0.42392   0.83334   0.45284   0.00000  Uiso   1.00
O945   O     0.57608   0.83333   0.54716   0.00000  Uiso   1.00
O946   O     0.65410   0.86247   0.44524   0.00000  Uiso   1.00
S947   S     0.43174   0.71260   0.41386   0.00000  Uiso   1.00
S948   S     0.45910   0.95835   0.58549   0.00000  Uiso   1.00
S949   S     0.50415   0.96172   0.40321   0.00000  Uiso   1.00
S950   S     0.54227   0.70461   0.59298   0.00000  Uiso   1.00
Zn951  Zn    0.50000   0.83333   0.55104   0.00000  Uiso   1.00
Zn952  Zn    0.50000   0.83334   0.44896   0.00000  Uiso   1.00
C953   C     0.83232   0.75329   0.50018   0.00000  Uiso   1.00
C954   C     0.83843   0.68616   0.54148   0.00000  Uiso   1.00
C955   C     0.82533   0.95784   0.49811   0.00000  Uiso   1.00
C956   C     0.82750   0.70928   0.50022   0.00000  Uiso   1.00
C957   C     0.87745   0.82342   0.36309   0.00000  Uiso   1.00
C958   C     0.78909   0.84281   0.63691   0.00000  Uiso   1.00
C959   C     0.87747   0.82352   0.64847   0.00000  Uiso   1.00
C960   C     0.78910   0.84284   0.35152   0.00000  Uiso   1.00
C961   C     0.83102   0.91352   0.49936   0.00000  Uiso   1.00
C962   C     0.73385   0.83438   0.48820   0.00000  Uiso   1.00
C963   C     0.93285   0.83273   0.51182   0.00000  Uiso   1.00
C964   C     0.67925   0.84027   0.48280   0.00000  Uiso   1.00
C965   C     0.98752   0.82728   0.51734   0.00000  Uiso   1.00
C966   C     0.81026   0.68926   0.45851   0.00000  Uiso   1.00
C967   C     0.82352   0.97864   0.53985   0.00000  Uiso   1.00
C968   C     0.82220   0.98100   0.45638   0.00000  Uiso   1.00
H969   H     0.91271   0.81527   0.38576   0.00000  Uiso   1.00
H970   H     0.94430   0.74189   0.61014   0.00000  Uiso   1.00
H971   H     0.75369   0.85052   0.61428   0.00000  Uiso   1.00
H972   H     0.91275   0.81558   0.63501   0.00000  Uiso   1.00
H973   H     0.75375   0.85061   0.36497   0.00000  Uiso   1.00
H974   H     0.67984   0.87222   0.42581   0.00000  Uiso   1.00
H975   H     0.98820   0.79903   0.57682   0.00000  Uiso   1.00
H976   H     0.70375   0.75838   0.41060   0.00000  Uiso   1.00
H977   H     0.72304   0.92236   0.58931   0.00000  Uiso   1.00
H978   H     0.89511   0.92019   0.38263   0.00000  Uiso   1.00
N979   N     0.83332   0.83332   0.61907   0.00000  Uiso   1.00
N980   N     0.83335   0.83334   0.38093   0.00000  Uiso   1.00
O981   O     0.83333   0.77225   0.53821   0.00000  Uiso   1.00
O982   O     0.67956   0.80555   0.55517   0.00000  Uiso   1.00
O983   O     0.79363   0.73641   0.38125   0.00000  Uiso   1.00
O984   O     0.73230   0.68001   0.38775   0.00000  Uiso   1.00
O985   O     0.72560   0.74493   0.43711   0.00000  Uiso   1.00
O986   O     0.83113   0.93459   0.61895   0.00000  Uiso   1.00
O987   O     0.77008   0.99298   0.61019   0.00000  Uiso   1.00
O988   O     0.74363   0.92688   0.56391   0.00000  Uiso   1.00
O989   O     0.79342   0.93524   0.38137   0.00000  Uiso   1.00
O990   O     0.84551   0.99657   0.37095   0.00000  Uiso   1.00
O991   O     0.89295   0.93377   0.41227   0.00000  Uiso   1.00
O992   O     0.83334   0.89442   0.46179   0.00000  Uiso   1.00
O993   O     0.84090   0.72817   0.62026   0.00000  Uiso   1.00
O994   O     0.90019   0.66897   0.62148   0.00000  Uiso   1.00
O995   O     0.92332   0.73569   0.58014   0.00000  Uiso   1.00
O996   O     0.83333   0.77226   0.46176   0.00000  Uiso   1.00
O997   O     0.83334   0.89441   0.53824   0.00000  Uiso   1.00
O998   O     0.75725   0.83333   0.52928   0.00000  Uiso   1.00
O999   O     0.90942   0.83334   0.47072   0.00000  Uiso   1.00
O1000  O     0.75725   0.83334   0.45284   0.00000  Uiso   1.00
O1001  O     0.90942   0.83333   0.54716   0.00000  Uiso   1.00
O1002  O     0.98744   0.86247   0.44524   0.00000  Uiso   1.00
S1003  S     0.76507   0.71260   0.41386   0.00000  Uiso   1.00
S1004  S     0.79243   0.95835   0.58549   0.00000  Uiso   1.00
S1005  S     0.83748   0.96172   0.40321   0.00000  Uiso   1.00
S1006  S     0.87561   0.70461   0.59298   0.00000  Uiso   1.00
Zn1007 Zn    0.83333   0.83333   0.55104   0.00000  Uiso   1.00
Zn1008 Zn    0.83333   0.83334   0.44896   0.00000  Uiso   1.00
C1009  C     0.16565   0.08662   0.83351   0.00000  Uiso   1.00
C1010  C     0.17176   0.01949   0.87481   0.00000  Uiso   1.00
C1011  C     0.15866   0.29118   0.83144   0.00000  Uiso   1.00
C1012  C     0.16084   0.04262   0.83355   0.00000  Uiso   1.00
C1013  C     0.21078   0.15675   0.69643   0.00000  Uiso   1.00
C1014  C     0.12242   0.17615   0.97025   0.00000  Uiso   1.00
C1015  C     0.21081   0.15686   0.98181   0.00000  Uiso   1.00
C1016  C     0.12244   0.17618   0.68486   0.00000  Uiso   1.00
C1017  C     0.16436   0.24685   0.83269   0.00000  Uiso   1.00
C1018  C     0.06719   0.16771   0.82154   0.00000  Uiso   1.00
C1019  C     0.26618   0.16606   0.84516   0.00000  Uiso   1.00
C1020  C     0.01258   0.17360   0.81614   0.00000  Uiso   1.00
C1021  C     0.32085   0.16062   0.85067   0.00000  Uiso   1.00
C1022  C     0.14359   0.02259   0.79185   0.00000  Uiso   1.00
C1023  C     0.15685   0.31197   0.87318   0.00000  Uiso   1.00
C1024  C     0.15553   0.31433   0.78971   0.00000  Uiso   1.00
H1025  H     0.24604   0.14861   0.71909   0.00000  Uiso   1.00
H1026  H     0.27763   0.07523   0.94347   0.00000  Uiso   1.00
H1027  H     0.08703   0.18385   0.94761   0.00000  Uiso   1.00
H1028  H     0.24609   0.14891   0.96835   0.00000  Uiso   1.00
H1029  H     0.08708   0.18394   0.69830   0.00000  Uiso   1.00
H1030  H     0.01318   0.20556   0.75914   0.00000  Uiso   1.00
H1031  H     0.32154   0.13237   0.91015   0.00000  Uiso   1.00
H1032  H     0.03709   0.09172   0.74394   0.00000  Uiso   1.00
H1033  H     0.05638   0.25569   0.92264   0.00000  Uiso   1.00
H1034  H     0.22844   0.25352   0.71596   0.00000  Uiso   1.00
N1035  N     0.16665   0.16666   0.95240   0.00000  Uiso   1.00
N1036  N     0.16668   0.16668   0.71427   0.00000  Uiso   1.00
O1037  O     0.16666   0.10558   0.87154   0.00000  Uiso   1.00
O1038  O     0.01289   0.13888   0.88850   0.00000  Uiso   1.00
O1039  O     0.12696   0.06974   0.71459   0.00000  Uiso   1.00
O1040  O     0.06564   0.01334   0.72108   0.00000  Uiso   1.00
O1041  O     0.05893   0.07827   0.77044   0.00000  Uiso   1.00
O1042  O     0.16446   0.26792   0.95228   0.00000  Uiso   1.00
O1043  O     0.10341   0.32631   0.94352   0.00000  Uiso   1.00
O1044  O     0.07696   0.26022   0.89724   0.00000  Uiso   1.00
O1045  O     0.12675   0.26858   0.71470   0.00000  Uiso   1.00
O1046  O     0.17884   0.32991   0.70428   0.00000  Uiso   1.00
O1047  O     0.22628   0.26710   0.74561   0.00000  Uiso   1.00
O1048  O     0.16667   0.22775   0.79513   0.00000  Uiso   1.00
O1049  O     0.17424   0.06151   0.95359   0.00000  Uiso   1.00
O1050  O     0.23352   0.00230   0.95481   0.00000  Uiso   1.00
O1051  O     0.25665   0.06903   0.91347   0.00000  Uiso   1.00
O1052  O     0.16666   0.10559   0.79510   0.00000  Uiso   1.00
O1053  O     0.16667   0.22774   0.87157   0.00000  Uiso   1.00
O1054  O     0.09058   0.16666   0.86261   0.00000  Uiso   1.00
O1055  O     0.24275   0.16667   0.80405   0.00000  Uiso   1.00
O1056  O     0.09058   0.16667   0.78617   0.00000  Uiso   1.00
O1057  O     0.24275   0.16666   0.88050   0.00000  Uiso   1.00
O1058  O     0.32077   0.19580   0.77857   0.00000  Uiso   1.00
S1059  S     0.09840   0.04593   0.74719   0.00000  Uiso   1.00
S1060  S     0.12577   0.29168   0.91882   0.00000  Uiso   1.00
S1061  S     0.17082   0.29505   0.73655   0.00000  Uiso   1.00
S1062  S     0.20894   0.03794   0.92632   0.00000  Uiso   1.00
Zn1063 Zn    0.16667   0.16666   0.88437   0.00000  Uiso   1.00
Zn1064 Zn    0.16667   0.16667   0.78229   0.00000  Uiso   1.00
C1065  C     0.49899   0.08662   0.83351   0.00000  Uiso   1.00
C1066  C     0.50509   0.01949   0.87481   0.00000  Uiso   1.00
C1067  C     0.49200   0.29118   0.83144   0.00000  Uiso   1.00
C1068  C     0.49417   0.04262   0.83355   0.00000  Uiso   1.00
C1069  C     0.54412   0.15675   0.69643   0.00000  Uiso   1.00
C1070  C     0.45576   0.17615   0.97025   0.00000  Uiso   1.00
C1071  C     0.54414   0.15686   0.98181   0.00000  Uiso   1.00
C1072  C     0.45577   0.17618   0.68486   0.00000  Uiso   1.00
C1073  C     0.49769   0.24685   0.83269   0.00000  Uiso   1.00
C1074  C     0.40052   0.16771   0.82154   0.00000  Uiso   1.00
C1075  C     0.59952   0.16606   0.84516   0.00000  Uiso   1.00
C1076  C     0.34592   0.17360   0.81614   0.00000  Uiso   1.00
C1077  C     0.65419   0.16062   0.85067   0.00000  Uiso   1.00
C1078  C     0.47692   0.02259   0.79185   0.00000  Uiso   1.00
C1079  C     0.49019   0.31197   0.87318   0.00000  Uiso   1.00
C1080  C     0.48887   0.31433   0.78971   0.00000  Uiso   1.00
H1081  H     0.57937   0.14861   0.71909   0.00000  Uiso   1.00
H1082  H     0.61096   0.07523   0.94347   0.00000  Uiso   1.00
H1083  H     0.42036   0.18385   0.94761   0.00000  Uiso   1.00
H1084  H     0.57942   0.14891   0.96835   0.00000  Uiso   1.00
H1085  H     0.42042   0.18394   0.69830   0.00000  Uiso   1.00
H1086  H     0.34651   0.20556   0.75914   0.00000  Uiso   1.00
H1087  H     0.65487   0.13237   0.91015   0.00000  Uiso   1.00
H1088  H     0.37042   0.09172   0.74394   0.00000  Uiso   1.00
H1089  H     0.38971   0.25569   0.92264   0.00000  Uiso   1.00
H1090  H     0.56177   0.25352   0.71596   0.00000  Uiso   1.00
N1091  N     0.49999   0.16666   0.95240   0.00000  Uiso   1.00
N1092  N     0.50001   0.16668   0.71427   0.00000  Uiso   1.00
O1093  O     0.50000   0.10558   0.87154   0.00000  Uiso   1.00
O1094  O     0.34622   0.13888   0.88850   0.00000  Uiso   1.00
O1095  O     0.46030   0.06974   0.71459   0.00000  Uiso   1.00
O1096  O     0.39897   0.01334   0.72108   0.00000  Uiso   1.00
O1097  O     0.39227   0.07827   0.77044   0.00000  Uiso   1.00
O1098  O     0.49779   0.26792   0.95228   0.00000  Uiso   1.00
O1099  O     0.43675   0.32631   0.94352   0.00000  Uiso   1.00
O1100  O     0.41030   0.26022   0.89724   0.00000  Uiso   1.00
O1101  O     0.46009   0.26858   0.71470   0.00000  Uiso   1.00
O1102  O     0.51218   0.32991   0.70428   0.00000  Uiso   1.00
O1103  O     0.55961   0.26710   0.74561   0.00000  Uiso   1.00
O1104  O     0.50000   0.22775   0.79513   0.00000  Uiso   1.00
O1105  O     0.50757   0.06151   0.95359   0.00000  Uiso   1.00
O1106  O     0.56686   0.00230   0.95481   0.00000  Uiso   1.00
O1107  O     0.58998   0.06903   0.91347   0.00000  Uiso   1.00
O1108  O     0.50000   0.10559   0.79510   0.00000  Uiso   1.00
O1109  O     0.50000   0.22774   0.87157   0.00000  Uiso   1.00
O1110  O     0.42392   0.16666   0.86261   0.00000  Uiso   1.00
O1111  O     0.57608   0.16667   0.80405   0.00000  Uiso   1.00
O1112  O     0.42392   0.16667   0.78617   0.00000  Uiso   1.00
O1113  O     0.57608   0.16666   0.88050   0.00000  Uiso   1.00
O1114  O     0.65410   0.19580   0.77857   0.00000  Uiso   1.00
S1115  S     0.43174   0.04593   0.74719   0.00000  Uiso   1.00
S1116  S     0.45910   0.29168   0.91882   0.00000  Uiso   1.00
S1117  S     0.50415   0.29505   0.73655   0.00000  Uiso   1.00
S1118  S     0.54227   0.03794   0.92632   0.00000  Uiso   1.00
Zn1119 Zn    0.50000   0.16666   0.88437   0.00000  Uiso   1.00
Zn1120 Zn    0.50000   0.16667   0.78229   0.00000  Uiso   1.00
C1121  C     0.83232   0.08662   0.83351   0.00000  Uiso   1.00
C1122  C     0.83843   0.01949   0.87481   0.00000  Uiso   1.00
C1123  C     0.82533   0.29118   0.83144   0.00000  Uiso   1.00
C1124  C     0.82750   0.04262   0.83355   0.00000  Uiso   1.00
C1125  C     0.87745   0.15675   0.69643   0.00000  Uiso   1.00
C1126  C     0.78909   0.17615   0.97025   0.00000  Uiso   1.00
C1127  C     0.87747   0.15686   0.98181   0.00000  Uiso   1.00
C1128  C     0.78910   0.17618   0.68486   0.00000  Uiso   1.00
C1129  C     0.83102   0.24685   0.83269   0.00000  Uiso   1.00
C1130  C     0.73385   0.16771   0.82154   0.00000  Uiso   1.00
C1131  C     0.93285   0.16606   0.84516   0.00000  Uiso   1.00
C1132  C     0.67925   0.17360   0.81614   0.00000  Uiso   1.00
C1133  C     0.98752   0.16062   0.85067   0.00000  Uiso   1.00
C1134  C     0.81026   0.02259   0.79185   0.00000  Uiso   1.00
C1135  C     0.82352   0.31197   0.87318   0.00000  Uiso   1.00
C1136  C     0.82220   0.31433   0.78971   0.00000  Uiso   1.00
H1137  H     0.91271   0.14861   0.71909   0.00000  Uiso   1.00
H1138  H     0.94430   0.07523   0.94347   0.00000  Uiso   1.00
H1139  H     0.75369   0.18385   0.94761   0.00000  Uiso   1.00
H1140  H     0.91275   0.14891   0.96835   0.00000  Uiso   1.00
H1141  H     0.75375   0.18394   0.69830   0.00000  Uiso   1.00
H1142  H     0.67984   0.20556   0.75914   0.00000  Uiso   1.00
H1143  H     0.98820   0.13237   0.91015   0.00000  Uiso   1.00
H1144  H     0.70375   0.09172   0.74394   0.00000  Uiso   1.00
H1145  H     0.72304   0.25569   0.92264   0.00000  Uiso   1.00
H1146  H     0.89511   0.25352   0.71596   0.00000  Uiso   1.00
N1147  N     0.83332   0.16666   0.95240   0.00000  Uiso   1.00
N1148  N     0.83335   0.16668   0.71427   0.00000  Uiso   1.00
O1149  O     0.83333   0.10558   0.87154   0.00000  Uiso   1.00
O1150  O     0.67956   0.13888   0.88850   0.00000  Uiso   1.00
O1151  O     0.79363   0.06974   0.71459   0.00000  Uiso   1.00
O1152  O     0.73230   0.01334   0.72108   0.00000  Uiso   1.00
O1153  O     0.72560   0.07827   0.77044   0.00000  Uiso   1.00
O1154  O     0.83113   0.26792   0.95228   0.00000  Uiso   1.00
O1155  O     0.77008   0.32631   0.94352   0.00000  Uiso   1.00
O1156  O     0.74363   0.26022   0.89724   0.00000  Uiso   1.00
O1157  O     0.79342   0.26858   0.71470   0.00000  Uiso   1.00
O1158  O     0.84551   0.32991   0.70428   0.00000  Uiso   1.00
O1159  O     0.89295   0.26710   0.74561   0.00000  Uiso   1.00
O1160  O     0.83334   0.22775   0.79513   0.00000  Uiso   1.00
O1161  O     0.84090   0.06151   0.95359   0.00000  Uiso   1.00
O1162  O     0.90019   0.00230   0.95481   0.00000  Uiso   1.00
O1163  O     0.92332   0.06903   0.91347   0.00000  Uiso   1.00
O1164  O     0.83333   0.10559   0.79510   0.00000  Uiso   1.00
O1165  O     0.83334   0.22774   0.87157   0.00000  Uiso   1.00
O1166  O     0.75725   0.16666   0.86261   0.00000  Uiso   1.00
O1167  O     0.90942   0.16667   0.80405   0.00000  Uiso   1.00
O1168  O     0.75725   0.16667   0.78617   0.00000  Uiso   1.00
O1169  O     0.90942   0.16666   0.88050   0.00000  Uiso   1.00
O1170  O     0.98744   0.19580   0.77857   0.00000  Uiso   1.00
S1171  S     0.76507   0.04593   0.74719   0.00000  Uiso   1.00
S1172  S     0.79243   0.29168   0.91882   0.00000  Uiso   1.00
S1173  S     0.83748   0.29505   0.73655   0.00000  Uiso   1.00
S1174  S     0.87561   0.03794   0.92632   0.00000  Uiso   1.00
Zn1175 Zn    0.83333   0.16666   0.88437   0.00000  Uiso   1.00
Zn1176 Zn    0.83333   0.16667   0.78229   0.00000  Uiso   1.00
C1177  C     0.16565   0.41995   0.83351   0.00000  Uiso   1.00
C1178  C     0.17176   0.35283   0.87481   0.00000  Uiso   1.00
C1179  C     0.15866   0.62451   0.83144   0.00000  Uiso   1.00
C1180  C     0.16084   0.37595   0.83355   0.00000  Uiso   1.00
C1181  C     0.21078   0.49009   0.69643   0.00000  Uiso   1.00
C1182  C     0.12242   0.50948   0.97025   0.00000  Uiso   1.00
C1183  C     0.21081   0.49019   0.98181   0.00000  Uiso   1.00
C1184  C     0.12244   0.50951   0.68486   0.00000  Uiso   1.00
C1185  C     0.16436   0.58018   0.83269   0.00000  Uiso   1.00
C1186  C     0.06719   0.50104   0.82154   0.00000  Uiso   1.00
C1187  C     0.26618   0.49939   0.84516   0.00000  Uiso   1.00
C1188  C     0.01258   0.50694   0.81614   0.00000  Uiso   1.00
C1189  C     0.32085   0.49395   0.85067   0.00000  Uiso   1.00
C1190  C     0.14359   0.35592   0.79185   0.00000  Uiso   1.00
C1191  C     0.15685   0.64530   0.87318   0.00000  Uiso   1.00
C1192  C     0.15553   0.64767   0.78971   0.00000  Uiso   1.00
H1193  H     0.24604   0.48194   0.71909   0.00000  Uiso   1.00
H1194  H     0.27763   0.40856   0.94347   0.00000  Uiso   1.00
H1195  H     0.08703   0.51719   0.94761   0.00000  Uiso   1.00
H1196  H     0.24609   0.48225   0.96835   0.00000  Uiso   1.00
H1197  H     0.08708   0.51727   0.69830   0.00000  Uiso   1.00
H1198  H     0.01318   0.53889   0.75914   0.00000  Uiso   1.00
H1199  H     0.32154   0.46570   0.91015   0.00000  Uiso   1.00
H1200  H     0.03709   0.42505   0.74394   0.00000  Uiso   1.00
H1201  H     0.05638   0.58903   0.92264   0.00000  Uiso   1.00
H1202  H     0.22844   0.58685   0.71596   0.00000  Uiso   1.00
N1203  N     0.16665   0.49999   0.95240   0.00000  Uiso   1.00
N1204  N     0.16668   0.50001   0.71427   0.00000  Uiso   1.00
O1205  O     0.16666   0.43892   0.87154   0.00000  Uiso   1.00
O1206  O     0.01289   0.47222   0.88850   0.00000  Uiso   1.00
O1207  O     0.12696   0.40308   0.71459   0.00000  Uiso   1.00
O1208  O     0.06564   0.34667   0.72108   0.00000  Uiso   1.00
O1209  O     0.05893   0.41160   0.77044   0.00000  Uiso   1.00
O1210  O     0.16446   0.60126   0.95228   0.00000  Uiso   1.00
O1211  O     0.10341   0.65964   0.94352   0.00000  Uiso   1.00
O1212  O     0.07696   0.59355   0.89724   0.00000  Uiso   1.00
O1213  O     0.12675   0.60191   0.71470   0.00000  Uiso   1.00
O1214  O     0.17884   0.66324   0.70428   0.00000  Uiso   1.00
O1215  O     0.22628   0.60044   0.74561   0.00000  Uiso   1.00
O1216  O     0.16667   0.56108   0.79513   0.00000  Uiso   1.00
O1217  O     0.17424   0.39484   0.95359   0.00000  Uiso   1.00
O1218  O     0.23352   0.33563   0.95481   0.00000  Uiso   1.00
O1219  O     0.25665   0.40236   0.91347   0.00000  Uiso   1.00
O1220  O     0.16666   0.43893   0.79510   0.00000  Uiso   1.00
O1221  O     0.16667   0.56107   0.87157   0.00000  Uiso   1.00
O1222  O     0.09058   0.50000   0.86261   0.00000  Uiso   1.00
O1223  O     0.24275   0.50000   0.80405   0.00000  Uiso   1.00
O1224  O     0.09058   0.50000   0.78617   0.00000  Uiso   1.00
O1225  O     0.24275   0.50000   0.88050   0.00000  Uiso   1.00
O1226  O     0.32077   0.52914   0.77857   0.00000  Uiso   1.00
S1227  S     0.09840   0.37927   0.74719   0.00000  Uiso   1.00
S1228  S     0.12577   0.62501   0.91882   0.00000  Uiso   1.00
S1229  S     0.17082   0.62838   0.73655   0.00000  Uiso   1.00
S1230  S     0.20894   0.37128   0.92632   0.00000  Uiso   1.00
Zn1231 Zn    0.16667   0.49999   0.88437   0.00000  Uiso   1.00
Zn1232 Zn    0.16667   0.50001   0.78229   0.00000  Uiso   1.00
C1233  C     0.49899   0.41995   0.83351   0.00000  Uiso   1.00
C1234  C     0.50509   0.35283   0.87481   0.00000  Uiso   1.00
C1235  C     0.49200   0.62451   0.83144   0.00000  Uiso   1.00
C1236  C     0.49417   0.37595   0.83355   0.00000  Uiso   1.00
C1237  C     0.54412   0.49009   0.69643   0.00000  Uiso   1.00
C1238  C     0.45576   0.50948   0.97025   0.00000  Uiso   1.00
C1239  C     0.54414   0.49019   0.98181   0.00000  Uiso   1.00
C1240  C     0.45577   0.50951   0.68486   0.00000  Uiso   1.00
C1241  C     0.49769   0.58018   0.83269   0.00000  Uiso   1.00
C1242  C     0.40052   0.50104   0.82154   0.00000  Uiso   1.00
C1243  C     0.59952   0.49939   0.84516   0.00000  Uiso   1.00
C1244  C     0.34592   0.50694   0.81614   0.00000  Uiso   1.00
C1245  C     0.65419   0.49395   0.85067   0.00000  Uiso   1.00
C1246  C     0.47692   0.35592   0.79185   0.00000  Uiso   1.00
C1247  C     0.49019   0.64530   0.87318   0.00000  Uiso   1.00
C1248  C     0.48887   0.64767   0.78971   0.00000  Uiso   1.00
H1249  H     0.57937   0.48194   0.71909   0.00000  Uiso   1.00
H1250  H     0.61096   0.40856   0.94347   0.00000  Uiso   1.00
H1251  H     0.42036   0.51719   0.94761   0.00000  Uiso   1.00
H1252  H     0.57942   0.48225   0.96835   0.00000  Uiso   1.00
H1253  H     0.42042   0.51727   0.69830   0.00000  Uiso   1.00
H1254  H     0.34651   0.53889   0.75914   0.00000  Uiso   1.00
H1255  H     0.65487   0.46570   0.91015   0.00000  Uiso   1.00
H1256  H     0.37042   0.42505   0.74394   0.00000  Uiso   1.00
H1257  H     0.38971   0.58903   0.92264   0.00000  Uiso   1.00
H1258  H     0.56177   0.58685   0.71596   0.00000  Uiso   1.00
N1259  N     0.49999   0.49999   0.95240   0.00000  Uiso   1.00
N1260  N     0.50001   0.50001   0.71427   0.00000  Uiso   1.00
O1261  O     0.50000   0.43892   0.87154   0.00000  Uiso   1.00
O1262  O     0.34622   0.47222   0.88850   0.00000  Uiso   1.00
O1263  O     0.46030   0.40308   0.71459   0.00000  Uiso   1.00
O1264  O     0.39897   0.34667   0.72108   0.00000  Uiso   1.00
O1265  O     0.39227   0.41160   0.77044   0.00000  Uiso   1.00
O1266  O     0.49779   0.60126   0.95228   0.00000  Uiso   1.00
O1267  O     0.43675   0.65964   0.94352   0.00000  Uiso   1.00
O1268  O     0.41030   0.59355   0.89724   0.00000  Uiso   1.00
O1269  O     0.46009   0.60191   0.71470   0.00000  Uiso   1.00
O1270  O     0.51218   0.66324   0.70428   0.00000  Uiso   1.00
O1271  O     0.55961   0.60044   0.74561   0.00000  Uiso   1.00
O1272  O     0.50000   0.56108   0.79513   0.00000  Uiso   1.00
O1273  O     0.50757   0.39484   0.95359   0.00000  Uiso   1.00
O1274  O     0.56686   0.33563   0.95481   0.00000  Uiso   1.00
O1275  O     0.58998   0.40236   0.91347   0.00000  Uiso   1.00
O1276  O     0.50000   0.43893   0.79510   0.00000  Uiso   1.00
O1277  O     0.50000   0.56107   0.87157   0.00000  Uiso   1.00
O1278  O     0.42392   0.50000   0.86261   0.00000  Uiso   1.00
O1279  O     0.57608   0.50000   0.80405   0.00000  Uiso   1.00
O1280  O     0.42392   0.50000   0.78617   0.00000  Uiso   1.00
O1281  O     0.57608   0.50000   0.88050   0.00000  Uiso   1.00
O1282  O     0.65410   0.52914   0.77857   0.00000  Uiso   1.00
S1283  S     0.43174   0.37927   0.74719   0.00000  Uiso   1.00
S1284  S     0.45910   0.62501   0.91882   0.00000  Uiso   1.00
S1285  S     0.50415   0.62838   0.73655   0.00000  Uiso   1.00
S1286  S     0.54227   0.37128   0.92632   0.00000  Uiso   1.00
Zn1287 Zn    0.50000   0.49999   0.88437   0.00000  Uiso   1.00
Zn1288 Zn    0.50000   0.50001   0.78229   0.00000  Uiso   1.00
C1289  C     0.83232   0.41995   0.83351   0.00000  Uiso   1.00
C1290  C     0.83843   0.35283   0.87481   0.00000  Uiso   1.00
C1291  C     0.82533   0.62451   0.83144   0.00000  Uiso   1.00
C1292  C     0.82750   0.37595   0.83355   0.00000  Uiso   1.00
C1293  C     0.87745   0.49009   0.69643   0.00000  Uiso   1.00
C1294  C     0.78909   0.50948   0.97025   0.00000  Uiso   1.00
C1295  C     0.87747   0.49019   0.98181   0.00000  Uiso   1.00
C1296  C     0.78910   0.50951   0.68486   0.00000  Uiso   1.00
C1297  C     0.83102   0.58018   0.83269   0.00000  Uiso   1.00
C1298  C     0.73385   0.50104   0.82154   0.00000  Uiso   1.00
C1299  C     0.93285   0.49939   0.84516   0.00000  Uiso   1.00
C1300  C     0.67925   0.50694   0.81614   0.00000  Uiso   1.00
C1301  C     0.98752   0.49395   0.85067   0.00000  Uiso   1.00
C1302  C     0.81026   0.35592   0.79185   0.00000  Uiso   1.00
C1303  C     0.82352   0.64530   0.87318   0.00000  Uiso   1.00
C1304  C     0.82220   0.64767   0.78971   0.00000  Uiso   1.00
H1305  H     0.91271   0.48194   0.71909   0.00000  Uiso   1.00
H1306  H     0.94430   0.40856   0.94347   0.00000  Uiso   1.00
H1307  H     0.75369   0.51719   0.94761   0.00000  Uiso   1.00
H1308  H     0.91275   0.48225   0.96835   0.00000  Uiso   1.00
H1309  H     0.75375   0.51727   0.69830   0.00000  Uiso   1.00
H1310  H     0.67984   0.53889   0.75914   0.00000  Uiso   1.00
H1311  H     0.98820   0.46570   0.91015   0.00000  Uiso   1.00
H1312  H     0.70375   0.42505   0.74394   0.00000  Uiso   1.00
H1313  H     0.72304   0.58903   0.92264   0.00000  Uiso   1.00
H1314  H     0.89511   0.58685   0.71596   0.00000  Uiso   1.00
N1315  N     0.83332   0.49999   0.95240   0.00000  Uiso   1.00
N1316  N     0.83335   0.50001   0.71427   0.00000  Uiso   1.00
O1317  O     0.83333   0.43892   0.87154   0.00000  Uiso   1.00
O1318  O     0.67956   0.47222   0.88850   0.00000  Uiso   1.00
O1319  O     0.79363   0.40308   0.71459   0.00000  Uiso   1.00
O1320  O     0.73230   0.34667   0.72108   0.00000  Uiso   1.00
O1321  O     0.72560   0.41160   0.77044   0.00000  Uiso   1.00
O1322  O     0.83113   0.60126   0.95228   0.00000  Uiso   1.00
O1323  O     0.77008   0.65964   0.94352   0.00000  Uiso   1.00
O1324  O     0.74363   0.59355   0.89724   0.00000  Uiso   1.00
O1325  O     0.79342   0.60191   0.71470   0.00000  Uiso   1.00
O1326  O     0.84551   0.66324   0.70428   0.00000  Uiso   1.00
O1327  O     0.89295   0.60044   0.74561   0.00000  Uiso   1.00
O1328  O     0.83334   0.56108   0.79513   0.00000  Uiso   1.00
O1329  O     0.84090   0.39484   0.95359   0.00000  Uiso   1.00
O1330  O     0.90019   0.33563   0.95481   0.00000  Uiso   1.00
O1331  O     0.92332   0.40236   0.91347   0.00000  Uiso   1.00
O1332  O     0.83333   0.43893   0.79510   0.00000  Uiso   1.00
O1333  O     0.83334   0.56107   0.87157   0.00000  Uiso   1.00
O1334  O     0.75725   0.50000   0.86261   0.00000  Uiso   1.00
O1335  O     0.90942   0.50000   0.80405   0.00000  Uiso   1.00
O1336  O     0.75725   0.50000   0.78617   0.00000  Uiso   1.00
O1337  O     0.90942   0.50000   0.88050   0.00000  Uiso   1.00
O1338  O     0.98744   0.52914   0.77857   0.00000  Uiso   1.00
S1339  S     0.76507   0.37927   0.74719   0.00000  Uiso   1.00
S1340  S     0.79243   0.62501   0.91882   0.00000  Uiso   1.00
S1341  S     0.83748   0.62838   0.73655   0.00000  Uiso   1.00
S1342  S     0.87561   0.37128   0.92632   0.00000  Uiso   1.00
Zn1343 Zn    0.83333   0.49999   0.88437   0.00000  Uiso   1.00
Zn1344 Zn    0.83333   0.50001   0.78229   0.00000  Uiso   1.00
C1345  C     0.16565   0.75329   0.83351   0.00000  Uiso   1.00
C1346  C     0.17176   0.68616   0.87481   0.00000  Uiso   1.00
C1347  C     0.15866   0.95784   0.83144   0.00000  Uiso   1.00
C1348  C     0.16084   0.70928   0.83355   0.00000  Uiso   1.00
C1349  C     0.21078   0.82342   0.69643   0.00000  Uiso   1.00
C1350  C     0.12242   0.84281   0.97025   0.00000  Uiso   1.00
C1351  C     0.21081   0.82352   0.98181   0.00000  Uiso   1.00
C1352  C     0.12244   0.84284   0.68486   0.00000  Uiso   1.00
C1353  C     0.16436   0.91352   0.83269   0.00000  Uiso   1.00
C1354  C     0.06719   0.83438   0.82154   0.00000  Uiso   1.00
C1355  C     0.26618   0.83273   0.84516   0.00000  Uiso   1.00
C1356  C     0.01258   0.84027   0.81614   0.00000  Uiso   1.00
C1357  C     0.32085   0.82728   0.85067   0.00000  Uiso   1.00
C1358  C     0.14359   0.68926   0.79185   0.00000  Uiso   1.00
C1359  C     0.15685   0.97864   0.87318   0.00000  Uiso   1.00
C1360  C     0.15553   0.98100   0.78971   0.00000  Uiso   1.00
H1361  H     0.24604   0.81527   0.71909   0.00000  Uiso   1.00
H1362  H     0.27763   0.74189   0.94347   0.00000  Uiso   1.00
H1363  H     0.08703   0.85052   0.94761   0.00000  Uiso   1.00
H1364  H     0.24609   0.81558   0.96835   0.00000  Uiso   1.00
H1365  H     0.08708   0.85061   0.69830   0.00000  Uiso   1.00
H1366  H     0.01318   0.87222   0.75914   0.00000  Uiso   1.00
H1367  H     0.32154   0.79903   0.91015   0.00000  Uiso   1.00
H1368  H     0.03709   0.75838   0.74394   0.00000  Uiso   1.00
H1369  H     0.05638   0.92236   0.92264   0.00000  Uiso   1.00
H1370  H     0.22844   0.92019   0.71596   0.00000  Uiso   1.00
N1371  N     0.16665   0.83332   0.95240   0.00000  Uiso   1.00
N1372  N     0.16668   0.83334   0.71427   0.00000  Uiso   1.00
O1373  O     0.16666   0.77225   0.87154   0.00000  Uiso   1.00
O1374  O     0.01289   0.80555   0.88850   0.00000  Uiso   1.00
O1375  O     0.12696   0.73641   0.71459   0.00000  Uiso   1.00
O1376  O     0.06564   0.68001   0.72108   0.00000  Uiso   1.00
O1377  O     0.05893   0.74493   0.77044   0.00000  Uiso   1.00
O1378  O     0.16446   0.93459   0.95228   0.00000  Uiso   1.00
O1379  O     0.10341   0.99298   0.94352   0.00000  Uiso   1.00
O1380  O     0.07696   0.92688   0.89724   0.00000  Uiso   1.00
O1381  O     0.12675   0.93524   0.71470   0.00000  Uiso   1.00
O1382  O     0.17884   0.99657   0.70428   0.00000  Uiso   1.00
O1383  O     0.22628   0.93377   0.74561   0.00000  Uiso   1.00
O1384  O     0.16667   0.89442   0.79513   0.00000  Uiso   1.00
O1385  O     0.17424   0.72817   0.95359   0.00000  Uiso   1.00
O1386  O     0.23352   0.66897   0.95481   0.00000  Uiso   1.00
O1387  O     0.25665   0.73569   0.91347   0.00000  Uiso   1.00
O1388  O     0.16666   0.77226   0.79510   0.00000  Uiso   1.00
O1389  O     0.16667   0.89441   0.87157   0.00000  Uiso   1.00
O1390  O     0.09058   0.83333   0.86261   0.00000  Uiso   1.00
O1391  O     0.24275   0.83334   0.80405   0.00000  Uiso   1.00
O1392  O     0.09058   0.83334   0.78617   0.00000  Uiso   1.00
O1393  O     0.24275   0.83333   0.88050   0.00000  Uiso   1.00
O1394  O     0.32077   0.86247   0.77857   0.00000  Uiso   1.00
S1395  S     0.09840   0.71260   0.74719   0.00000  Uiso   1.00
S1396  S     0.12577   0.95835   0.91882   0.00000  Uiso   1.00
S1397  S     0.17082   0.96172   0.73655   0.00000  Uiso   1.00
S1398  S     0.20894   0.70461   0.92632   0.00000  Uiso   1.00
Zn1399 Zn    0.16667   0.83333   0.88437   0.00000  Uiso   1.00
Zn1400 Zn    0.16667   0.83334   0.78229   0.00000  Uiso   1.00
C1401  C     0.49899   0.75329   0.83351   0.00000  Uiso   1.00
C1402  C     0.50509   0.68616   0.87481   0.00000  Uiso   1.00
C1403  C     0.49200   0.95784   0.83144   0.00000  Uiso   1.00
C1404  C     0.49417   0.70928   0.83355   0.00000  Uiso   1.00
C1405  C     0.54412   0.82342   0.69643   0.00000  Uiso   1.00
C1406  C     0.45576   0.84281   0.97025   0.00000  Uiso   1.00
C1407  C     0.54414   0.82352   0.98181   0.00000  Uiso   1.00
C1408  C     0.45577   0.84284   0.68486   0.00000  Uiso   1.00
C1409  C     0.49769   0.91352   0.83269   0.00000  Uiso   1.00
C1410  C     0.40052   0.83438   0.82154   0.00000  Uiso   1.00
C1411  C     0.59952   0.83273   0.84516   0.00000  Uiso   1.00
C1412  C     0.34592   0.84027   0.81614   0.00000  Uiso   1.00
C1413  C     0.65419   0.82728   0.85067   0.00000  Uiso   1.00
C1414  C     0.47692   0.68926   0.79185   0.00000  Uiso   1.00
C1415  C     0.49019   0.97864   0.87318   0.00000  Uiso   1.00
C1416  C     0.48887   0.98100   0.78971   0.00000  Uiso   1.00
H1417  H     0.57937   0.81527   0.71909   0.00000  Uiso   1.00
H1418  H     0.61096   0.74189   0.94347   0.00000  Uiso   1.00
H1419  H     0.42036   0.85052   0.94761   0.00000  Uiso   1.00
H1420  H     0.57942   0.81558   0.96835   0.00000  Uiso   1.00
H1421  H     0.42042   0.85061   0.69830   0.00000  Uiso   1.00
H1422  H     0.34651   0.87222   0.75914   0.00000  Uiso   1.00
H1423  H     0.65487   0.79903   0.91015   0.00000  Uiso   1.00
H1424  H     0.37042   0.75838   0.74394   0.00000  Uiso   1.00
H1425  H     0.38971   0.92236   0.92264   0.00000  Uiso   1.00
H1426  H     0.56177   0.92019   0.71596   0.00000  Uiso   1.00
N1427  N     0.49999   0.83332   0.95240   0.00000  Uiso   1.00
N1428  N     0.50001   0.83334   0.71427   0.00000  Uiso   1.00
O1429  O     0.50000   0.77225   0.87154   0.00000  Uiso   1.00
O1430  O     0.34622   0.80555   0.88850   0.00000  Uiso   1.00
O1431  O     0.46030   0.73641   0.71459   0.00000  Uiso   1.00
O1432  O     0.39897   0.68001   0.72108   0.00000  Uiso   1.00
O1433  O     0.39227   0.74493   0.77044   0.00000  Uiso   1.00
O1434  O     0.49779   0.93459   0.95228   0.00000  Uiso   1.00
O1435  O     0.43675   0.99298   0.94352   0.00000  Uiso   1.00
O1436  O     0.41030   0.92688   0.89724   0.00000  Uiso   1.00
O1437  O     0.46009   0.93524   0.71470   0.00000  Uiso   1.00
O1438  O     0.51218   0.99657   0.70428   0.00000  Uiso   1.00
O1439  O     0.55961   0.93377   0.74561   0.00000  Uiso   1.00
O1440  O     0.50000   0.89442   0.79513   0.00000  Uiso   1.00
O1441  O     0.50757   0.72817   0.95359   0.00000  Uiso   1.00
O1442  O     0.56686   0.66897   0.95481   0.00000  Uiso   1.00
O1443  O     0.58998   0.73569   0.91347   0.00000  Uiso   1.00
O1444  O     0.50000   0.77226   0.79510   0.00000  Uiso   1.00
O1445  O     0.50000   0.89441   0.87157   0.00000  Uiso   1.00
O1446  O     0.42392   0.83333   0.86261   0.00000  Uiso   1.00
O1447  O     0.57608   0.83334   0.80405   0.00000  Uiso   1.00
O1448  O     0.42392   0.83334   0.78617   0.00000  Uiso   1.00
O1449  O     0.57608   0.83333   0.88050   0.00000  Uiso   1.00
O1450  O     0.65410   0.86247   0.77857   0.00000  Uiso   1.00
S1451  S     0.43174   0.71260   0.74719   0.00000  Uiso   1.00
S1452  S     0.45910   0.95835   0.91882   0.00000  Uiso   1.00
S1453  S     0.50415   0.96172   0.73655   0.00000  Uiso   1.00
S1454  S     0.54227   0.70461   0.92632   0.00000  Uiso   1.00
Zn1455 Zn    0.50000   0.83333   0.88437   0.00000  Uiso   1.00
Zn1456 Zn    0.50000   0.83334   0.78229   0.00000  Uiso   1.00
C1457  C     0.83232   0.75329   0.83351   0.00000  Uiso   1.00
C1458  C     0.83843   0.68616   0.87481   0.00000  Uiso   1.00
C1459  C     0.82533   0.95784   0.83144   0.00000  Uiso   1.00
C1460  C     0.82750   0.70928   0.83355   0.00000  Uiso   1.00
C1461  C     0.87745   0.82342   0.69643   0.00000  Uiso   1.00
C1462  C     0.78909   0.84281   0.97025   0.00000  Uiso   1.00
C1463  C     0.87747   0.82352   0.98181   0.00000  Uiso   1.00
C1464  C     0.78910   0.84284   0.68486   0.00000  Uiso   1.00
C1465  C     0.83102   0.91352   0.83269   0.00000  Uiso   1.00
C1466  C     0.73385   0.83438   0.82154   0.00000  Uiso   1.00
C1467  C     0.93285   0.83273   0.84516   0.00000  Uiso   1.00
C1468  C     0.67925   0.84027   0.81614   0.00000  Uiso   1.00
C1469  C     0.98752   0.82728   0.85067   0.00000  Uiso   1.00
C1470  C     0.81026   0.68926   0.79185   0.00000  Uiso   1.00
C1471  C     0.82352   0.97864   0.87318   0.00000  Uiso   1.00
C1472  C     0.82220   0.98100   0.78971   0.00000  Uiso   1.00
H1473  H     0.91271   0.81527   0.71909   0.00000  Uiso   1.00
H1474  H     0.94430   0.74189   0.94347   0.00000  Uiso   1.00
H1475  H     0.75369   0.85052   0.94761   0.00000  Uiso   1.00
H1476  H     0.91275   0.81558   0.96835   0.00000  Uiso   1.00
H1477  H     0.75375   0.85061   0.69830   0.00000  Uiso   1.00
H1478  H     0.67984   0.87222   0.75914   0.00000  Uiso   1.00
H1479  H     0.98820   0.79903   0.91015   0.00000  Uiso   1.00
H1480  H     0.70375   0.75838   0.74394   0.00000  Uiso   1.00
H1481  H     0.72304   0.92236   0.92264   0.00000  Uiso   1.00
H1482  H     0.89511   0.92019   0.71596   0.00000  Uiso   1.00
N1483  N     0.83332   0.83332   0.95240   0.00000  Uiso   1.00
N1484  N     0.83335   0.83334   0.71427   0.00000  Uiso   1.00
O1485  O     0.83333   0.77225   0.87154   0.00000  Uiso   1.00
O1486  O     0.67956   0.80555   0.88850   0.00000  Uiso   1.00
O1487  O     0.79363   0.73641   0.71459   0.00000  Uiso   1.00
O1488  O     0.73230   0.68001   0.72108   0.00000  Uiso   1.00
O1489  O     0.72560   0.74493   0.77044   0.00000  Uiso   1.00
O1490  O     0.83113   0.93459   0.95228   0.00000  Uiso   1.00
O1491  O     0.77008   0.99298   0.94352   0.00000  Uiso   1.00
O1492  O     0.74363   0.92688   0.89724   0.00000  Uiso   1.00
O1493  O     0.79342   0.93524   0.71470   0.00000  Uiso   1.00
O1494  O     0.84551   0.99657   0.70428   0.00000  Uiso   1.00
O1495  O     0.89295   0.93377   0.74561   0.00000  Uiso   1.00
O1496  O     0.83334   0.89442   0.79513   0.00000  Uiso   1.00
O1497  O     0.84090   0.72817   0.95359   0.00000  Uiso   1.00
O1498  O     0.90019   0.66897   0.95481   0.00000  Uiso   1.00
O1499  O     0.92332   0.73569   0.91347   0.00000  Uiso   1.00
O1500  O     0.83333   0.77226   0.79510   0.00000  Uiso   1.00
O1501  O     0.83334   0.89441   0.87157   0.00000  Uiso   1.00
O1502  O     0.75725   0.83333   0.86261   0.00000  Uiso   1.00
O1503  O     0.90942   0.83334   0.80405   0.00000  Uiso   1.00
O1504  O     0.75725   0.83334   0.78617   0.00000  Uiso   1.00
O1505  O     0.90942   0.83333   0.88050   0.00000  Uiso   1.00
O1506  O     0.98744   0.86247   0.77857   0.00000  Uiso   1.00
S1507  S     0.76507   0.71260   0.74719   0.00000  Uiso   1.00
S1508  S     0.79243   0.95835   0.91882   0.00000  Uiso   1.00
S1509  S     0.83748   0.96172   0.73655   0.00000  Uiso   1.00
S1510  S     0.87561   0.70461   0.92632   0.00000  Uiso   1.00
Zn1511 Zn    0.83333   0.83333   0.88437   0.00000  Uiso   1.00
Zn1512 Zn    0.83333   0.83334   0.78229   0.00000  Uiso   1.00
loop_
_geom_bond_atom_site_label_1
_geom_bond_atom_site_label_2
_geom_bond_distance
_geom_bond_site_symmetry_2
_ccdc_geom_bond_type
C1     C4      1.430   .     S
C1     O29     1.280   .     A
C1     O44     1.285   .     A
C2     C4      1.412   .     A
C2     S54     1.784   .     S
C2     C351    1.378   1_545 S
C3     C9      1.442   .     S
C3     C15     1.415   .     A
C3     C16     1.424   .     A
C4     C14     1.410   .     A
C5     N28     1.366   .     A
C5     H17     1.081   .     S
C5     C1015   1.412   1_554 S
C6     H19     1.080   .     S
C6     N27     1.366   .     A
C6     C512    1.412   .     S
C7     N27     1.365   .     A
C7     H20     1.081   .     S
C7     C509    1.412   .     S
C8     H21     1.081   .     S
C8     N28     1.365   .     A
C8     C1014   1.412   1_554 S
C9     O45     1.289   .     A
C9     O40     1.282   .     A
C10    O46     1.272   .     A
C10    C12     1.414   .     S
C10    O48     1.281   .     A
C11    C13     1.414   .     S
C11    O49     1.280   .     A
C11    O47     1.272   .     A
C12    C125    1.349   1_455 S
C12    O162    1.391   1_455 S
C13    C68     1.349   .     S
C13    O86     1.391   .     S
C14    S51     1.788   .     S
C14    C352    1.385   1_545 S
C15    S52     1.786   .     S
C15    C170    1.378   .     S
C16    S53     1.789   .     S
C16    C182    1.385   .     S
H18    O43     0.991   .     S
H22    O162    0.991   1_455 S
H23    O86     0.989   .     S
H24    O33     0.991   .     S
H25    O36     0.990   .     S
H26    O39     0.991   .     S
N27    Zn55    2.003   .     S
N28    Zn56    2.003   .     S
O29    Zn55    2.017   .     S
O30    H135    0.989   1_455 S
O30    C125    1.391   1_455 S
O31    S51     1.503   .     D
O32    S51     1.503   .     D
O33    S51     1.682   .     S
O34    S52     1.503   .     D
O35    S52     1.503   .     D
O36    S52     1.683   .     S
O37    S53     1.503   .     D
O38    S53     1.501   .     D
O39    S53     1.684   .     S
O40    Zn56    2.017   .     S
O41    S54     1.503   .     D
O42    S54     1.503   .     D
O43    S54     1.680   .     S
O44    Zn56    2.009   .     S
O45    Zn55    2.009   .     S
O46    Zn55    1.984   .     S
O47    Zn56    1.984   .     S
O48    Zn56    1.994   .     S
O49    Zn55    1.994   .     S
O50    H78     0.991   .     S
O50    C68     1.391   .     S
C57    C60     1.430   .     S
C57    O85     1.280   .     A
C57    O100    1.285   .     A
C58    C60     1.412   .     A
C58    S110    1.784   .     S
C58    C407    1.378   1_545 S
C59    C65     1.442   .     S
C59    C71     1.415   .     A
C59    C72     1.424   .     A
C60    C70     1.410   .     A
C61    N84     1.366   .     A
C61    H73     1.081   .     S
C61    C1071   1.412   1_554 S
C62    H75     1.080   .     S
C62    N83     1.366   .     A
C62    C568    1.412   .     S
C63    N83     1.365   .     A
C63    H76     1.081   .     S
C63    C565    1.412   .     S
C64    H77     1.081   .     S
C64    N84     1.365   .     A
C64    C1070   1.412   1_554 S
C65    O101    1.289   .     A
C65    O96     1.282   .     A
C66    O102    1.272   .     A
C66    C68     1.414   .     S
C66    O104    1.281   .     A
C67    C69     1.414   .     S
C67    O105    1.280   .     A
C67    O103    1.272   .     A
C69    C124    1.349   .     S
C69    O142    1.391   .     S
C70    S107    1.788   .     S
C70    C408    1.385   1_545 S
C71    S108    1.786   .     S
C71    C226    1.378   .     S
C72    S109    1.789   .     S
C72    C238    1.385   .     S
H74    O99     0.991   .     S
H79    O142    0.989   .     S
H80    O89     0.991   .     S
H81    O92     0.990   .     S
H82    O95     0.991   .     S
N83    Zn111   2.003   .     S
N84    Zn112   2.003   .     S
O85    Zn111   2.017   .     S
O87    S107    1.503   .     D
O88    S107    1.503   .     D
O89    S107    1.682   .     S
O90    S108    1.503   .     D
O91    S108    1.503   .     D
O92    S108    1.683   .     S
O93    S109    1.503   .     D
O94    S109    1.501   .     D
O95    S109    1.684   .     S
O96    Zn112   2.017   .     S
O97    S110    1.503   .     D
O98    S110    1.503   .     D
O99    S110    1.680   .     S
O100   Zn112   2.009   .     S
O101   Zn111   2.009   .     S
O102   Zn111   1.984   .     S
O103   Zn112   1.984   .     S
O104   Zn112   1.994   .     S
O105   Zn111   1.994   .     S
O106   H134    0.991   .     S
O106   C124    1.391   .     S
C113   C116    1.430   .     S
C113   O141    1.280   .     A
C113   O156    1.285   .     A
C114   C116    1.412   .     A
C114   S166    1.784   .     S
C114   C463    1.378   1_545 S
C115   C121    1.442   .     S
C115   C127    1.415   .     A
C115   C128    1.424   .     A
C116   C126    1.410   .     A
C117   N140    1.366   .     A
C117   H129    1.081   .     S
C117   C1127   1.412   1_554 S
C118   H131    1.080   .     S
C118   N139    1.366   .     A
C118   C624    1.412   .     S
C119   N139    1.365   .     A
C119   H132    1.081   .     S
C119   C621    1.412   .     S
C120   H133    1.081   .     S
C120   N140    1.365   .     A
C120   C1126   1.412   1_554 S
C121   O157    1.289   .     A
C121   O152    1.282   .     A
C122   O158    1.272   .     A
C122   C124    1.414   .     S
C122   O160    1.281   .     A
C123   C125    1.414   .     S
C123   O161    1.280   .     A
C123   O159    1.272   .     A
C125   C12     1.349   1_655 S
C125   O30     1.391   1_655 S
C126   S163    1.788   .     S
C126   C464    1.385   1_545 S
C127   S164    1.786   .     S
C127   C282    1.378   .     S
C128   S165    1.789   .     S
C128   C294    1.385   .     S
H130   O155    0.991   .     S
H135   O30     0.989   1_655 S
H136   O145    0.991   .     S
H137   O148    0.990   .     S
H138   O151    0.991   .     S
N139   Zn167   2.003   .     S
N140   Zn168   2.003   .     S
O141   Zn167   2.017   .     S
O143   S163    1.503   .     D
O144   S163    1.503   .     D
O145   S163    1.682   .     S
O146   S164    1.503   .     D
O147   S164    1.503   .     D
O148   S164    1.683   .     S
O149   S165    1.503   .     D
O150   S165    1.501   .     D
O151   S165    1.684   .     S
O152   Zn168   2.017   .     S
O153   S166    1.503   .     D
O154   S166    1.503   .     D
O155   S166    1.680   .     S
O156   Zn168   2.009   .     S
O157   Zn167   2.009   .     S
O158   Zn167   1.984   .     S
O159   Zn168   1.984   .     S
O160   Zn168   1.994   .     S
O161   Zn167   1.994   .     S
O162   H22     0.991   1_655 S
O162   C12     1.391   1_655 S
C169   C172    1.430   .     S
C169   O197    1.280   .     A
C169   O212    1.285   .     A
C170   C172    1.412   .     A
C170   S222    1.784   .     S
C171   C177    1.442   .     S
C171   C183    1.415   .     A
C171   C184    1.424   .     A
C172   C182    1.410   .     A
C173   N196    1.366   .     A
C173   H185    1.081   .     S
C173   C1183   1.412   1_554 S
C174   H187    1.080   .     S
C174   N195    1.366   .     A
C174   C680    1.412   .     S
C175   N195    1.365   .     A
C175   H188    1.081   .     S
C175   C677    1.412   .     S
C176   H189    1.081   .     S
C176   N196    1.365   .     A
C176   C1182   1.412   1_554 S
C177   O213    1.289   .     A
C177   O208    1.282   .     A
C178   O214    1.272   .     A
C178   C180    1.414   .     S
C178   O216    1.281   .     A
C179   C181    1.414   .     S
C179   O217    1.280   .     A
C179   O215    1.272   .     A
C180   C293    1.349   1_455 S
C180   O330    1.391   1_455 S
C181   C236    1.349   .     S
C181   O254    1.391   .     S
C182   S219    1.788   .     S
C183   S220    1.786   .     S
C183   C338    1.378   .     S
C184   S221    1.789   .     S
C184   C350    1.385   .     S
H186   O211    0.991   .     S
H190   O330    0.991   1_455 S
H191   O254    0.989   .     S
H192   O201    0.991   .     S
H193   O204    0.990   .     S
H194   O207    0.991   .     S
N195   Zn223   2.003   .     S
N196   Zn224   2.003   .     S
O197   Zn223   2.017   .     S
O198   H303    0.989   1_455 S
O198   C293    1.391   1_455 S
O199   S219    1.503   .     D
O200   S219    1.503   .     D
O201   S219    1.682   .     S
O202   S220    1.503   .     D
O203   S220    1.503   .     D
O204   S220    1.683   .     S
O205   S221    1.503   .     D
O206   S221    1.501   .     D
O207   S221    1.684   .     S
O208   Zn224   2.017   .     S
O209   S222    1.503   .     D
O210   S222    1.503   .     D
O211   S222    1.680   .     S
O212   Zn224   2.009   .     S
O213   Zn223   2.009   .     S
O214   Zn223   1.984   .     S
O215   Zn224   1.984   .     S
O216   Zn224   1.994   .     S
O217   Zn223   1.994   .     S
O218   H246    0.991   .     S
O218   C236    1.391   .     S
C225   C228    1.430   .     S
C225   O253    1.280   .     A
C225   O268    1.285   .     A
C226   C228    1.412   .     A
C226   S278    1.784   .     S
C227   C233    1.442   .     S
C227   C239    1.415   .     A
C227   C240    1.424   .     A
C228   C238    1.410   .     A
C229   N252    1.366   .     A
C229   H241    1.081   .     S
C229   C1239   1.412   1_554 S
C230   H243    1.080   .     S
C230   N251    1.366   .     A
C230   C736    1.412   .     S
C231   N251    1.365   .     A
C231   H244    1.081   .     S
C231   C733    1.412   .     S
C232   H245    1.081   .     S
C232   N252    1.365   .     A
C232   C1238   1.412   1_554 S
C233   O269    1.289   .     A
C233   O264    1.282   .     A
C234   O270    1.272   .     A
C234   C236    1.414   .     S
C234   O272    1.281   .     A
C235   C237    1.414   .     S
C235   O273    1.280   .     A
C235   O271    1.272   .     A
C237   C292    1.349   .     S
C237   O310    1.391   .     S
C238   S275    1.788   .     S
C239   S276    1.786   .     S
C239   C394    1.378   .     S
C240   S277    1.789   .     S
C240   C406    1.385   .     S
H242   O267    0.991   .     S
H247   O310    0.989   .     S
H248   O257    0.991   .     S
H249   O260    0.990   .     S
H250   O263    0.991   .     S
N251   Zn279   2.003   .     S
N252   Zn280   2.003   .     S
O253   Zn279   2.017   .     S
O255   S275    1.503   .     D
O256   S275    1.503   .     D
O257   S275    1.682   .     S
O258   S276    1.503   .     D
O259   S276    1.503   .     D
O260   S276    1.683   .     S
O261   S277    1.503   .     D
O262   S277    1.501   .     D
O263   S277    1.684   .     S
O264   Zn280   2.017   .     S
O265   S278    1.503   .     D
O266   S278    1.503   .     D
O267   S278    1.680   .     S
O268   Zn280   2.009   .     S
O269   Zn279   2.009   .     S
O270   Zn279   1.984   .     S
O271   Zn280   1.984   .     S
O272   Zn280   1.994   .     S
O273   Zn279   1.994   .     S
O274   H302    0.991   .     S
O274   C292    1.391   .     S
C281   C284    1.430   .     S
C281   O309    1.280   .     A
C281   O324    1.285   .     A
C282   C284    1.412   .     A
C282   S334    1.784   .     S
C283   C289    1.442   .     S
C283   C295    1.415   .     A
C283   C296    1.424   .     A
C284   C294    1.410   .     A
C285   N308    1.366   .     A
C285   H297    1.081   .     S
C285   C1295   1.412   1_554 S
C286   H299    1.080   .     S
C286   N307    1.366   .     A
C286   C792    1.412   .     S
C287   N307    1.365   .     A
C287   H300    1.081   .     S
C287   C789    1.412   .     S
C288   H301    1.081   .     S
C288   N308    1.365   .     A
C288   C1294   1.412   1_554 S
C289   O325    1.289   .     A
C289   O320    1.282   .     A
C290   O326    1.272   .     A
C290   C292    1.414   .     S
C290   O328    1.281   .     A
C291   C293    1.414   .     S
C291   O329    1.280   .     A
C291   O327    1.272   .     A
C293   C180    1.349   1_655 S
C293   O198    1.391   1_655 S
C294   S331    1.788   .     S
C295   S332    1.786   .     S
C295   C450    1.378   .     S
C296   S333    1.789   .     S
C296   C462    1.385   .     S
H298   O323    0.991   .     S
H303   O198    0.989   1_655 S
H304   O313    0.991   .     S
H305   O316    0.990   .     S
H306   O319    0.991   .     S
N307   Zn335   2.003   .     S
N308   Zn336   2.003   .     S
O309   Zn335   2.017   .     S
O311   S331    1.503   .     D
O312   S331    1.503   .     D
O313   S331    1.682   .     S
O314   S332    1.503   .     D
O315   S332    1.503   .     D
O316   S332    1.683   .     S
O317   S333    1.503   .     D
O318   S333    1.501   .     D
O319   S333    1.684   .     S
O320   Zn336   2.017   .     S
O321   S334    1.503   .     D
O322   S334    1.503   .     D
O323   S334    1.680   .     S
O324   Zn336   2.009   .     S
O325   Zn335   2.009   .     S
O326   Zn335   1.984   .     S
O327   Zn336   1.984   .     S
O328   Zn336   1.994   .     S
O329   Zn335   1.994   .     S
O330   H190    0.991   1_655 S
O330   C180    1.391   1_655 S
C337   C340    1.430   .     S
C337   O365    1.280   .     A
C337   O380    1.285   .     A
C338   C340    1.412   .     A
C338   S390    1.784   .     S
C339   C345    1.442   .     S
C339   C351    1.415   .     A
C339   C352    1.424   .     A
C340   C350    1.410   .     A
C341   N364    1.366   .     A
C341   H353    1.081   .     S
C341   C1351   1.412   1_554 S
C342   H355    1.080   .     S
C342   N363    1.366   .     A
C342   C848    1.412   .     S
C343   N363    1.365   .     A
C343   H356    1.081   .     S
C343   C845    1.412   .     S
C344   H357    1.081   .     S
C344   N364    1.365   .     A
C344   C1350   1.412   1_554 S
C345   O381    1.289   .     A
C345   O376    1.282   .     A
C346   O382    1.272   .     A
C346   C348    1.414   .     S
C346   O384    1.281   .     A
C347   C349    1.414   .     S
C347   O385    1.280   .     A
C347   O383    1.272   .     A
C348   C461    1.349   1_455 S
C348   O498    1.391   1_455 S
C349   C404    1.349   .     S
C349   O422    1.391   .     S
C350   S387    1.788   .     S
C351   S388    1.786   .     S
C351   C2      1.378   1_565 S
C352   S389    1.789   .     S
C352   C14     1.385   1_565 S
H354   O379    0.991   .     S
H358   O498    0.991   1_455 S
H359   O422    0.989   .     S
H360   O369    0.991   .     S
H361   O372    0.990   .     S
H362   O375    0.991   .     S
N363   Zn391   2.003   .     S
N364   Zn392   2.003   .     S
O365   Zn391   2.017   .     S
O366   H471    0.989   1_455 S
O366   C461    1.391   1_455 S
O367   S387    1.503   .     D
O368   S387    1.503   .     D
O369   S387    1.682   .     S
O370   S388    1.503   .     D
O371   S388    1.503   .     D
O372   S388    1.683   .     S
O373   S389    1.503   .     D
O374   S389    1.501   .     D
O375   S389    1.684   .     S
O376   Zn392   2.017   .     S
O377   S390    1.503   .     D
O378   S390    1.503   .     D
O379   S390    1.680   .     S
O380   Zn392   2.009   .     S
O381   Zn391   2.009   .     S
O382   Zn391   1.984   .     S
O383   Zn392   1.984   .     S
O384   Zn392   1.994   .     S
O385   Zn391   1.994   .     S
O386   H414    0.991   .     S
O386   C404    1.391   .     S
C393   C396    1.430   .     S
C393   O421    1.280   .     A
C393   O436    1.285   .     A
C394   C396    1.412   .     A
C394   S446    1.784   .     S
C395   C401    1.442   .     S
C395   C407    1.415   .     A
C395   C408    1.424   .     A
C396   C406    1.410   .     A
C397   N420    1.366   .     A
C397   H409    1.081   .     S
C397   C1407   1.412   1_554 S
C398   H411    1.080   .     S
C398   N419    1.366   .     A
C398   C904    1.412   .     S
C399   N419    1.365   .     A
C399   H412    1.081   .     S
C399   C901    1.412   .     S
C400   H413    1.081   .     S
C400   N420    1.365   .     A
C400   C1406   1.412   1_554 S
C401   O437    1.289   .     A
C401   O432    1.282   .     A
C402   O438    1.272   .     A
C402   C404    1.414   .     S
C402   O440    1.281   .     A
C403   C405    1.414   .     S
C403   O441    1.280   .     A
C403   O439    1.272   .     A
C405   C460    1.349   .     S
C405   O478    1.391   .     S
C406   S443    1.788   .     S
C407   S444    1.786   .     S
C407   C58     1.378   1_565 S
C408   S445    1.789   .     S
C408   C70     1.385   1_565 S
H410   O435    0.991   .     S
H415   O478    0.989   .     S
H416   O425    0.991   .     S
H417   O428    0.990   .     S
H418   O431    0.991   .     S
N419   Zn447   2.003   .     S
N420   Zn448   2.003   .     S
O421   Zn447   2.017   .     S
O423   S443    1.503   .     D
O424   S443    1.503   .     D
O425   S443    1.682   .     S
O426   S444    1.503   .     D
O427   S444    1.503   .     D
O428   S444    1.683   .     S
O429   S445    1.503   .     D
O430   S445    1.501   .     D
O431   S445    1.684   .     S
O432   Zn448   2.017   .     S
O433   S446    1.503   .     D
O434   S446    1.503   .     D
O435   S446    1.680   .     S
O436   Zn448   2.009   .     S
O437   Zn447   2.009   .     S
O438   Zn447   1.984   .     S
O439   Zn448   1.984   .     S
O440   Zn448   1.994   .     S
O441   Zn447   1.994   .     S
O442   H470    0.991   .     S
O442   C460    1.391   .     S
C449   C452    1.430   .     S
C449   O477    1.280   .     A
C449   O492    1.285   .     A
C450   C452    1.412   .     A
C450   S502    1.784   .     S
C451   C457    1.442   .     S
C451   C463    1.415   .     A
C451   C464    1.424   .     A
C452   C462    1.410   .     A
C453   N476    1.366   .     A
C453   H465    1.081   .     S
C453   C1463   1.412   1_554 S
C454   H467    1.080   .     S
C454   N475    1.366   .     A
C454   C960    1.412   .     S
C455   N475    1.365   .     A
C455   H468    1.081   .     S
C455   C957    1.412   .     S
C456   H469    1.081   .     S
C456   N476    1.365   .     A
C456   C1462   1.412   1_554 S
C457   O493    1.289   .     A
C457   O488    1.282   .     A
C458   O494    1.272   .     A
C458   C460    1.414   .     S
C458   O496    1.281   .     A
C459   C461    1.414   .     S
C459   O497    1.280   .     A
C459   O495    1.272   .     A
C461   C348    1.349   1_655 S
C461   O366    1.391   1_655 S
C462   S499    1.788   .     S
C463   S500    1.786   .     S
C463   C114    1.378   1_565 S
C464   S501    1.789   .     S
C464   C126    1.385   1_565 S
H466   O491    0.991   .     S
H471   O366    0.989   1_655 S
H472   O481    0.991   .     S
H473   O484    0.990   .     S
H474   O487    0.991   .     S
N475   Zn503   2.003   .     S
N476   Zn504   2.003   .     S
O477   Zn503   2.017   .     S
O479   S499    1.503   .     D
O480   S499    1.503   .     D
O481   S499    1.682   .     S
O482   S500    1.503   .     D
O483   S500    1.503   .     D
O484   S500    1.683   .     S
O485   S501    1.503   .     D
O486   S501    1.501   .     D
O487   S501    1.684   .     S
O488   Zn504   2.017   .     S
O489   S502    1.503   .     D
O490   S502    1.503   .     D
O491   S502    1.680   .     S
O492   Zn504   2.009   .     S
O493   Zn503   2.009   .     S
O494   Zn503   1.984   .     S
O495   Zn504   1.984   .     S
O496   Zn504   1.994   .     S
O497   Zn503   1.994   .     S
O498   H358    0.991   1_655 S
O498   C348    1.391   1_655 S
C505   C508    1.430   .     S
C505   O533    1.280   .     A
C505   O548    1.285   .     A
C506   C508    1.412   .     A
C506   S558    1.784   .     S
C506   C855    1.378   1_545 S
C507   C513    1.442   .     S
C507   C519    1.415   .     A
C507   C520    1.424   .     A
C508   C518    1.410   .     A
C509   N532    1.366   .     A
C509   H521    1.081   .     S
C510   H523    1.080   .     S
C510   N531    1.366   .     A
C510   C1016   1.412   .     S
C511   N531    1.365   .     A
C511   H524    1.081   .     S
C511   C1013   1.412   .     S
C512   H525    1.081   .     S
C512   N532    1.365   .     A
C513   O549    1.289   .     A
C513   O544    1.282   .     A
C514   O550    1.272   .     A
C514   C516    1.414   .     S
C514   O552    1.281   .     A
C515   C517    1.414   .     S
C515   O553    1.280   .     A
C515   O551    1.272   .     A
C516   C629    1.349   1_455 S
C516   O666    1.391   1_455 S
C517   C572    1.349   .     S
C517   O590    1.391   .     S
C518   S555    1.788   .     S
C518   C856    1.385   1_545 S
C519   S556    1.786   .     S
C519   C674    1.378   .     S
C520   S557    1.789   .     S
C520   C686    1.385   .     S
H522   O547    0.991   .     S
H526   O666    0.991   1_455 S
H527   O590    0.989   .     S
H528   O537    0.991   .     S
H529   O540    0.990   .     S
H530   O543    0.991   .     S
N531   Zn559   2.003   .     S
N532   Zn560   2.003   .     S
O533   Zn559   2.017   .     S
O534   H639    0.989   1_455 S
O534   C629    1.391   1_455 S
O535   S555    1.503   .     D
O536   S555    1.503   .     D
O537   S555    1.682   .     S
O538   S556    1.503   .     D
O539   S556    1.503   .     D
O540   S556    1.683   .     S
O541   S557    1.503   .     D
O542   S557    1.501   .     D
O543   S557    1.684   .     S
O544   Zn560   2.017   .     S
O545   S558    1.503   .     D
O546   S558    1.503   .     D
O547   S558    1.680   .     S
O548   Zn560   2.009   .     S
O549   Zn559   2.009   .     S
O550   Zn559   1.984   .     S
O551   Zn560   1.984   .     S
O552   Zn560   1.994   .     S
O553   Zn559   1.994   .     S
O554   H582    0.991   .     S
O554   C572    1.391   .     S
C561   C564    1.430   .     S
C561   O589    1.280   .     A
C561   O604    1.285   .     A
C562   C564    1.412   .     A
C562   S614    1.784   .     S
C562   C911    1.378   1_545 S
C563   C569    1.442   .     S
C563   C575    1.415   .     A
C563   C576    1.424   .     A
C564   C574    1.410   .     A
C565   N588    1.366   .     A
C565   H577    1.081   .     S
C566   H579    1.080   .     S
C566   N587    1.366   .     A
C566   C1072   1.412   .     S
C567   N587    1.365   .     A
C567   H580    1.081   .     S
C567   C1069   1.412   .     S
C568   H581    1.081   .     S
C568   N588    1.365   .     A
C569   O605    1.289   .     A
C569   O600    1.282   .     A
C570   O606    1.272   .     A
C570   C572    1.414   .     S
C570   O608    1.281   .     A
C571   C573    1.414   .     S
C571   O609    1.280   .     A
C571   O607    1.272   .     A
C573   C628    1.349   .     S
C573   O646    1.391   .     S
C574   S611    1.788   .     S
C574   C912    1.385   1_545 S
C575   S612    1.786   .     S
C575   C730    1.378   .     S
C576   S613    1.789   .     S
C576   C742    1.385   .     S
H578   O603    0.991   .     S
H583   O646    0.989   .     S
H584   O593    0.991   .     S
H585   O596    0.990   .     S
H586   O599    0.991   .     S
N587   Zn615   2.003   .     S
N588   Zn616   2.003   .     S
O589   Zn615   2.017   .     S
O591   S611    1.503   .     D
O592   S611    1.503   .     D
O593   S611    1.682   .     S
O594   S612    1.503   .     D
O595   S612    1.503   .     D
O596   S612    1.683   .     S
O597   S613    1.503   .     D
O598   S613    1.501   .     D
O599   S613    1.684   .     S
O600   Zn616   2.017   .     S
O601   S614    1.503   .     D
O602   S614    1.503   .     D
O603   S614    1.680   .     S
O604   Zn616   2.009   .     S
O605   Zn615   2.009   .     S
O606   Zn615   1.984   .     S
O607   Zn616   1.984   .     S
O608   Zn616   1.994   .     S
O609   Zn615   1.994   .     S
O610   H638    0.991   .     S
O610   C628    1.391   .     S
C617   C620    1.430   .     S
C617   O645    1.280   .     A
C617   O660    1.285   .     A
C618   C620    1.412   .     A
C618   S670    1.784   .     S
C618   C967    1.378   1_545 S
C619   C625    1.442   .     S
C619   C631    1.415   .     A
C619   C632    1.424   .     A
C620   C630    1.410   .     A
C621   N644    1.366   .     A
C621   H633    1.081   .     S
C622   H635    1.080   .     S
C622   N643    1.366   .     A
C622   C1128   1.412   .     S
C623   N643    1.365   .     A
C623   H636    1.081   .     S
C623   C1125   1.412   .     S
C624   H637    1.081   .     S
C624   N644    1.365   .     A
C625   O661    1.289   .     A
C625   O656    1.282   .     A
C626   O662    1.272   .     A
C626   C628    1.414   .     S
C626   O664    1.281   .     A
C627   C629    1.414   .     S
C627   O665    1.280   .     A
C627   O663    1.272   .     A
C629   C516    1.349   1_655 S
C629   O534    1.391   1_655 S
C630   S667    1.788   .     S
C630   C968    1.385   1_545 S
C631   S668    1.786   .     S
C631   C786    1.378   .     S
C632   S669    1.789   .     S
C632   C798    1.385   .     S
H634   O659    0.991   .     S
H639   O534    0.989   1_655 S
H640   O649    0.991   .     S
H641   O652    0.990   .     S
H642   O655    0.991   .     S
N643   Zn671   2.003   .     S
N644   Zn672   2.003   .     S
O645   Zn671   2.017   .     S
O647   S667    1.503   .     D
O648   S667    1.503   .     D
O649   S667    1.682   .     S
O650   S668    1.503   .     D
O651   S668    1.503   .     D
O652   S668    1.683   .     S
O653   S669    1.503   .     D
O654   S669    1.501   .     D
O655   S669    1.684   .     S
O656   Zn672   2.017   .     S
O657   S670    1.503   .     D
O658   S670    1.503   .     D
O659   S670    1.680   .     S
O660   Zn672   2.009   .     S
O661   Zn671   2.009   .     S
O662   Zn671   1.984   .     S
O663   Zn672   1.984   .     S
O664   Zn672   1.994   .     S
O665   Zn671   1.994   .     S
O666   H526    0.991   1_655 S
O666   C516    1.391   1_655 S
C673   C676    1.430   .     S
C673   O701    1.280   .     A
C673   O716    1.285   .     A
C674   C676    1.412   .     A
C674   S726    1.784   .     S
C675   C681    1.442   .     S
C675   C687    1.415   .     A
C675   C688    1.424   .     A
C676   C686    1.410   .     A
C677   N700    1.366   .     A
C677   H689    1.081   .     S
C678   H691    1.080   .     S
C678   N699    1.366   .     A
C678   C1184   1.412   .     S
C679   N699    1.365   .     A
C679   H692    1.081   .     S
C679   C1181   1.412   .     S
C680   H693    1.081   .     S
C680   N700    1.365   .     A
C681   O717    1.289   .     A
C681   O712    1.282   .     A
C682   O718    1.272   .     A
C682   C684    1.414   .     S
C682   O720    1.281   .     A
C683   C685    1.414   .     S
C683   O721    1.280   .     A
C683   O719    1.272   .     A
C684   C797    1.349   1_455 S
C684   O834    1.391   1_455 S
C685   C740    1.349   .     S
C685   O758    1.391   .     S
C686   S723    1.788   .     S
C687   S724    1.786   .     S
C687   C842    1.378   .     S
C688   S725    1.789   .     S
C688   C854    1.385   .     S
H690   O715    0.991   .     S
H694   O834    0.991   1_455 S
H695   O758    0.989   .     S
H696   O705    0.991   .     S
H697   O708    0.990   .     S
H698   O711    0.991   .     S
N699   Zn727   2.003   .     S
N700   Zn728   2.003   .     S
O701   Zn727   2.017   .     S
O702   H807    0.989   1_455 S
O702   C797    1.391   1_455 S
O703   S723    1.503   .     D
O704   S723    1.503   .     D
O705   S723    1.682   .     S
O706   S724    1.503   .     D
O707   S724    1.503   .     D
O708   S724    1.683   .     S
O709   S725    1.503   .     D
O710   S725    1.501   .     D
O711   S725    1.684   .     S
O712   Zn728   2.017   .     S
O713   S726    1.503   .     D
O714   S726    1.503   .     D
O715   S726    1.680   .     S
O716   Zn728   2.009   .     S
O717   Zn727   2.009   .     S
O718   Zn727   1.984   .     S
O719   Zn728   1.984   .     S
O720   Zn728   1.994   .     S
O721   Zn727   1.994   .     S
O722   H750    0.991   .     S
O722   C740    1.391   .     S
C729   C732    1.430   .     S
C729   O757    1.280   .     A
C729   O772    1.285   .     A
C730   C732    1.412   .     A
C730   S782    1.784   .     S
C731   C737    1.442   .     S
C731   C743    1.415   .     A
C731   C744    1.424   .     A
C732   C742    1.410   .     A
C733   N756    1.366   .     A
C733   H745    1.081   .     S
C734   H747    1.080   .     S
C734   N755    1.366   .     A
C734   C1240   1.412   .     S
C735   N755    1.365   .     A
C735   H748    1.081   .     S
C735   C1237   1.412   .     S
C736   H749    1.081   .     S
C736   N756    1.365   .     A
C737   O773    1.289   .     A
C737   O768    1.282   .     A
C738   O774    1.272   .     A
C738   C740    1.414   .     S
C738   O776    1.281   .     A
C739   C741    1.414   .     S
C739   O777    1.280   .     A
C739   O775    1.272   .     A
C741   C796    1.349   .     S
C741   O814    1.391   .     S
C742   S779    1.788   .     S
C743   S780    1.786   .     S
C743   C898    1.378   .     S
C744   S781    1.789   .     S
C744   C910    1.385   .     S
H746   O771    0.991   .     S
H751   O814    0.989   .     S
H752   O761    0.991   .     S
H753   O764    0.990   .     S
H754   O767    0.991   .     S
N755   Zn783   2.003   .     S
N756   Zn784   2.003   .     S
O757   Zn783   2.017   .     S
O759   S779    1.503   .     D
O760   S779    1.503   .     D
O761   S779    1.682   .     S
O762   S780    1.503   .     D
O763   S780    1.503   .     D
O764   S780    1.683   .     S
O765   S781    1.503   .     D
O766   S781    1.501   .     D
O767   S781    1.684   .     S
O768   Zn784   2.017   .     S
O769   S782    1.503   .     D
O770   S782    1.503   .     D
O771   S782    1.680   .     S
O772   Zn784   2.009   .     S
O773   Zn783   2.009   .     S
O774   Zn783   1.984   .     S
O775   Zn784   1.984   .     S
O776   Zn784   1.994   .     S
O777   Zn783   1.994   .     S
O778   H806    0.991   .     S
O778   C796    1.391   .     S
C785   C788    1.430   .     S
C785   O813    1.280   .     A
C785   O828    1.285   .     A
C786   C788    1.412   .     A
C786   S838    1.784   .     S
C787   C793    1.442   .     S
C787   C799    1.415   .     A
C787   C800    1.424   .     A
C788   C798    1.410   .     A
C789   N812    1.366   .     A
C789   H801    1.081   .     S
C790   H803    1.080   .     S
C790   N811    1.366   .     A
C790   C1296   1.412   .     S
C791   N811    1.365   .     A
C791   H804    1.081   .     S
C791   C1293   1.412   .     S
C792   H805    1.081   .     S
C792   N812    1.365   .     A
C793   O829    1.289   .     A
C793   O824    1.282   .     A
C794   O830    1.272   .     A
C794   C796    1.414   .     S
C794   O832    1.281   .     A
C795   C797    1.414   .     S
C795   O833    1.280   .     A
C795   O831    1.272   .     A
C797   C684    1.349   1_655 S
C797   O702    1.391   1_655 S
C798   S835    1.788   .     S
C799   S836    1.786   .     S
C799   C954    1.378   .     S
C800   S837    1.789   .     S
C800   C966    1.385   .     S
H802   O827    0.991   .     S
H807   O702    0.989   1_655 S
H808   O817    0.991   .     S
H809   O820    0.990   .     S
H810   O823    0.991   .     S
N811   Zn839   2.003   .     S
N812   Zn840   2.003   .     S
O813   Zn839   2.017   .     S
O815   S835    1.503   .     D
O816   S835    1.503   .     D
O817   S835    1.682   .     S
O818   S836    1.503   .     D
O819   S836    1.503   .     D
O820   S836    1.683   .     S
O821   S837    1.503   .     D
O822   S837    1.501   .     D
O823   S837    1.684   .     S
O824   Zn840   2.017   .     S
O825   S838    1.503   .     D
O826   S838    1.503   .     D
O827   S838    1.680   .     S
O828   Zn840   2.009   .     S
O829   Zn839   2.009   .     S
O830   Zn839   1.984   .     S
O831   Zn840   1.984   .     S
O832   Zn840   1.994   .     S
O833   Zn839   1.994   .     S
O834   H694    0.991   1_655 S
O834   C684    1.391   1_655 S
C841   C844    1.430   .     S
C841   O869    1.280   .     A
C841   O884    1.285   .     A
C842   C844    1.412   .     A
C842   S894    1.784   .     S
C843   C849    1.442   .     S
C843   C855    1.415   .     A
C843   C856    1.424   .     A
C844   C854    1.410   .     A
C845   N868    1.366   .     A
C845   H857    1.081   .     S
C846   H859    1.080   .     S
C846   N867    1.366   .     A
C846   C1352   1.412   .     S
C847   N867    1.365   .     A
C847   H860    1.081   .     S
C847   C1349   1.412   .     S
C848   H861    1.081   .     S
C848   N868    1.365   .     A
C849   O885    1.289   .     A
C849   O880    1.282   .     A
C850   O886    1.272   .     A
C850   C852    1.414   .     S
C850   O888    1.281   .     A
C851   C853    1.414   .     S
C851   O889    1.280   .     A
C851   O887    1.272   .     A
C852   C965    1.349   1_455 S
C852   O1002   1.391   1_455 S
C853   C908    1.349   .     S
C853   O926    1.391   .     S
C854   S891    1.788   .     S
C855   S892    1.786   .     S
C855   C506    1.378   1_565 S
C856   S893    1.789   .     S
C856   C518    1.385   1_565 S
H858   O883    0.991   .     S
H862   O1002   0.991   1_455 S
H863   O926    0.989   .     S
H864   O873    0.991   .     S
H865   O876    0.990   .     S
H866   O879    0.991   .     S
N867   Zn895   2.003   .     S
N868   Zn896   2.003   .     S
O869   Zn895   2.017   .     S
O870   H975    0.989   1_455 S
O870   C965    1.391   1_455 S
O871   S891    1.503   .     D
O872   S891    1.503   .     D
O873   S891    1.682   .     S
O874   S892    1.503   .     D
O875   S892    1.503   .     D
O876   S892    1.683   .     S
O877   S893    1.503   .     D
O878   S893    1.501   .     D
O879   S893    1.684   .     S
O880   Zn896   2.017   .     S
O881   S894    1.503   .     D
O882   S894    1.503   .     D
O883   S894    1.680   .     S
O884   Zn896   2.009   .     S
O885   Zn895   2.009   .     S
O886   Zn895   1.984   .     S
O887   Zn896   1.984   .     S
O888   Zn896   1.994   .     S
O889   Zn895   1.994   .     S
O890   H918    0.991   .     S
O890   C908    1.391   .     S
C897   C900    1.430   .     S
C897   O925    1.280   .     A
C897   O940    1.285   .     A
C898   C900    1.412   .     A
C898   S950    1.784   .     S
C899   C905    1.442   .     S
C899   C911    1.415   .     A
C899   C912    1.424   .     A
C900   C910    1.410   .     A
C901   N924    1.366   .     A
C901   H913    1.081   .     S
C902   H915    1.080   .     S
C902   N923    1.366   .     A
C902   C1408   1.412   .     S
C903   N923    1.365   .     A
C903   H916    1.081   .     S
C903   C1405   1.412   .     S
C904   H917    1.081   .     S
C904   N924    1.365   .     A
C905   O941    1.289   .     A
C905   O936    1.282   .     A
C906   O942    1.272   .     A
C906   C908    1.414   .     S
C906   O944    1.281   .     A
C907   C909    1.414   .     S
C907   O945    1.280   .     A
C907   O943    1.272   .     A
C909   C964    1.349   .     S
C909   O982    1.391   .     S
C910   S947    1.788   .     S
C911   S948    1.786   .     S
C911   C562    1.378   1_565 S
C912   S949    1.789   .     S
C912   C574    1.385   1_565 S
H914   O939    0.991   .     S
H919   O982    0.989   .     S
H920   O929    0.991   .     S
H921   O932    0.990   .     S
H922   O935    0.991   .     S
N923   Zn951   2.003   .     S
N924   Zn952   2.003   .     S
O925   Zn951   2.017   .     S
O927   S947    1.503   .     D
O928   S947    1.503   .     D
O929   S947    1.682   .     S
O930   S948    1.503   .     D
O931   S948    1.503   .     D
O932   S948    1.683   .     S
O933   S949    1.503   .     D
O934   S949    1.501   .     D
O935   S949    1.684   .     S
O936   Zn952   2.017   .     S
O937   S950    1.503   .     D
O938   S950    1.503   .     D
O939   S950    1.680   .     S
O940   Zn952   2.009   .     S
O941   Zn951   2.009   .     S
O942   Zn951   1.984   .     S
O943   Zn952   1.984   .     S
O944   Zn952   1.994   .     S
O945   Zn951   1.994   .     S
O946   H974    0.991   .     S
O946   C964    1.391   .     S
C953   C956    1.430   .     S
C953   O981    1.280   .     A
C953   O996    1.285   .     A
C954   C956    1.412   .     A
C954   S1006   1.784   .     S
C955   C961    1.442   .     S
C955   C967    1.415   .     A
C955   C968    1.424   .     A
C956   C966    1.410   .     A
C957   N980    1.366   .     A
C957   H969    1.081   .     S
C958   H971    1.080   .     S
C958   N979    1.366   .     A
C958   C1464   1.412   .     S
C959   N979    1.365   .     A
C959   H972    1.081   .     S
C959   C1461   1.412   .     S
C960   H973    1.081   .     S
C960   N980    1.365   .     A
C961   O997    1.289   .     A
C961   O992    1.282   .     A
C962   O998    1.272   .     A
C962   C964    1.414   .     S
C962   O1000   1.281   .     A
C963   C965    1.414   .     S
C963   O1001   1.280   .     A
C963   O999    1.272   .     A
C965   C852    1.349   1_655 S
C965   O870    1.391   1_655 S
C966   S1003   1.788   .     S
C967   S1004   1.786   .     S
C967   C618    1.378   1_565 S
C968   S1005   1.789   .     S
C968   C630    1.385   1_565 S
H970   O995    0.991   .     S
H975   O870    0.989   1_655 S
H976   O985    0.991   .     S
H977   O988    0.990   .     S
H978   O991    0.991   .     S
N979   Zn1007  2.003   .     S
N980   Zn1008  2.003   .     S
O981   Zn1007  2.017   .     S
O983   S1003   1.503   .     D
O984   S1003   1.503   .     D
O985   S1003   1.682   .     S
O986   S1004   1.503   .     D
O987   S1004   1.503   .     D
O988   S1004   1.683   .     S
O989   S1005   1.503   .     D
O990   S1005   1.501   .     D
O991   S1005   1.684   .     S
O992   Zn1008  2.017   .     S
O993   S1006   1.503   .     D
O994   S1006   1.503   .     D
O995   S1006   1.680   .     S
O996   Zn1008  2.009   .     S
O997   Zn1007  2.009   .     S
O998   Zn1007  1.984   .     S
O999   Zn1008  1.984   .     S
O1000  Zn1008  1.994   .     S
O1001  Zn1007  1.994   .     S
O1002  H862    0.991   1_655 S
O1002  C852    1.391   1_655 S
C1009  C1012   1.430   .     S
C1009  O1037   1.280   .     A
C1009  O1052   1.285   .     A
C1010  C1012   1.412   .     A
C1010  S1062   1.784   .     S
C1010  C1359   1.378   1_545 S
C1011  C1017   1.442   .     S
C1011  C1023   1.415   .     A
C1011  C1024   1.424   .     A
C1012  C1022   1.410   .     A
C1013  N1036   1.366   .     A
C1013  H1025   1.081   .     S
C1014  H1027   1.080   .     S
C1014  N1035   1.366   .     A
C1014  C8      1.412   1_556 S
C1015  N1035   1.365   .     A
C1015  H1028   1.081   .     S
C1015  C5      1.412   1_556 S
C1016  H1029   1.081   .     S
C1016  N1036   1.365   .     A
C1017  O1053   1.289   .     A
C1017  O1048   1.282   .     A
C1018  O1054   1.272   .     A
C1018  C1020   1.414   .     S
C1018  O1056   1.281   .     A
C1019  C1021   1.414   .     S
C1019  O1057   1.280   .     A
C1019  O1055   1.272   .     A
C1020  C1133   1.349   1_455 S
C1020  O1170   1.391   1_455 S
C1021  C1076   1.349   .     S
C1021  O1094   1.391   .     S
C1022  S1059   1.788   .     S
C1022  C1360   1.385   1_545 S
C1023  S1060   1.786   .     S
C1023  C1178   1.378   .     S
C1024  S1061   1.789   .     S
C1024  C1190   1.385   .     S
H1026  O1051   0.991   .     S
H1030  O1170   0.991   1_455 S
H1031  O1094   0.989   .     S
H1032  O1041   0.991   .     S
H1033  O1044   0.990   .     S
H1034  O1047   0.991   .     S
N1035  Zn1063  2.003   .     S
N1036  Zn1064  2.003   .     S
O1037  Zn1063  2.017   .     S
O1038  H1143   0.989   1_455 S
O1038  C1133   1.391   1_455 S
O1039  S1059   1.503   .     D
O1040  S1059   1.503   .     D
O1041  S1059   1.682   .     S
O1042  S1060   1.503   .     D
O1043  S1060   1.503   .     D
O1044  S1060   1.683   .     S
O1045  S1061   1.503   .     D
O1046  S1061   1.501   .     D
O1047  S1061   1.684   .     S
O1048  Zn1064  2.017   .     S
O1049  S1062   1.503   .     D
O1050  S1062   1.503   .     D
O1051  S1062   1.680   .     S
O1052  Zn1064  2.009   .     S
O1053  Zn1063  2.009   .     S
O1054  Zn1063  1.984   .     S
O1055  Zn1064  1.984   .     S
O1056  Zn1064  1.994   .     S
O1057  Zn1063  1.994   .     S
O1058  H1086   0.991   .     S
O1058  C1076   1.391   .     S
C1065  C1068   1.430   .     S
C1065  O1093   1.280   .     A
C1065  O1108   1.285   .     A
C1066  C1068   1.412   .     A
C1066  S1118   1.784   .     S
C1066  C1415   1.378   1_545 S
C1067  C1073   1.442   .     S
C1067  C1079   1.415   .     A
C1067  C1080   1.424   .     A
C1068  C1078   1.410   .     A
C1069  N1092   1.366   .     A
C1069  H1081   1.081   .     S
C1070  H1083   1.080   .     S
C1070  N1091   1.366   .     A
C1070  C64     1.412   1_556 S
C1071  N1091   1.365   .     A
C1071  H1084   1.081   .     S
C1071  C61     1.412   1_556 S
C1072  H1085   1.081   .     S
C1072  N1092   1.365   .     A
C1073  O1109   1.289   .     A
C1073  O1104   1.282   .     A
C1074  O1110   1.272   .     A
C1074  C1076   1.414   .     S
C1074  O1112   1.281   .     A
C1075  C1077   1.414   .     S
C1075  O1113   1.280   .     A
C1075  O1111   1.272   .     A
C1077  C1132   1.349   .     S
C1077  O1150   1.391   .     S
C1078  S1115   1.788   .     S
C1078  C1416   1.385   1_545 S
C1079  S1116   1.786   .     S
C1079  C1234   1.378   .     S
C1080  S1117   1.789   .     S
C1080  C1246   1.385   .     S
H1082  O1107   0.991   .     S
H1087  O1150   0.989   .     S
H1088  O1097   0.991   .     S
H1089  O1100   0.990   .     S
H1090  O1103   0.991   .     S
N1091  Zn1119  2.003   .     S
N1092  Zn1120  2.003   .     S
O1093  Zn1119  2.017   .     S
O1095  S1115   1.503   .     D
O1096  S1115   1.503   .     D
O1097  S1115   1.682   .     S
O1098  S1116   1.503   .     D
O1099  S1116   1.503   .     D
O1100  S1116   1.683   .     S
O1101  S1117   1.503   .     D
O1102  S1117   1.501   .     D
O1103  S1117   1.684   .     S
O1104  Zn1120  2.017   .     S
O1105  S1118   1.503   .     D
O1106  S1118   1.503   .     D
O1107  S1118   1.680   .     S
O1108  Zn1120  2.009   .     S
O1109  Zn1119  2.009   .     S
O1110  Zn1119  1.984   .     S
O1111  Zn1120  1.984   .     S
O1112  Zn1120  1.994   .     S
O1113  Zn1119  1.994   .     S
O1114  H1142   0.991   .     S
O1114  C1132   1.391   .     S
C1121  C1124   1.430   .     S
C1121  O1149   1.280   .     A
C1121  O1164   1.285   .     A
C1122  C1124   1.412   .     A
C1122  S1174   1.784   .     S
C1122  C1471   1.378   1_545 S
C1123  C1129   1.442   .     S
C1123  C1135   1.415   .     A
C1123  C1136   1.424   .     A
C1124  C1134   1.410   .     A
C1125  N1148   1.366   .     A
C1125  H1137   1.081   .     S
C1126  H1139   1.080   .     S
C1126  N1147   1.366   .     A
C1126  C120    1.412   1_556 S
C1127  N1147   1.365   .     A
C1127  H1140   1.081   .     S
C1127  C117    1.412   1_556 S
C1128  H1141   1.081   .     S
C1128  N1148   1.365   .     A
C1129  O1165   1.289   .     A
C1129  O1160   1.282   .     A
C1130  O1166   1.272   .     A
C1130  C1132   1.414   .     S
C1130  O1168   1.281   .     A
C1131  C1133   1.414   .     S
C1131  O1169   1.280   .     A
C1131  O1167   1.272   .     A
C1133  C1020   1.349   1_655 S
C1133  O1038   1.391   1_655 S
C1134  S1171   1.788   .     S
C1134  C1472   1.385   1_545 S
C1135  S1172   1.786   .     S
C1135  C1290   1.378   .     S
C1136  S1173   1.789   .     S
C1136  C1302   1.385   .     S
H1138  O1163   0.991   .     S
H1143  O1038   0.989   1_655 S
H1144  O1153   0.991   .     S
H1145  O1156   0.990   .     S
H1146  O1159   0.991   .     S
N1147  Zn1175  2.003   .     S
N1148  Zn1176  2.003   .     S
O1149  Zn1175  2.017   .     S
O1151  S1171   1.503   .     D
O1152  S1171   1.503   .     D
O1153  S1171   1.682   .     S
O1154  S1172   1.503   .     D
O1155  S1172   1.503   .     D
O1156  S1172   1.683   .     S
O1157  S1173   1.503   .     D
O1158  S1173   1.501   .     D
O1159  S1173   1.684   .     S
O1160  Zn1176  2.017   .     S
O1161  S1174   1.503   .     D
O1162  S1174   1.503   .     D
O1163  S1174   1.680   .     S
O1164  Zn1176  2.009   .     S
O1165  Zn1175  2.009   .     S
O1166  Zn1175  1.984   .     S
O1167  Zn1176  1.984   .     S
O1168  Zn1176  1.994   .     S
O1169  Zn1175  1.994   .     S
O1170  H1030   0.991   1_655 S
O1170  C1020   1.391   1_655 S
C1177  C1180   1.430   .     S
C1177  O1205   1.280   .     A
C1177  O1220   1.285   .     A
C1178  C1180   1.412   .     A
C1178  S1230   1.784   .     S
C1179  C1185   1.442   .     S
C1179  C1191   1.415   .     A
C1179  C1192   1.424   .     A
C1180  C1190   1.410   .     A
C1181  N1204   1.366   .     A
C1181  H1193   1.081   .     S
C1182  H1195   1.080   .     S
C1182  N1203   1.366   .     A
C1182  C176    1.412   1_556 S
C1183  N1203   1.365   .     A
C1183  H1196   1.081   .     S
C1183  C173    1.412   1_556 S
C1184  H1197   1.081   .     S
C1184  N1204   1.365   .     A
C1185  O1221   1.289   .     A
C1185  O1216   1.282   .     A
C1186  O1222   1.272   .     A
C1186  C1188   1.414   .     S
C1186  O1224   1.281   .     A
C1187  C1189   1.414   .     S
C1187  O1225   1.280   .     A
C1187  O1223   1.272   .     A
C1188  C1301   1.349   1_455 S
C1188  O1338   1.391   1_455 S
C1189  C1244   1.349   .     S
C1189  O1262   1.391   .     S
C1190  S1227   1.788   .     S
C1191  S1228   1.786   .     S
C1191  C1346   1.378   .     S
C1192  S1229   1.789   .     S
C1192  C1358   1.385   .     S
H1194  O1219   0.991   .     S
H1198  O1338   0.991   1_455 S
H1199  O1262   0.989   .     S
H1200  O1209   0.991   .     S
H1201  O1212   0.990   .     S
H1202  O1215   0.991   .     S
N1203  Zn1231  2.003   .     S
N1204  Zn1232  2.003   .     S
O1205  Zn1231  2.017   .     S
O1206  H1311   0.989   1_455 S
O1206  C1301   1.391   1_455 S
O1207  S1227   1.503   .     D
O1208  S1227   1.503   .     D
O1209  S1227   1.682   .     S
O1210  S1228   1.503   .     D
O1211  S1228   1.503   .     D
O1212  S1228   1.683   .     S
O1213  S1229   1.503   .     D
O1214  S1229   1.501   .     D
O1215  S1229   1.684   .     S
O1216  Zn1232  2.017   .     S
O1217  S1230   1.503   .     D
O1218  S1230   1.503   .     D
O1219  S1230   1.680   .     S
O1220  Zn1232  2.009   .     S
O1221  Zn1231  2.009   .     S
O1222  Zn1231  1.984   .     S
O1223  Zn1232  1.984   .     S
O1224  Zn1232  1.994   .     S
O1225  Zn1231  1.994   .     S
O1226  H1254   0.991   .     S
O1226  C1244   1.391   .     S
C1233  C1236   1.430   .     S
C1233  O1261   1.280   .     A
C1233  O1276   1.285   .     A
C1234  C1236   1.412   .     A
C1234  S1286   1.784   .     S
C1235  C1241   1.442   .     S
C1235  C1247   1.415   .     A
C1235  C1248   1.424   .     A
C1236  C1246   1.410   .     A
C1237  N1260   1.366   .     A
C1237  H1249   1.081   .     S
C1238  H1251   1.080   .     S
C1238  N1259   1.366   .     A
C1238  C232    1.412   1_556 S
C1239  N1259   1.365   .     A
C1239  H1252   1.081   .     S
C1239  C229    1.412   1_556 S
C1240  H1253   1.081   .     S
C1240  N1260   1.365   .     A
C1241  O1277   1.289   .     A
C1241  O1272   1.282   .     A
C1242  O1278   1.272   .     A
C1242  C1244   1.414   .     S
C1242  O1280   1.281   .     A
C1243  C1245   1.414   .     S
C1243  O1281   1.280   .     A
C1243  O1279   1.272   .     A
C1245  C1300   1.349   .     S
C1245  O1318   1.391   .     S
C1246  S1283   1.788   .     S
C1247  S1284   1.786   .     S
C1247  C1402   1.378   .     S
C1248  S1285   1.789   .     S
C1248  C1414   1.385   .     S
H1250  O1275   0.991   .     S
H1255  O1318   0.989   .     S
H1256  O1265   0.991   .     S
H1257  O1268   0.990   .     S
H1258  O1271   0.991   .     S
N1259  Zn1287  2.003   .     S
N1260  Zn1288  2.003   .     S
O1261  Zn1287  2.017   .     S
O1263  S1283   1.503   .     D
O1264  S1283   1.503   .     D
O1265  S1283   1.682   .     S
O1266  S1284   1.503   .     D
O1267  S1284   1.503   .     D
O1268  S1284   1.683   .     S
O1269  S1285   1.503   .     D
O1270  S1285   1.501   .     D
O1271  S1285   1.684   .     S
O1272  Zn1288  2.017   .     S
O1273  S1286   1.503   .     D
O1274  S1286   1.503   .     D
O1275  S1286   1.680   .     S
O1276  Zn1288  2.009   .     S
O1277  Zn1287  2.009   .     S
O1278  Zn1287  1.984   .     S
O1279  Zn1288  1.984   .     S
O1280  Zn1288  1.994   .     S
O1281  Zn1287  1.994   .     S
O1282  H1310   0.991   .     S
O1282  C1300   1.391   .     S
C1289  C1292   1.430   .     S
C1289  O1317   1.280   .     A
C1289  O1332   1.285   .     A
C1290  C1292   1.412   .     A
C1290  S1342   1.784   .     S
C1291  C1297   1.442   .     S
C1291  C1303   1.415   .     A
C1291  C1304   1.424   .     A
C1292  C1302   1.410   .     A
C1293  N1316   1.366   .     A
C1293  H1305   1.081   .     S
C1294  H1307   1.080   .     S
C1294  N1315   1.366   .     A
C1294  C288    1.412   1_556 S
C1295  N1315   1.365   .     A
C1295  H1308   1.081   .     S
C1295  C285    1.412   1_556 S
C1296  H1309   1.081   .     S
C1296  N1316   1.365   .     A
C1297  O1333   1.289   .     A
C1297  O1328   1.282   .     A
C1298  O1334   1.272   .     A
C1298  C1300   1.414   .     S
C1298  O1336   1.281   .     A
C1299  C1301   1.414   .     S
C1299  O1337   1.280   .     A
C1299  O1335   1.272   .     A
C1301  C1188   1.349   1_655 S
C1301  O1206   1.391   1_655 S
C1302  S1339   1.788   .     S
C1303  S1340   1.786   .     S
C1303  C1458   1.378   .     S
C1304  S1341   1.789   .     S
C1304  C1470   1.385   .     S
H1306  O1331   0.991   .     S
H1311  O1206   0.989   1_655 S
H1312  O1321   0.991   .     S
H1313  O1324   0.990   .     S
H1314  O1327   0.991   .     S
N1315  Zn1343  2.003   .     S
N1316  Zn1344  2.003   .     S
O1317  Zn1343  2.017   .     S
O1319  S1339   1.503   .     D
O1320  S1339   1.503   .     D
O1321  S1339   1.682   .     S
O1322  S1340   1.503   .     D
O1323  S1340   1.503   .     D
O1324  S1340   1.683   .     S
O1325  S1341   1.503   .     D
O1326  S1341   1.501   .     D
O1327  S1341   1.684   .     S
O1328  Zn1344  2.017   .     S
O1329  S1342   1.503   .     D
O1330  S1342   1.503   .     D
O1331  S1342   1.680   .     S
O1332  Zn1344  2.009   .     S
O1333  Zn1343  2.009   .     S
O1334  Zn1343  1.984   .     S
O1335  Zn1344  1.984   .     S
O1336  Zn1344  1.994   .     S
O1337  Zn1343  1.994   .     S
O1338  H1198   0.991   1_655 S
O1338  C1188   1.391   1_655 S
C1345  C1348   1.430   .     S
C1345  O1373   1.280   .     A
C1345  O1388   1.285   .     A
C1346  C1348   1.412   .     A
C1346  S1398   1.784   .     S
C1347  C1353   1.442   .     S
C1347  C1359   1.415   .     A
C1347  C1360   1.424   .     A
C1348  C1358   1.410   .     A
C1349  N1372   1.366   .     A
C1349  H1361   1.081   .     S
C1350  H1363   1.080   .     S
C1350  N1371   1.366   .     A
C1350  C344    1.412   1_556 S
C1351  N1371   1.365   .     A
C1351  H1364   1.081   .     S
C1351  C341    1.412   1_556 S
C1352  H1365   1.081   .     S
C1352  N1372   1.365   .     A
C1353  O1389   1.289   .     A
C1353  O1384   1.282   .     A
C1354  O1390   1.272   .     A
C1354  C1356   1.414   .     S
C1354  O1392   1.281   .     A
C1355  C1357   1.414   .     S
C1355  O1393   1.280   .     A
C1355  O1391   1.272   .     A
C1356  C1469   1.349   1_455 S
C1356  O1506   1.391   1_455 S
C1357  C1412   1.349   .     S
C1357  O1430   1.391   .     S
C1358  S1395   1.788   .     S
C1359  S1396   1.786   .     S
C1359  C1010   1.378   1_565 S
C1360  S1397   1.789   .     S
C1360  C1022   1.385   1_565 S
H1362  O1387   0.991   .     S
H1366  O1506   0.991   1_455 S
H1367  O1430   0.989   .     S
H1368  O1377   0.991   .     S
H1369  O1380   0.990   .     S
H1370  O1383   0.991   .     S
N1371  Zn1399  2.003   .     S
N1372  Zn1400  2.003   .     S
O1373  Zn1399  2.017   .     S
O1374  H1479   0.989   1_455 S
O1374  C1469   1.391   1_455 S
O1375  S1395   1.503   .     D
O1376  S1395   1.503   .     D
O1377  S1395   1.682   .     S
O1378  S1396   1.503   .     D
O1379  S1396   1.503   .     D
O1380  S1396   1.683   .     S
O1381  S1397   1.503   .     D
O1382  S1397   1.501   .     D
O1383  S1397   1.684   .     S
O1384  Zn1400  2.017   .     S
O1385  S1398   1.503   .     D
O1386  S1398   1.503   .     D
O1387  S1398   1.680   .     S
O1388  Zn1400  2.009   .     S
O1389  Zn1399  2.009   .     S
O1390  Zn1399  1.984   .     S
O1391  Zn1400  1.984   .     S
O1392  Zn1400  1.994   .     S
O1393  Zn1399  1.994   .     S
O1394  H1422   0.991   .     S
O1394  C1412   1.391   .     S
C1401  C1404   1.430   .     S
C1401  O1429   1.280   .     A
C1401  O1444   1.285   .     A
C1402  C1404   1.412   .     A
C1402  S1454   1.784   .     S
C1403  C1409   1.442   .     S
C1403  C1415   1.415   .     A
C1403  C1416   1.424   .     A
C1404  C1414   1.410   .     A
C1405  N1428   1.366   .     A
C1405  H1417   1.081   .     S
C1406  H1419   1.080   .     S
C1406  N1427   1.366   .     A
C1406  C400    1.412   1_556 S
C1407  N1427   1.365   .     A
C1407  H1420   1.081   .     S
C1407  C397    1.412   1_556 S
C1408  H1421   1.081   .     S
C1408  N1428   1.365   .     A
C1409  O1445   1.289   .     A
C1409  O1440   1.282   .     A
C1410  O1446   1.272   .     A
C1410  C1412   1.414   .     S
C1410  O1448   1.281   .     A
C1411  C1413   1.414   .     S
C1411  O1449   1.280   .     A
C1411  O1447   1.272   .     A
C1413  C1468   1.349   .     S
C1413  O1486   1.391   .     S
C1414  S1451   1.788   .     S
C1415  S1452   1.786   .     S
C1415  C1066   1.378   1_565 S
C1416  S1453   1.789   .     S
C1416  C1078   1.385   1_565 S
H1418  O1443   0.991   .     S
H1423  O1486   0.989   .     S
H1424  O1433   0.991   .     S
H1425  O1436   0.990   .     S
H1426  O1439   0.991   .     S
N1427  Zn1455  2.003   .     S
N1428  Zn1456  2.003   .     S
O1429  Zn1455  2.017   .     S
O1431  S1451   1.503   .     D
O1432  S1451   1.503   .     D
O1433  S1451   1.682   .     S
O1434  S1452   1.503   .     D
O1435  S1452   1.503   .     D
O1436  S1452   1.683   .     S
O1437  S1453   1.503   .     D
O1438  S1453   1.501   .     D
O1439  S1453   1.684   .     S
O1440  Zn1456  2.017   .     S
O1441  S1454   1.503   .     D
O1442  S1454   1.503   .     D
O1443  S1454   1.680   .     S
O1444  Zn1456  2.009   .     S
O1445  Zn1455  2.009   .     S
O1446  Zn1455  1.984   .     S
O1447  Zn1456  1.984   .     S
O1448  Zn1456  1.994   .     S
O1449  Zn1455  1.994   .     S
O1450  H1478   0.991   .     S
O1450  C1468   1.391   .     S
C1457  C1460   1.430   .     S
C1457  O1485   1.280   .     A
C1457  O1500   1.285   .     A
C1458  C1460   1.412   .     A
C1458  S1510   1.784   .     S
C1459  C1465   1.442   .     S
C1459  C1471   1.415   .     A
C1459  C1472   1.424   .     A
C1460  C1470   1.410   .     A
C1461  N1484   1.366   .     A
C1461  H1473   1.081   .     S
C1462  H1475   1.080   .     S
C1462  N1483   1.366   .     A
C1462  C456    1.412   1_556 S
C1463  N1483   1.365   .     A
C1463  H1476   1.081   .     S
C1463  C453    1.412   1_556 S
C1464  H1477   1.081   .     S
C1464  N1484   1.365   .     A
C1465  O1501   1.289   .     A
C1465  O1496   1.282   .     A
C1466  O1502   1.272   .     A
C1466  C1468   1.414   .     S
C1466  O1504   1.281   .     A
C1467  C1469   1.414   .     S
C1467  O1505   1.280   .     A
C1467  O1503   1.272   .     A
C1469  C1356   1.349   1_655 S
C1469  O1374   1.391   1_655 S
C1470  S1507   1.788   .     S
C1471  S1508   1.786   .     S
C1471  C1122   1.378   1_565 S
C1472  S1509   1.789   .     S
C1472  C1134   1.385   1_565 S
H1474  O1499   0.991   .     S
H1479  O1374   0.989   1_655 S
H1480  O1489   0.991   .     S
H1481  O1492   0.990   .     S
H1482  O1495   0.991   .     S
N1483  Zn1511  2.003   .     S
N1484  Zn1512  2.003   .     S
O1485  Zn1511  2.017   .     S
O1487  S1507   1.503   .     D
O1488  S1507   1.503   .     D
O1489  S1507   1.682   .     S
O1490  S1508   1.503   .     D
O1491  S1508   1.503   .     D
O1492  S1508   1.683   .     S
O1493  S1509   1.503   .     D
O1494  S1509   1.501   .     D
O1495  S1509   1.684   .     S
O1496  Zn1512  2.017   .     S
O1497  S1510   1.503   .     D
O1498  S1510   1.503   .     D
O1499  S1510   1.680   .     S
O1500  Zn1512  2.009   .     S
O1501  Zn1511  2.009   .     S
O1502  Zn1511  1.984   .     S
O1503  Zn1512  1.984   .     S
O1504  Zn1512  1.994   .     S
O1505  Zn1511  1.994   .     S
O1506  H1366   0.991   1_655 S
O1506  C1356   1.391   1_655 S
