data_str_m3_o2_o10_pcu_sym.75
_audit_creation_date              2020-01-03
_audit_creation_method            'Materials Studio'
_symmetry_space_group_name_H-M    'P1'
_symmetry_Int_Tables_number       1
_symmetry_cell_setting            triclinic
loop_
_symmetry_equiv_pos_as_xyz
  x,y,z
_cell_length_a                    25.7657
_cell_length_b                    29.8632
_cell_length_c                    28.3416
_cell_angle_alpha                 89.4045
_cell_angle_beta                  98.6284
_cell_angle_gamma                 90.1532
loop_
_atom_site_label
_atom_site_type_symbol
_atom_site_fract_x
_atom_site_fract_y
_atom_site_fract_z
_atom_site_U_iso_or_equiv
_atom_site_adp_type
_atom_site_occupancy
C1     C     0.16586   0.16374   0.25019   0.00000  Uiso   1.00
C2     C     0.12151   0.23848   0.44149   0.00000  Uiso   1.00
C3     C     0.16680   0.25002   0.02676   0.00000  Uiso   1.00
C4     C     0.16677   0.25007   0.47341   0.00000  Uiso   1.00
C5     C     0.06700   0.24999   0.23754   0.00000  Uiso   1.00
C6     C     0.26633   0.25002   0.26246   0.00000  Uiso   1.00
C7     C     0.01199   0.25003   0.23079   0.00000  Uiso   1.00
C8     C     0.32134   0.25002   0.26919   0.00000  Uiso   1.00
C9     C     0.15035   0.04330   0.28332   0.00000  Uiso   1.00
C10    C     0.14824   0.45626   0.21215   0.00000  Uiso   1.00
C11    C     0.14272   0.08930   0.28231   0.00000  Uiso   1.00
C12    C     0.16586   0.33621   0.24958   0.00000  Uiso   1.00
C13    C     0.14062   0.41025   0.21183   0.00000  Uiso   1.00
C14    C     0.16881   0.11554   0.25123   0.00000  Uiso   1.00
C15    C     0.16876   0.38433   0.24914   0.00000  Uiso   1.00
C16    C     0.20035   0.09540   0.22118   0.00000  Uiso   1.00
C17    C     0.20242   0.40464   0.28629   0.00000  Uiso   1.00
C18    C     0.20630   0.04948   0.22175   0.00000  Uiso   1.00
C19    C     0.20845   0.45058   0.28670   0.00000  Uiso   1.00
C20    C     0.18145   0.02381   0.25294   0.00000  Uiso   1.00
C21    C     0.18149   0.47601   0.24957   0.00000  Uiso   1.00
C22    C     0.13564   0.21964   0.04872   0.00000  Uiso   1.00
C23    C     0.21198   0.26170   0.45347   0.00000  Uiso   1.00
C24    C     0.13608   0.22026   0.09839   0.00000  Uiso   1.00
C25    C     0.21104   0.26157   0.40371   0.00000  Uiso   1.00
C26    C     0.19743   0.27965   0.10619   0.00000  Uiso   1.00
C27    C     0.12232   0.23860   0.39199   0.00000  Uiso   1.00
C28    C     0.19796   0.28034   0.05663   0.00000  Uiso   1.00
H29    H     0.32470   0.25008   0.19436   0.00000  Uiso   1.00
H30    H     0.24823   0.27026   0.47608   0.00000  Uiso   1.00
H31    H     0.11201   0.19675   0.11477   0.00000  Uiso   1.00
H32    H     0.24608   0.27066   0.38911   0.00000  Uiso   1.00
H33    H     0.22147   0.30313   0.12868   0.00000  Uiso   1.00
H34    H     0.08725   0.22935   0.36820   0.00000  Uiso   1.00
H35    H     0.22208   0.30497   0.04190   0.00000  Uiso   1.00
H36    H     0.08529   0.22990   0.45444   0.00000  Uiso   1.00
H37    H     0.10677   0.13945   0.38891   0.00000  Uiso   1.00
H38    H     0.14726   0.38536   0.11537   0.00000  Uiso   1.00
H39    H     0.00860   0.25001   0.30561   0.00000  Uiso   1.00
H40    H     0.13041   0.02217   0.30626   0.00000  Uiso   1.00
H41    H     0.12659   0.47718   0.18454   0.00000  Uiso   1.00
H42    H     0.22057   0.11527   0.19736   0.00000  Uiso   1.00
H43    H     0.22416   0.38489   0.31490   0.00000  Uiso   1.00
H44    H     0.22960   0.03389   0.19766   0.00000  Uiso   1.00
H45    H     0.23338   0.46637   0.31608   0.00000  Uiso   1.00
H46    H     0.11156   0.19502   0.02789   0.00000  Uiso   1.00
N47    N     0.16667   0.24999   0.12624   0.00000  Uiso   1.00
N48    N     0.16667   0.25001   0.37377   0.00000  Uiso   1.00
O49    O     0.16667   0.18453   0.28974   0.00000  Uiso   1.00
O50    O     0.06320   0.07535   0.33251   0.00000  Uiso   1.00
O51    O     0.13289   0.13385   0.36735   0.00000  Uiso   1.00
O52    O     0.06037   0.35321   0.18816   0.00000  Uiso   1.00
O53    O     0.05769   0.42334   0.14262   0.00000  Uiso   1.00
O54    O     0.12348   0.36223   0.12547   0.00000  Uiso   1.00
O55    O     0.16666   0.31546   0.21026   0.00000  Uiso   1.00
O56    O     0.16667   0.18453   0.21026   0.00000  Uiso   1.00
O57    O     0.16666   0.31547   0.28974   0.00000  Uiso   1.00
O58    O     0.09058   0.25000   0.28045   0.00000  Uiso   1.00
O59    O     0.24275   0.25000   0.21956   0.00000  Uiso   1.00
O60    O     0.09058   0.24999   0.20097   0.00000  Uiso   1.00
O61    O     0.24275   0.25000   0.29904   0.00000  Uiso   1.00
O62    O     0.06497   0.14745   0.29088   0.00000  Uiso   1.00
S63    S     0.09830   0.11171   0.31805   0.00000  Uiso   1.00
S64    S     0.09314   0.38728   0.16662   0.00000  Uiso   1.00
Zn65   Zn    0.16667   0.25000   0.30307   0.00000  Uiso   1.00
Zn66   Zn    0.16667   0.24999   0.19693   0.00000  Uiso   1.00
C67    C     0.49919   0.16374   0.25019   0.00000  Uiso   1.00
C68    C     0.45484   0.23848   0.44149   0.00000  Uiso   1.00
C69    C     0.50014   0.25002   0.02676   0.00000  Uiso   1.00
C70    C     0.50011   0.25007   0.47341   0.00000  Uiso   1.00
C71    C     0.40033   0.24999   0.23754   0.00000  Uiso   1.00
C72    C     0.59966   0.25002   0.26246   0.00000  Uiso   1.00
C73    C     0.34532   0.25003   0.23079   0.00000  Uiso   1.00
C74    C     0.65467   0.25002   0.26919   0.00000  Uiso   1.00
C75    C     0.48368   0.04330   0.28332   0.00000  Uiso   1.00
C76    C     0.48157   0.45626   0.21215   0.00000  Uiso   1.00
C77    C     0.47605   0.08930   0.28231   0.00000  Uiso   1.00
C78    C     0.49919   0.33621   0.24958   0.00000  Uiso   1.00
C79    C     0.47396   0.41025   0.21183   0.00000  Uiso   1.00
C80    C     0.50214   0.11554   0.25123   0.00000  Uiso   1.00
C81    C     0.50210   0.38433   0.24914   0.00000  Uiso   1.00
C82    C     0.53368   0.09540   0.22118   0.00000  Uiso   1.00
C83    C     0.53575   0.40464   0.28629   0.00000  Uiso   1.00
C84    C     0.53963   0.04948   0.22175   0.00000  Uiso   1.00
C85    C     0.54178   0.45058   0.28670   0.00000  Uiso   1.00
C86    C     0.51478   0.02381   0.25294   0.00000  Uiso   1.00
C87    C     0.51483   0.47601   0.24957   0.00000  Uiso   1.00
C88    C     0.46897   0.21964   0.04872   0.00000  Uiso   1.00
C89    C     0.54531   0.26170   0.45347   0.00000  Uiso   1.00
C90    C     0.46941   0.22026   0.09839   0.00000  Uiso   1.00
C91    C     0.54437   0.26157   0.40371   0.00000  Uiso   1.00
C92    C     0.53076   0.27965   0.10619   0.00000  Uiso   1.00
C93    C     0.45566   0.23860   0.39199   0.00000  Uiso   1.00
C94    C     0.53129   0.28034   0.05663   0.00000  Uiso   1.00
H95    H     0.65803   0.25008   0.19436   0.00000  Uiso   1.00
H96    H     0.58156   0.27026   0.47608   0.00000  Uiso   1.00
H97    H     0.44535   0.19675   0.11477   0.00000  Uiso   1.00
H98    H     0.57942   0.27066   0.38911   0.00000  Uiso   1.00
H99    H     0.55481   0.30313   0.12868   0.00000  Uiso   1.00
H100   H     0.42058   0.22935   0.36820   0.00000  Uiso   1.00
H101   H     0.55541   0.30497   0.04190   0.00000  Uiso   1.00
H102   H     0.41863   0.22990   0.45444   0.00000  Uiso   1.00
H103   H     0.44010   0.13945   0.38891   0.00000  Uiso   1.00
H104   H     0.48059   0.38536   0.11537   0.00000  Uiso   1.00
H105   H     0.34193   0.25001   0.30561   0.00000  Uiso   1.00
H106   H     0.46374   0.02217   0.30626   0.00000  Uiso   1.00
H107   H     0.45992   0.47718   0.18454   0.00000  Uiso   1.00
H108   H     0.55391   0.11527   0.19736   0.00000  Uiso   1.00
H109   H     0.55750   0.38489   0.31490   0.00000  Uiso   1.00
H110   H     0.56293   0.03389   0.19766   0.00000  Uiso   1.00
H111   H     0.56671   0.46637   0.31608   0.00000  Uiso   1.00
H112   H     0.44490   0.19502   0.02789   0.00000  Uiso   1.00
N113   N     0.50000   0.24999   0.12624   0.00000  Uiso   1.00
N114   N     0.50000   0.25001   0.37377   0.00000  Uiso   1.00
O115   O     0.50000   0.18453   0.28974   0.00000  Uiso   1.00
O116   O     0.39654   0.07535   0.33251   0.00000  Uiso   1.00
O117   O     0.46622   0.13385   0.36735   0.00000  Uiso   1.00
O118   O     0.39371   0.35321   0.18816   0.00000  Uiso   1.00
O119   O     0.39102   0.42334   0.14262   0.00000  Uiso   1.00
O120   O     0.45681   0.36223   0.12547   0.00000  Uiso   1.00
O121   O     0.50000   0.31546   0.21026   0.00000  Uiso   1.00
O122   O     0.50000   0.18453   0.21026   0.00000  Uiso   1.00
O123   O     0.50000   0.31547   0.28974   0.00000  Uiso   1.00
O124   O     0.42392   0.25000   0.28045   0.00000  Uiso   1.00
O125   O     0.57608   0.25000   0.21956   0.00000  Uiso   1.00
O126   O     0.42392   0.24999   0.20097   0.00000  Uiso   1.00
O127   O     0.57608   0.25000   0.29904   0.00000  Uiso   1.00
O128   O     0.39830   0.14745   0.29088   0.00000  Uiso   1.00
S129   S     0.43163   0.11171   0.31805   0.00000  Uiso   1.00
S130   S     0.42648   0.38728   0.16662   0.00000  Uiso   1.00
Zn131  Zn    0.50000   0.25000   0.30307   0.00000  Uiso   1.00
Zn132  Zn    0.50000   0.24999   0.19693   0.00000  Uiso   1.00
C133   C     0.83252   0.16374   0.25019   0.00000  Uiso   1.00
C134   C     0.78817   0.23848   0.44149   0.00000  Uiso   1.00
C135   C     0.83347   0.25002   0.02676   0.00000  Uiso   1.00
C136   C     0.83344   0.25007   0.47341   0.00000  Uiso   1.00
C137   C     0.73367   0.24999   0.23754   0.00000  Uiso   1.00
C138   C     0.93300   0.25002   0.26246   0.00000  Uiso   1.00
C139   C     0.67865   0.25003   0.23079   0.00000  Uiso   1.00
C140   C     0.98800   0.25002   0.26919   0.00000  Uiso   1.00
C141   C     0.81701   0.04330   0.28332   0.00000  Uiso   1.00
C142   C     0.81491   0.45626   0.21215   0.00000  Uiso   1.00
C143   C     0.80938   0.08930   0.28231   0.00000  Uiso   1.00
C144   C     0.83253   0.33621   0.24958   0.00000  Uiso   1.00
C145   C     0.80729   0.41025   0.21183   0.00000  Uiso   1.00
C146   C     0.83548   0.11554   0.25123   0.00000  Uiso   1.00
C147   C     0.83543   0.38433   0.24914   0.00000  Uiso   1.00
C148   C     0.86702   0.09540   0.22118   0.00000  Uiso   1.00
C149   C     0.86908   0.40464   0.28629   0.00000  Uiso   1.00
C150   C     0.87297   0.04948   0.22175   0.00000  Uiso   1.00
C151   C     0.87512   0.45058   0.28670   0.00000  Uiso   1.00
C152   C     0.84811   0.02381   0.25294   0.00000  Uiso   1.00
C153   C     0.84816   0.47601   0.24957   0.00000  Uiso   1.00
C154   C     0.80231   0.21964   0.04872   0.00000  Uiso   1.00
C155   C     0.87865   0.26170   0.45347   0.00000  Uiso   1.00
C156   C     0.80275   0.22026   0.09839   0.00000  Uiso   1.00
C157   C     0.87770   0.26157   0.40371   0.00000  Uiso   1.00
C158   C     0.86409   0.27965   0.10619   0.00000  Uiso   1.00
C159   C     0.78899   0.23860   0.39199   0.00000  Uiso   1.00
C160   C     0.86462   0.28034   0.05663   0.00000  Uiso   1.00
H161   H     0.99137   0.25008   0.19436   0.00000  Uiso   1.00
H162   H     0.91490   0.27026   0.47608   0.00000  Uiso   1.00
H163   H     0.77868   0.19675   0.11477   0.00000  Uiso   1.00
H164   H     0.91275   0.27066   0.38911   0.00000  Uiso   1.00
H165   H     0.88814   0.30313   0.12868   0.00000  Uiso   1.00
H166   H     0.75392   0.22935   0.36820   0.00000  Uiso   1.00
H167   H     0.88874   0.30497   0.04190   0.00000  Uiso   1.00
H168   H     0.75196   0.22990   0.45444   0.00000  Uiso   1.00
H169   H     0.77343   0.13945   0.38891   0.00000  Uiso   1.00
H170   H     0.81392   0.38536   0.11537   0.00000  Uiso   1.00
H171   H     0.67527   0.25001   0.30561   0.00000  Uiso   1.00
H172   H     0.79708   0.02217   0.30626   0.00000  Uiso   1.00
H173   H     0.79326   0.47718   0.18454   0.00000  Uiso   1.00
H174   H     0.88724   0.11527   0.19736   0.00000  Uiso   1.00
H175   H     0.89083   0.38489   0.31490   0.00000  Uiso   1.00
H176   H     0.89626   0.03389   0.19766   0.00000  Uiso   1.00
H177   H     0.90004   0.46637   0.31608   0.00000  Uiso   1.00
H178   H     0.77823   0.19502   0.02789   0.00000  Uiso   1.00
N179   N     0.83333   0.24999   0.12624   0.00000  Uiso   1.00
N180   N     0.83333   0.25001   0.37377   0.00000  Uiso   1.00
O181   O     0.83334   0.18453   0.28974   0.00000  Uiso   1.00
O182   O     0.72987   0.07535   0.33251   0.00000  Uiso   1.00
O183   O     0.79956   0.13385   0.36735   0.00000  Uiso   1.00
O184   O     0.72704   0.35321   0.18816   0.00000  Uiso   1.00
O185   O     0.72435   0.42334   0.14262   0.00000  Uiso   1.00
O186   O     0.79014   0.36223   0.12547   0.00000  Uiso   1.00
O187   O     0.83333   0.31546   0.21026   0.00000  Uiso   1.00
O188   O     0.83334   0.18453   0.21026   0.00000  Uiso   1.00
O189   O     0.83333   0.31547   0.28974   0.00000  Uiso   1.00
O190   O     0.75725   0.25000   0.28045   0.00000  Uiso   1.00
O191   O     0.90942   0.25000   0.21956   0.00000  Uiso   1.00
O192   O     0.75725   0.24999   0.20097   0.00000  Uiso   1.00
O193   O     0.90942   0.25000   0.29904   0.00000  Uiso   1.00
O194   O     0.73164   0.14745   0.29088   0.00000  Uiso   1.00
S195   S     0.76497   0.11171   0.31805   0.00000  Uiso   1.00
S196   S     0.75981   0.38728   0.16662   0.00000  Uiso   1.00
Zn197  Zn    0.83333   0.25000   0.30307   0.00000  Uiso   1.00
Zn198  Zn    0.83333   0.24999   0.19693   0.00000  Uiso   1.00
C199   C     0.16586   0.66374   0.25019   0.00000  Uiso   1.00
C200   C     0.12151   0.73848   0.44149   0.00000  Uiso   1.00
C201   C     0.16680   0.75002   0.02676   0.00000  Uiso   1.00
C202   C     0.16677   0.75007   0.47341   0.00000  Uiso   1.00
C203   C     0.06700   0.74999   0.23754   0.00000  Uiso   1.00
C204   C     0.26633   0.75002   0.26246   0.00000  Uiso   1.00
C205   C     0.01199   0.75003   0.23079   0.00000  Uiso   1.00
C206   C     0.32134   0.75002   0.26919   0.00000  Uiso   1.00
C207   C     0.15035   0.54330   0.28332   0.00000  Uiso   1.00
C208   C     0.14824   0.95626   0.21215   0.00000  Uiso   1.00
C209   C     0.14272   0.58930   0.28231   0.00000  Uiso   1.00
C210   C     0.16586   0.83621   0.24958   0.00000  Uiso   1.00
C211   C     0.14062   0.91025   0.21183   0.00000  Uiso   1.00
C212   C     0.16881   0.61554   0.25123   0.00000  Uiso   1.00
C213   C     0.16876   0.88433   0.24914   0.00000  Uiso   1.00
C214   C     0.20035   0.59540   0.22118   0.00000  Uiso   1.00
C215   C     0.20242   0.90464   0.28629   0.00000  Uiso   1.00
C216   C     0.20630   0.54948   0.22175   0.00000  Uiso   1.00
C217   C     0.20845   0.95058   0.28670   0.00000  Uiso   1.00
C218   C     0.18145   0.52381   0.25294   0.00000  Uiso   1.00
C219   C     0.18149   0.97601   0.24957   0.00000  Uiso   1.00
C220   C     0.13564   0.71964   0.04872   0.00000  Uiso   1.00
C221   C     0.21198   0.76170   0.45347   0.00000  Uiso   1.00
C222   C     0.13608   0.72026   0.09839   0.00000  Uiso   1.00
C223   C     0.21104   0.76157   0.40371   0.00000  Uiso   1.00
C224   C     0.19743   0.77965   0.10619   0.00000  Uiso   1.00
C225   C     0.12232   0.73860   0.39199   0.00000  Uiso   1.00
C226   C     0.19796   0.78034   0.05663   0.00000  Uiso   1.00
H227   H     0.32470   0.75008   0.19436   0.00000  Uiso   1.00
H228   H     0.24823   0.77026   0.47608   0.00000  Uiso   1.00
H229   H     0.11201   0.69675   0.11477   0.00000  Uiso   1.00
H230   H     0.24608   0.77066   0.38911   0.00000  Uiso   1.00
H231   H     0.22147   0.80313   0.12868   0.00000  Uiso   1.00
H232   H     0.08725   0.72935   0.36820   0.00000  Uiso   1.00
H233   H     0.22208   0.80497   0.04190   0.00000  Uiso   1.00
H234   H     0.08529   0.72990   0.45444   0.00000  Uiso   1.00
H235   H     0.10677   0.63945   0.38891   0.00000  Uiso   1.00
H236   H     0.14726   0.88536   0.11537   0.00000  Uiso   1.00
H237   H     0.00860   0.75001   0.30561   0.00000  Uiso   1.00
H238   H     0.13041   0.52217   0.30626   0.00000  Uiso   1.00
H239   H     0.12659   0.97718   0.18454   0.00000  Uiso   1.00
H240   H     0.22057   0.61527   0.19736   0.00000  Uiso   1.00
H241   H     0.22416   0.88489   0.31490   0.00000  Uiso   1.00
H242   H     0.22960   0.53389   0.19766   0.00000  Uiso   1.00
H243   H     0.23338   0.96637   0.31608   0.00000  Uiso   1.00
H244   H     0.11156   0.69502   0.02789   0.00000  Uiso   1.00
N245   N     0.16667   0.74999   0.12624   0.00000  Uiso   1.00
N246   N     0.16667   0.75001   0.37377   0.00000  Uiso   1.00
O247   O     0.16667   0.68453   0.28974   0.00000  Uiso   1.00
O248   O     0.06320   0.57535   0.33251   0.00000  Uiso   1.00
O249   O     0.13289   0.63385   0.36735   0.00000  Uiso   1.00
O250   O     0.06037   0.85321   0.18816   0.00000  Uiso   1.00
O251   O     0.05769   0.92334   0.14262   0.00000  Uiso   1.00
O252   O     0.12348   0.86223   0.12547   0.00000  Uiso   1.00
O253   O     0.16666   0.81546   0.21026   0.00000  Uiso   1.00
O254   O     0.16667   0.68453   0.21026   0.00000  Uiso   1.00
O255   O     0.16666   0.81547   0.28974   0.00000  Uiso   1.00
O256   O     0.09058   0.75000   0.28045   0.00000  Uiso   1.00
O257   O     0.24275   0.75000   0.21956   0.00000  Uiso   1.00
O258   O     0.09058   0.74999   0.20097   0.00000  Uiso   1.00
O259   O     0.24275   0.75000   0.29904   0.00000  Uiso   1.00
O260   O     0.06497   0.64745   0.29088   0.00000  Uiso   1.00
S261   S     0.09830   0.61171   0.31805   0.00000  Uiso   1.00
S262   S     0.09314   0.88728   0.16662   0.00000  Uiso   1.00
Zn263  Zn    0.16667   0.75000   0.30307   0.00000  Uiso   1.00
Zn264  Zn    0.16667   0.74999   0.19693   0.00000  Uiso   1.00
C265   C     0.49919   0.66374   0.25019   0.00000  Uiso   1.00
C266   C     0.45484   0.73848   0.44149   0.00000  Uiso   1.00
C267   C     0.50014   0.75002   0.02676   0.00000  Uiso   1.00
C268   C     0.50011   0.75007   0.47341   0.00000  Uiso   1.00
C269   C     0.40033   0.74999   0.23754   0.00000  Uiso   1.00
C270   C     0.59966   0.75002   0.26246   0.00000  Uiso   1.00
C271   C     0.34532   0.75003   0.23079   0.00000  Uiso   1.00
C272   C     0.65467   0.75002   0.26919   0.00000  Uiso   1.00
C273   C     0.48368   0.54330   0.28332   0.00000  Uiso   1.00
C274   C     0.48157   0.95626   0.21215   0.00000  Uiso   1.00
C275   C     0.47605   0.58930   0.28231   0.00000  Uiso   1.00
C276   C     0.49919   0.83621   0.24958   0.00000  Uiso   1.00
C277   C     0.47396   0.91025   0.21183   0.00000  Uiso   1.00
C278   C     0.50214   0.61554   0.25123   0.00000  Uiso   1.00
C279   C     0.50210   0.88433   0.24914   0.00000  Uiso   1.00
C280   C     0.53368   0.59540   0.22118   0.00000  Uiso   1.00
C281   C     0.53575   0.90464   0.28629   0.00000  Uiso   1.00
C282   C     0.53963   0.54948   0.22175   0.00000  Uiso   1.00
C283   C     0.54178   0.95058   0.28670   0.00000  Uiso   1.00
C284   C     0.51478   0.52381   0.25294   0.00000  Uiso   1.00
C285   C     0.51483   0.97601   0.24957   0.00000  Uiso   1.00
C286   C     0.46897   0.71964   0.04872   0.00000  Uiso   1.00
C287   C     0.54531   0.76170   0.45347   0.00000  Uiso   1.00
C288   C     0.46941   0.72026   0.09839   0.00000  Uiso   1.00
C289   C     0.54437   0.76157   0.40371   0.00000  Uiso   1.00
C290   C     0.53076   0.77965   0.10619   0.00000  Uiso   1.00
C291   C     0.45566   0.73860   0.39199   0.00000  Uiso   1.00
C292   C     0.53129   0.78034   0.05663   0.00000  Uiso   1.00
H293   H     0.65803   0.75008   0.19436   0.00000  Uiso   1.00
H294   H     0.58156   0.77026   0.47608   0.00000  Uiso   1.00
H295   H     0.44535   0.69675   0.11477   0.00000  Uiso   1.00
H296   H     0.57942   0.77066   0.38911   0.00000  Uiso   1.00
H297   H     0.55481   0.80313   0.12868   0.00000  Uiso   1.00
H298   H     0.42058   0.72935   0.36820   0.00000  Uiso   1.00
H299   H     0.55541   0.80497   0.04190   0.00000  Uiso   1.00
H300   H     0.41863   0.72990   0.45444   0.00000  Uiso   1.00
H301   H     0.44010   0.63945   0.38891   0.00000  Uiso   1.00
H302   H     0.48059   0.88536   0.11537   0.00000  Uiso   1.00
H303   H     0.34193   0.75001   0.30561   0.00000  Uiso   1.00
H304   H     0.46374   0.52217   0.30626   0.00000  Uiso   1.00
H305   H     0.45992   0.97718   0.18454   0.00000  Uiso   1.00
H306   H     0.55391   0.61527   0.19736   0.00000  Uiso   1.00
H307   H     0.55750   0.88489   0.31490   0.00000  Uiso   1.00
H308   H     0.56293   0.53389   0.19766   0.00000  Uiso   1.00
H309   H     0.56671   0.96637   0.31608   0.00000  Uiso   1.00
H310   H     0.44490   0.69502   0.02789   0.00000  Uiso   1.00
N311   N     0.50000   0.74999   0.12624   0.00000  Uiso   1.00
N312   N     0.50000   0.75001   0.37377   0.00000  Uiso   1.00
O313   O     0.50000   0.68453   0.28974   0.00000  Uiso   1.00
O314   O     0.39654   0.57535   0.33251   0.00000  Uiso   1.00
O315   O     0.46622   0.63385   0.36735   0.00000  Uiso   1.00
O316   O     0.39371   0.85321   0.18816   0.00000  Uiso   1.00
O317   O     0.39102   0.92334   0.14262   0.00000  Uiso   1.00
O318   O     0.45681   0.86223   0.12547   0.00000  Uiso   1.00
O319   O     0.50000   0.81546   0.21026   0.00000  Uiso   1.00
O320   O     0.50000   0.68453   0.21026   0.00000  Uiso   1.00
O321   O     0.50000   0.81547   0.28974   0.00000  Uiso   1.00
O322   O     0.42392   0.75000   0.28045   0.00000  Uiso   1.00
O323   O     0.57608   0.75000   0.21956   0.00000  Uiso   1.00
O324   O     0.42392   0.74999   0.20097   0.00000  Uiso   1.00
O325   O     0.57608   0.75000   0.29904   0.00000  Uiso   1.00
O326   O     0.39830   0.64745   0.29088   0.00000  Uiso   1.00
S327   S     0.43163   0.61171   0.31805   0.00000  Uiso   1.00
S328   S     0.42648   0.88728   0.16662   0.00000  Uiso   1.00
Zn329  Zn    0.50000   0.75000   0.30307   0.00000  Uiso   1.00
Zn330  Zn    0.50000   0.74999   0.19693   0.00000  Uiso   1.00
C331   C     0.83252   0.66374   0.25019   0.00000  Uiso   1.00
C332   C     0.78817   0.73848   0.44149   0.00000  Uiso   1.00
C333   C     0.83347   0.75002   0.02676   0.00000  Uiso   1.00
C334   C     0.83344   0.75007   0.47341   0.00000  Uiso   1.00
C335   C     0.73367   0.74999   0.23754   0.00000  Uiso   1.00
C336   C     0.93300   0.75002   0.26246   0.00000  Uiso   1.00
C337   C     0.67865   0.75003   0.23079   0.00000  Uiso   1.00
C338   C     0.98800   0.75002   0.26919   0.00000  Uiso   1.00
C339   C     0.81701   0.54330   0.28332   0.00000  Uiso   1.00
C340   C     0.81491   0.95626   0.21215   0.00000  Uiso   1.00
C341   C     0.80938   0.58930   0.28231   0.00000  Uiso   1.00
C342   C     0.83253   0.83621   0.24958   0.00000  Uiso   1.00
C343   C     0.80729   0.91025   0.21183   0.00000  Uiso   1.00
C344   C     0.83548   0.61554   0.25123   0.00000  Uiso   1.00
C345   C     0.83543   0.88433   0.24914   0.00000  Uiso   1.00
C346   C     0.86702   0.59540   0.22118   0.00000  Uiso   1.00
C347   C     0.86908   0.90464   0.28629   0.00000  Uiso   1.00
C348   C     0.87297   0.54948   0.22175   0.00000  Uiso   1.00
C349   C     0.87512   0.95058   0.28670   0.00000  Uiso   1.00
C350   C     0.84811   0.52381   0.25294   0.00000  Uiso   1.00
C351   C     0.84816   0.97601   0.24957   0.00000  Uiso   1.00
C352   C     0.80231   0.71964   0.04872   0.00000  Uiso   1.00
C353   C     0.87865   0.76170   0.45347   0.00000  Uiso   1.00
C354   C     0.80275   0.72026   0.09839   0.00000  Uiso   1.00
C355   C     0.87770   0.76157   0.40371   0.00000  Uiso   1.00
C356   C     0.86409   0.77965   0.10619   0.00000  Uiso   1.00
C357   C     0.78899   0.73860   0.39199   0.00000  Uiso   1.00
C358   C     0.86462   0.78034   0.05663   0.00000  Uiso   1.00
H359   H     0.99137   0.75008   0.19436   0.00000  Uiso   1.00
H360   H     0.91490   0.77026   0.47608   0.00000  Uiso   1.00
H361   H     0.77868   0.69675   0.11477   0.00000  Uiso   1.00
H362   H     0.91275   0.77066   0.38911   0.00000  Uiso   1.00
H363   H     0.88814   0.80313   0.12868   0.00000  Uiso   1.00
H364   H     0.75392   0.72935   0.36820   0.00000  Uiso   1.00
H365   H     0.88874   0.80497   0.04190   0.00000  Uiso   1.00
H366   H     0.75196   0.72990   0.45444   0.00000  Uiso   1.00
H367   H     0.77343   0.63945   0.38891   0.00000  Uiso   1.00
H368   H     0.81392   0.88536   0.11537   0.00000  Uiso   1.00
H369   H     0.67527   0.75001   0.30561   0.00000  Uiso   1.00
H370   H     0.79708   0.52217   0.30626   0.00000  Uiso   1.00
H371   H     0.79326   0.97718   0.18454   0.00000  Uiso   1.00
H372   H     0.88724   0.61527   0.19736   0.00000  Uiso   1.00
H373   H     0.89083   0.88489   0.31490   0.00000  Uiso   1.00
H374   H     0.89626   0.53389   0.19766   0.00000  Uiso   1.00
H375   H     0.90004   0.96637   0.31608   0.00000  Uiso   1.00
H376   H     0.77823   0.69502   0.02789   0.00000  Uiso   1.00
N377   N     0.83333   0.74999   0.12624   0.00000  Uiso   1.00
N378   N     0.83333   0.75001   0.37377   0.00000  Uiso   1.00
O379   O     0.83334   0.68453   0.28974   0.00000  Uiso   1.00
O380   O     0.72987   0.57535   0.33251   0.00000  Uiso   1.00
O381   O     0.79956   0.63385   0.36735   0.00000  Uiso   1.00
O382   O     0.72704   0.85321   0.18816   0.00000  Uiso   1.00
O383   O     0.72435   0.92334   0.14262   0.00000  Uiso   1.00
O384   O     0.79014   0.86223   0.12547   0.00000  Uiso   1.00
O385   O     0.83333   0.81546   0.21026   0.00000  Uiso   1.00
O386   O     0.83334   0.68453   0.21026   0.00000  Uiso   1.00
O387   O     0.83333   0.81547   0.28974   0.00000  Uiso   1.00
O388   O     0.75725   0.75000   0.28045   0.00000  Uiso   1.00
O389   O     0.90942   0.75000   0.21956   0.00000  Uiso   1.00
O390   O     0.75725   0.74999   0.20097   0.00000  Uiso   1.00
O391   O     0.90942   0.75000   0.29904   0.00000  Uiso   1.00
O392   O     0.73164   0.64745   0.29088   0.00000  Uiso   1.00
S393   S     0.76497   0.61171   0.31805   0.00000  Uiso   1.00
S394   S     0.75981   0.88728   0.16662   0.00000  Uiso   1.00
Zn395  Zn    0.83333   0.75000   0.30307   0.00000  Uiso   1.00
Zn396  Zn    0.83333   0.74999   0.19693   0.00000  Uiso   1.00
C397   C     0.16586   0.16374   0.75019   0.00000  Uiso   1.00
C398   C     0.12151   0.23848   0.94149   0.00000  Uiso   1.00
C399   C     0.16680   0.25002   0.52676   0.00000  Uiso   1.00
C400   C     0.16677   0.25007   0.97341   0.00000  Uiso   1.00
C401   C     0.06700   0.24999   0.73754   0.00000  Uiso   1.00
C402   C     0.26633   0.25002   0.76246   0.00000  Uiso   1.00
C403   C     0.01199   0.25003   0.73079   0.00000  Uiso   1.00
C404   C     0.32134   0.25002   0.76919   0.00000  Uiso   1.00
C405   C     0.15035   0.04330   0.78332   0.00000  Uiso   1.00
C406   C     0.14824   0.45626   0.71215   0.00000  Uiso   1.00
C407   C     0.14272   0.08930   0.78231   0.00000  Uiso   1.00
C408   C     0.16586   0.33621   0.74958   0.00000  Uiso   1.00
C409   C     0.14062   0.41025   0.71183   0.00000  Uiso   1.00
C410   C     0.16881   0.11554   0.75123   0.00000  Uiso   1.00
C411   C     0.16876   0.38433   0.74914   0.00000  Uiso   1.00
C412   C     0.20035   0.09540   0.72118   0.00000  Uiso   1.00
C413   C     0.20242   0.40464   0.78629   0.00000  Uiso   1.00
C414   C     0.20630   0.04948   0.72175   0.00000  Uiso   1.00
C415   C     0.20845   0.45058   0.78670   0.00000  Uiso   1.00
C416   C     0.18145   0.02381   0.75294   0.00000  Uiso   1.00
C417   C     0.18149   0.47601   0.74957   0.00000  Uiso   1.00
C418   C     0.13564   0.21964   0.54872   0.00000  Uiso   1.00
C419   C     0.21198   0.26170   0.95347   0.00000  Uiso   1.00
C420   C     0.13608   0.22026   0.59839   0.00000  Uiso   1.00
C421   C     0.21104   0.26157   0.90371   0.00000  Uiso   1.00
C422   C     0.19743   0.27965   0.60619   0.00000  Uiso   1.00
C423   C     0.12232   0.23860   0.89199   0.00000  Uiso   1.00
C424   C     0.19796   0.28034   0.55663   0.00000  Uiso   1.00
H425   H     0.32470   0.25008   0.69436   0.00000  Uiso   1.00
H426   H     0.24823   0.27026   0.97608   0.00000  Uiso   1.00
H427   H     0.11201   0.19675   0.61477   0.00000  Uiso   1.00
H428   H     0.24608   0.27066   0.88911   0.00000  Uiso   1.00
H429   H     0.22147   0.30313   0.62868   0.00000  Uiso   1.00
H430   H     0.08725   0.22935   0.86820   0.00000  Uiso   1.00
H431   H     0.22208   0.30497   0.54190   0.00000  Uiso   1.00
H432   H     0.08529   0.22990   0.95444   0.00000  Uiso   1.00
H433   H     0.10677   0.13945   0.88891   0.00000  Uiso   1.00
H434   H     0.14726   0.38536   0.61537   0.00000  Uiso   1.00
H435   H     0.00860   0.25001   0.80561   0.00000  Uiso   1.00
H436   H     0.13041   0.02217   0.80626   0.00000  Uiso   1.00
H437   H     0.12659   0.47718   0.68454   0.00000  Uiso   1.00
H438   H     0.22057   0.11527   0.69736   0.00000  Uiso   1.00
H439   H     0.22416   0.38489   0.81490   0.00000  Uiso   1.00
H440   H     0.22960   0.03389   0.69766   0.00000  Uiso   1.00
H441   H     0.23338   0.46637   0.81608   0.00000  Uiso   1.00
H442   H     0.11156   0.19502   0.52789   0.00000  Uiso   1.00
N443   N     0.16667   0.24999   0.62624   0.00000  Uiso   1.00
N444   N     0.16667   0.25001   0.87377   0.00000  Uiso   1.00
O445   O     0.16667   0.18453   0.78974   0.00000  Uiso   1.00
O446   O     0.06320   0.07535   0.83251   0.00000  Uiso   1.00
O447   O     0.13289   0.13385   0.86735   0.00000  Uiso   1.00
O448   O     0.06037   0.35321   0.68816   0.00000  Uiso   1.00
O449   O     0.05769   0.42334   0.64262   0.00000  Uiso   1.00
O450   O     0.12348   0.36223   0.62547   0.00000  Uiso   1.00
O451   O     0.16666   0.31546   0.71026   0.00000  Uiso   1.00
O452   O     0.16667   0.18453   0.71026   0.00000  Uiso   1.00
O453   O     0.16666   0.31547   0.78974   0.00000  Uiso   1.00
O454   O     0.09058   0.25000   0.78045   0.00000  Uiso   1.00
O455   O     0.24275   0.25000   0.71956   0.00000  Uiso   1.00
O456   O     0.09058   0.24999   0.70097   0.00000  Uiso   1.00
O457   O     0.24275   0.25000   0.79904   0.00000  Uiso   1.00
O458   O     0.06497   0.14745   0.79088   0.00000  Uiso   1.00
S459   S     0.09830   0.11171   0.81805   0.00000  Uiso   1.00
S460   S     0.09314   0.38728   0.66662   0.00000  Uiso   1.00
Zn461  Zn    0.16667   0.25000   0.80307   0.00000  Uiso   1.00
Zn462  Zn    0.16667   0.24999   0.69693   0.00000  Uiso   1.00
C463   C     0.49919   0.16374   0.75019   0.00000  Uiso   1.00
C464   C     0.45484   0.23848   0.94149   0.00000  Uiso   1.00
C465   C     0.50014   0.25002   0.52676   0.00000  Uiso   1.00
C466   C     0.50011   0.25007   0.97341   0.00000  Uiso   1.00
C467   C     0.40033   0.24999   0.73754   0.00000  Uiso   1.00
C468   C     0.59966   0.25002   0.76246   0.00000  Uiso   1.00
C469   C     0.34532   0.25003   0.73079   0.00000  Uiso   1.00
C470   C     0.65467   0.25002   0.76919   0.00000  Uiso   1.00
C471   C     0.48368   0.04330   0.78332   0.00000  Uiso   1.00
C472   C     0.48157   0.45626   0.71215   0.00000  Uiso   1.00
C473   C     0.47605   0.08930   0.78231   0.00000  Uiso   1.00
C474   C     0.49919   0.33621   0.74958   0.00000  Uiso   1.00
C475   C     0.47396   0.41025   0.71183   0.00000  Uiso   1.00
C476   C     0.50214   0.11554   0.75123   0.00000  Uiso   1.00
C477   C     0.50210   0.38433   0.74914   0.00000  Uiso   1.00
C478   C     0.53368   0.09540   0.72118   0.00000  Uiso   1.00
C479   C     0.53575   0.40464   0.78629   0.00000  Uiso   1.00
C480   C     0.53963   0.04948   0.72175   0.00000  Uiso   1.00
C481   C     0.54178   0.45058   0.78670   0.00000  Uiso   1.00
C482   C     0.51478   0.02381   0.75294   0.00000  Uiso   1.00
C483   C     0.51483   0.47601   0.74957   0.00000  Uiso   1.00
C484   C     0.46897   0.21964   0.54872   0.00000  Uiso   1.00
C485   C     0.54531   0.26170   0.95347   0.00000  Uiso   1.00
C486   C     0.46941   0.22026   0.59839   0.00000  Uiso   1.00
C487   C     0.54437   0.26157   0.90371   0.00000  Uiso   1.00
C488   C     0.53076   0.27965   0.60619   0.00000  Uiso   1.00
C489   C     0.45566   0.23860   0.89199   0.00000  Uiso   1.00
C490   C     0.53129   0.28034   0.55663   0.00000  Uiso   1.00
H491   H     0.65803   0.25008   0.69436   0.00000  Uiso   1.00
H492   H     0.58156   0.27026   0.97608   0.00000  Uiso   1.00
H493   H     0.44535   0.19675   0.61477   0.00000  Uiso   1.00
H494   H     0.57942   0.27066   0.88911   0.00000  Uiso   1.00
H495   H     0.55481   0.30313   0.62868   0.00000  Uiso   1.00
H496   H     0.42058   0.22935   0.86820   0.00000  Uiso   1.00
H497   H     0.55541   0.30497   0.54190   0.00000  Uiso   1.00
H498   H     0.41863   0.22990   0.95444   0.00000  Uiso   1.00
H499   H     0.44010   0.13945   0.88891   0.00000  Uiso   1.00
H500   H     0.48059   0.38536   0.61537   0.00000  Uiso   1.00
H501   H     0.34193   0.25001   0.80561   0.00000  Uiso   1.00
H502   H     0.46374   0.02217   0.80626   0.00000  Uiso   1.00
H503   H     0.45992   0.47718   0.68454   0.00000  Uiso   1.00
H504   H     0.55391   0.11527   0.69736   0.00000  Uiso   1.00
H505   H     0.55750   0.38489   0.81490   0.00000  Uiso   1.00
H506   H     0.56293   0.03389   0.69766   0.00000  Uiso   1.00
H507   H     0.56671   0.46637   0.81608   0.00000  Uiso   1.00
H508   H     0.44490   0.19502   0.52789   0.00000  Uiso   1.00
N509   N     0.50000   0.24999   0.62624   0.00000  Uiso   1.00
N510   N     0.50000   0.25001   0.87377   0.00000  Uiso   1.00
O511   O     0.50000   0.18453   0.78974   0.00000  Uiso   1.00
O512   O     0.39654   0.07535   0.83251   0.00000  Uiso   1.00
O513   O     0.46622   0.13385   0.86735   0.00000  Uiso   1.00
O514   O     0.39371   0.35321   0.68816   0.00000  Uiso   1.00
O515   O     0.39102   0.42334   0.64262   0.00000  Uiso   1.00
O516   O     0.45681   0.36223   0.62547   0.00000  Uiso   1.00
O517   O     0.50000   0.31546   0.71026   0.00000  Uiso   1.00
O518   O     0.50000   0.18453   0.71026   0.00000  Uiso   1.00
O519   O     0.50000   0.31547   0.78974   0.00000  Uiso   1.00
O520   O     0.42392   0.25000   0.78045   0.00000  Uiso   1.00
O521   O     0.57608   0.25000   0.71956   0.00000  Uiso   1.00
O522   O     0.42392   0.24999   0.70097   0.00000  Uiso   1.00
O523   O     0.57608   0.25000   0.79904   0.00000  Uiso   1.00
O524   O     0.39830   0.14745   0.79088   0.00000  Uiso   1.00
S525   S     0.43163   0.11171   0.81805   0.00000  Uiso   1.00
S526   S     0.42648   0.38728   0.66662   0.00000  Uiso   1.00
Zn527  Zn    0.50000   0.25000   0.80307   0.00000  Uiso   1.00
Zn528  Zn    0.50000   0.24999   0.69693   0.00000  Uiso   1.00
C529   C     0.83252   0.16374   0.75019   0.00000  Uiso   1.00
C530   C     0.78817   0.23848   0.94149   0.00000  Uiso   1.00
C531   C     0.83347   0.25002   0.52676   0.00000  Uiso   1.00
C532   C     0.83344   0.25007   0.97341   0.00000  Uiso   1.00
C533   C     0.73367   0.24999   0.73754   0.00000  Uiso   1.00
C534   C     0.93300   0.25002   0.76246   0.00000  Uiso   1.00
C535   C     0.67865   0.25003   0.73079   0.00000  Uiso   1.00
C536   C     0.98800   0.25002   0.76919   0.00000  Uiso   1.00
C537   C     0.81701   0.04330   0.78332   0.00000  Uiso   1.00
C538   C     0.81491   0.45626   0.71215   0.00000  Uiso   1.00
C539   C     0.80938   0.08930   0.78231   0.00000  Uiso   1.00
C540   C     0.83253   0.33621   0.74958   0.00000  Uiso   1.00
C541   C     0.80729   0.41025   0.71183   0.00000  Uiso   1.00
C542   C     0.83548   0.11554   0.75123   0.00000  Uiso   1.00
C543   C     0.83543   0.38433   0.74914   0.00000  Uiso   1.00
C544   C     0.86702   0.09540   0.72118   0.00000  Uiso   1.00
C545   C     0.86908   0.40464   0.78629   0.00000  Uiso   1.00
C546   C     0.87297   0.04948   0.72175   0.00000  Uiso   1.00
C547   C     0.87512   0.45058   0.78670   0.00000  Uiso   1.00
C548   C     0.84811   0.02381   0.75294   0.00000  Uiso   1.00
C549   C     0.84816   0.47601   0.74957   0.00000  Uiso   1.00
C550   C     0.80231   0.21964   0.54872   0.00000  Uiso   1.00
C551   C     0.87865   0.26170   0.95347   0.00000  Uiso   1.00
C552   C     0.80275   0.22026   0.59839   0.00000  Uiso   1.00
C553   C     0.87770   0.26157   0.90371   0.00000  Uiso   1.00
C554   C     0.86409   0.27965   0.60619   0.00000  Uiso   1.00
C555   C     0.78899   0.23860   0.89199   0.00000  Uiso   1.00
C556   C     0.86462   0.28034   0.55663   0.00000  Uiso   1.00
H557   H     0.99137   0.25008   0.69436   0.00000  Uiso   1.00
H558   H     0.91490   0.27026   0.97608   0.00000  Uiso   1.00
H559   H     0.77868   0.19675   0.61477   0.00000  Uiso   1.00
H560   H     0.91275   0.27066   0.88911   0.00000  Uiso   1.00
H561   H     0.88814   0.30313   0.62868   0.00000  Uiso   1.00
H562   H     0.75392   0.22935   0.86820   0.00000  Uiso   1.00
H563   H     0.88874   0.30497   0.54190   0.00000  Uiso   1.00
H564   H     0.75196   0.22990   0.95444   0.00000  Uiso   1.00
H565   H     0.77343   0.13945   0.88891   0.00000  Uiso   1.00
H566   H     0.81392   0.38536   0.61537   0.00000  Uiso   1.00
H567   H     0.67527   0.25001   0.80561   0.00000  Uiso   1.00
H568   H     0.79708   0.02217   0.80626   0.00000  Uiso   1.00
H569   H     0.79326   0.47718   0.68454   0.00000  Uiso   1.00
H570   H     0.88724   0.11527   0.69736   0.00000  Uiso   1.00
H571   H     0.89083   0.38489   0.81490   0.00000  Uiso   1.00
H572   H     0.89626   0.03389   0.69766   0.00000  Uiso   1.00
H573   H     0.90004   0.46637   0.81608   0.00000  Uiso   1.00
H574   H     0.77823   0.19502   0.52789   0.00000  Uiso   1.00
N575   N     0.83333   0.24999   0.62624   0.00000  Uiso   1.00
N576   N     0.83333   0.25001   0.87377   0.00000  Uiso   1.00
O577   O     0.83334   0.18453   0.78974   0.00000  Uiso   1.00
O578   O     0.72987   0.07535   0.83251   0.00000  Uiso   1.00
O579   O     0.79956   0.13385   0.86735   0.00000  Uiso   1.00
O580   O     0.72704   0.35321   0.68816   0.00000  Uiso   1.00
O581   O     0.72435   0.42334   0.64262   0.00000  Uiso   1.00
O582   O     0.79014   0.36223   0.62547   0.00000  Uiso   1.00
O583   O     0.83333   0.31546   0.71026   0.00000  Uiso   1.00
O584   O     0.83334   0.18453   0.71026   0.00000  Uiso   1.00
O585   O     0.83333   0.31547   0.78974   0.00000  Uiso   1.00
O586   O     0.75725   0.25000   0.78045   0.00000  Uiso   1.00
O587   O     0.90942   0.25000   0.71956   0.00000  Uiso   1.00
O588   O     0.75725   0.24999   0.70097   0.00000  Uiso   1.00
O589   O     0.90942   0.25000   0.79904   0.00000  Uiso   1.00
O590   O     0.73164   0.14745   0.79088   0.00000  Uiso   1.00
S591   S     0.76497   0.11171   0.81805   0.00000  Uiso   1.00
S592   S     0.75981   0.38728   0.66662   0.00000  Uiso   1.00
Zn593  Zn    0.83333   0.25000   0.80307   0.00000  Uiso   1.00
Zn594  Zn    0.83333   0.24999   0.69693   0.00000  Uiso   1.00
C595   C     0.16586   0.66374   0.75019   0.00000  Uiso   1.00
C596   C     0.12151   0.73848   0.94149   0.00000  Uiso   1.00
C597   C     0.16680   0.75002   0.52676   0.00000  Uiso   1.00
C598   C     0.16677   0.75007   0.97341   0.00000  Uiso   1.00
C599   C     0.06700   0.74999   0.73754   0.00000  Uiso   1.00
C600   C     0.26633   0.75002   0.76246   0.00000  Uiso   1.00
C601   C     0.01199   0.75003   0.73079   0.00000  Uiso   1.00
C602   C     0.32134   0.75002   0.76919   0.00000  Uiso   1.00
C603   C     0.15035   0.54330   0.78332   0.00000  Uiso   1.00
C604   C     0.14824   0.95626   0.71215   0.00000  Uiso   1.00
C605   C     0.14272   0.58930   0.78231   0.00000  Uiso   1.00
C606   C     0.16586   0.83621   0.74958   0.00000  Uiso   1.00
C607   C     0.14062   0.91025   0.71183   0.00000  Uiso   1.00
C608   C     0.16881   0.61554   0.75123   0.00000  Uiso   1.00
C609   C     0.16876   0.88433   0.74914   0.00000  Uiso   1.00
C610   C     0.20035   0.59540   0.72118   0.00000  Uiso   1.00
C611   C     0.20242   0.90464   0.78629   0.00000  Uiso   1.00
C612   C     0.20630   0.54948   0.72175   0.00000  Uiso   1.00
C613   C     0.20845   0.95058   0.78670   0.00000  Uiso   1.00
C614   C     0.18145   0.52381   0.75294   0.00000  Uiso   1.00
C615   C     0.18149   0.97601   0.74957   0.00000  Uiso   1.00
C616   C     0.13564   0.71964   0.54872   0.00000  Uiso   1.00
C617   C     0.21198   0.76170   0.95347   0.00000  Uiso   1.00
C618   C     0.13608   0.72026   0.59839   0.00000  Uiso   1.00
C619   C     0.21104   0.76157   0.90371   0.00000  Uiso   1.00
C620   C     0.19743   0.77965   0.60619   0.00000  Uiso   1.00
C621   C     0.12232   0.73860   0.89199   0.00000  Uiso   1.00
C622   C     0.19796   0.78034   0.55663   0.00000  Uiso   1.00
H623   H     0.32470   0.75008   0.69436   0.00000  Uiso   1.00
H624   H     0.24823   0.77026   0.97608   0.00000  Uiso   1.00
H625   H     0.11201   0.69675   0.61477   0.00000  Uiso   1.00
H626   H     0.24608   0.77066   0.88911   0.00000  Uiso   1.00
H627   H     0.22147   0.80313   0.62868   0.00000  Uiso   1.00
H628   H     0.08725   0.72935   0.86820   0.00000  Uiso   1.00
H629   H     0.22208   0.80497   0.54190   0.00000  Uiso   1.00
H630   H     0.08529   0.72990   0.95444   0.00000  Uiso   1.00
H631   H     0.10677   0.63945   0.88891   0.00000  Uiso   1.00
H632   H     0.14726   0.88536   0.61537   0.00000  Uiso   1.00
H633   H     0.00860   0.75001   0.80561   0.00000  Uiso   1.00
H634   H     0.13041   0.52217   0.80626   0.00000  Uiso   1.00
H635   H     0.12659   0.97718   0.68454   0.00000  Uiso   1.00
H636   H     0.22057   0.61527   0.69736   0.00000  Uiso   1.00
H637   H     0.22416   0.88489   0.81490   0.00000  Uiso   1.00
H638   H     0.22960   0.53389   0.69766   0.00000  Uiso   1.00
H639   H     0.23338   0.96637   0.81608   0.00000  Uiso   1.00
H640   H     0.11156   0.69502   0.52789   0.00000  Uiso   1.00
N641   N     0.16667   0.74999   0.62624   0.00000  Uiso   1.00
N642   N     0.16667   0.75001   0.87377   0.00000  Uiso   1.00
O643   O     0.16667   0.68453   0.78974   0.00000  Uiso   1.00
O644   O     0.06320   0.57535   0.83251   0.00000  Uiso   1.00
O645   O     0.13289   0.63385   0.86735   0.00000  Uiso   1.00
O646   O     0.06037   0.85321   0.68816   0.00000  Uiso   1.00
O647   O     0.05769   0.92334   0.64262   0.00000  Uiso   1.00
O648   O     0.12348   0.86223   0.62547   0.00000  Uiso   1.00
O649   O     0.16666   0.81546   0.71026   0.00000  Uiso   1.00
O650   O     0.16667   0.68453   0.71026   0.00000  Uiso   1.00
O651   O     0.16666   0.81547   0.78974   0.00000  Uiso   1.00
O652   O     0.09058   0.75000   0.78045   0.00000  Uiso   1.00
O653   O     0.24275   0.75000   0.71956   0.00000  Uiso   1.00
O654   O     0.09058   0.74999   0.70097   0.00000  Uiso   1.00
O655   O     0.24275   0.75000   0.79904   0.00000  Uiso   1.00
O656   O     0.06497   0.64745   0.79088   0.00000  Uiso   1.00
S657   S     0.09830   0.61171   0.81805   0.00000  Uiso   1.00
S658   S     0.09314   0.88728   0.66662   0.00000  Uiso   1.00
Zn659  Zn    0.16667   0.75000   0.80307   0.00000  Uiso   1.00
Zn660  Zn    0.16667   0.74999   0.69693   0.00000  Uiso   1.00
C661   C     0.49919   0.66374   0.75019   0.00000  Uiso   1.00
C662   C     0.45484   0.73848   0.94149   0.00000  Uiso   1.00
C663   C     0.50014   0.75002   0.52676   0.00000  Uiso   1.00
C664   C     0.50011   0.75007   0.97341   0.00000  Uiso   1.00
C665   C     0.40033   0.74999   0.73754   0.00000  Uiso   1.00
C666   C     0.59966   0.75002   0.76246   0.00000  Uiso   1.00
C667   C     0.34532   0.75003   0.73079   0.00000  Uiso   1.00
C668   C     0.65467   0.75002   0.76919   0.00000  Uiso   1.00
C669   C     0.48368   0.54330   0.78332   0.00000  Uiso   1.00
C670   C     0.48157   0.95626   0.71215   0.00000  Uiso   1.00
C671   C     0.47605   0.58930   0.78231   0.00000  Uiso   1.00
C672   C     0.49919   0.83621   0.74958   0.00000  Uiso   1.00
C673   C     0.47396   0.91025   0.71183   0.00000  Uiso   1.00
C674   C     0.50214   0.61554   0.75123   0.00000  Uiso   1.00
C675   C     0.50210   0.88433   0.74914   0.00000  Uiso   1.00
C676   C     0.53368   0.59540   0.72118   0.00000  Uiso   1.00
C677   C     0.53575   0.90464   0.78629   0.00000  Uiso   1.00
C678   C     0.53963   0.54948   0.72175   0.00000  Uiso   1.00
C679   C     0.54178   0.95058   0.78670   0.00000  Uiso   1.00
C680   C     0.51478   0.52381   0.75294   0.00000  Uiso   1.00
C681   C     0.51483   0.97601   0.74957   0.00000  Uiso   1.00
C682   C     0.46897   0.71964   0.54872   0.00000  Uiso   1.00
C683   C     0.54531   0.76170   0.95347   0.00000  Uiso   1.00
C684   C     0.46941   0.72026   0.59839   0.00000  Uiso   1.00
C685   C     0.54437   0.76157   0.90371   0.00000  Uiso   1.00
C686   C     0.53076   0.77965   0.60619   0.00000  Uiso   1.00
C687   C     0.45566   0.73860   0.89199   0.00000  Uiso   1.00
C688   C     0.53129   0.78034   0.55663   0.00000  Uiso   1.00
H689   H     0.65803   0.75008   0.69436   0.00000  Uiso   1.00
H690   H     0.58156   0.77026   0.97608   0.00000  Uiso   1.00
H691   H     0.44535   0.69675   0.61477   0.00000  Uiso   1.00
H692   H     0.57942   0.77066   0.88911   0.00000  Uiso   1.00
H693   H     0.55481   0.80313   0.62868   0.00000  Uiso   1.00
H694   H     0.42058   0.72935   0.86820   0.00000  Uiso   1.00
H695   H     0.55541   0.80497   0.54190   0.00000  Uiso   1.00
H696   H     0.41863   0.72990   0.95444   0.00000  Uiso   1.00
H697   H     0.44010   0.63945   0.88891   0.00000  Uiso   1.00
H698   H     0.48059   0.88536   0.61537   0.00000  Uiso   1.00
H699   H     0.34193   0.75001   0.80561   0.00000  Uiso   1.00
H700   H     0.46374   0.52217   0.80626   0.00000  Uiso   1.00
H701   H     0.45992   0.97718   0.68454   0.00000  Uiso   1.00
H702   H     0.55391   0.61527   0.69736   0.00000  Uiso   1.00
H703   H     0.55750   0.88489   0.81490   0.00000  Uiso   1.00
H704   H     0.56293   0.53389   0.69766   0.00000  Uiso   1.00
H705   H     0.56671   0.96637   0.81608   0.00000  Uiso   1.00
H706   H     0.44490   0.69502   0.52789   0.00000  Uiso   1.00
N707   N     0.50000   0.74999   0.62624   0.00000  Uiso   1.00
N708   N     0.50000   0.75001   0.87377   0.00000  Uiso   1.00
O709   O     0.50000   0.68453   0.78974   0.00000  Uiso   1.00
O710   O     0.39654   0.57535   0.83251   0.00000  Uiso   1.00
O711   O     0.46622   0.63385   0.86735   0.00000  Uiso   1.00
O712   O     0.39371   0.85321   0.68816   0.00000  Uiso   1.00
O713   O     0.39102   0.92334   0.64262   0.00000  Uiso   1.00
O714   O     0.45681   0.86223   0.62547   0.00000  Uiso   1.00
O715   O     0.50000   0.81546   0.71026   0.00000  Uiso   1.00
O716   O     0.50000   0.68453   0.71026   0.00000  Uiso   1.00
O717   O     0.50000   0.81547   0.78974   0.00000  Uiso   1.00
O718   O     0.42392   0.75000   0.78045   0.00000  Uiso   1.00
O719   O     0.57608   0.75000   0.71956   0.00000  Uiso   1.00
O720   O     0.42392   0.74999   0.70097   0.00000  Uiso   1.00
O721   O     0.57608   0.75000   0.79904   0.00000  Uiso   1.00
O722   O     0.39830   0.64745   0.79088   0.00000  Uiso   1.00
S723   S     0.43163   0.61171   0.81805   0.00000  Uiso   1.00
S724   S     0.42648   0.88728   0.66662   0.00000  Uiso   1.00
Zn725  Zn    0.50000   0.75000   0.80307   0.00000  Uiso   1.00
Zn726  Zn    0.50000   0.74999   0.69693   0.00000  Uiso   1.00
C727   C     0.83252   0.66374   0.75019   0.00000  Uiso   1.00
C728   C     0.78817   0.73848   0.94149   0.00000  Uiso   1.00
C729   C     0.83347   0.75002   0.52676   0.00000  Uiso   1.00
C730   C     0.83344   0.75007   0.97341   0.00000  Uiso   1.00
C731   C     0.73367   0.74999   0.73754   0.00000  Uiso   1.00
C732   C     0.93300   0.75002   0.76246   0.00000  Uiso   1.00
C733   C     0.67865   0.75003   0.73079   0.00000  Uiso   1.00
C734   C     0.98800   0.75002   0.76919   0.00000  Uiso   1.00
C735   C     0.81701   0.54330   0.78332   0.00000  Uiso   1.00
C736   C     0.81491   0.95626   0.71215   0.00000  Uiso   1.00
C737   C     0.80938   0.58930   0.78231   0.00000  Uiso   1.00
C738   C     0.83253   0.83621   0.74958   0.00000  Uiso   1.00
C739   C     0.80729   0.91025   0.71183   0.00000  Uiso   1.00
C740   C     0.83548   0.61554   0.75123   0.00000  Uiso   1.00
C741   C     0.83543   0.88433   0.74914   0.00000  Uiso   1.00
C742   C     0.86702   0.59540   0.72118   0.00000  Uiso   1.00
C743   C     0.86908   0.90464   0.78629   0.00000  Uiso   1.00
C744   C     0.87297   0.54948   0.72175   0.00000  Uiso   1.00
C745   C     0.87512   0.95058   0.78670   0.00000  Uiso   1.00
C746   C     0.84811   0.52381   0.75294   0.00000  Uiso   1.00
C747   C     0.84816   0.97601   0.74957   0.00000  Uiso   1.00
C748   C     0.80231   0.71964   0.54872   0.00000  Uiso   1.00
C749   C     0.87865   0.76170   0.95347   0.00000  Uiso   1.00
C750   C     0.80275   0.72026   0.59839   0.00000  Uiso   1.00
C751   C     0.87770   0.76157   0.90371   0.00000  Uiso   1.00
C752   C     0.86409   0.77965   0.60619   0.00000  Uiso   1.00
C753   C     0.78899   0.73860   0.89199   0.00000  Uiso   1.00
C754   C     0.86462   0.78034   0.55663   0.00000  Uiso   1.00
H755   H     0.99137   0.75008   0.69436   0.00000  Uiso   1.00
H756   H     0.91490   0.77026   0.97608   0.00000  Uiso   1.00
H757   H     0.77868   0.69675   0.61477   0.00000  Uiso   1.00
H758   H     0.91275   0.77066   0.88911   0.00000  Uiso   1.00
H759   H     0.88814   0.80313   0.62868   0.00000  Uiso   1.00
H760   H     0.75392   0.72935   0.86820   0.00000  Uiso   1.00
H761   H     0.88874   0.80497   0.54190   0.00000  Uiso   1.00
H762   H     0.75196   0.72990   0.95444   0.00000  Uiso   1.00
H763   H     0.77343   0.63945   0.88891   0.00000  Uiso   1.00
H764   H     0.81392   0.88536   0.61537   0.00000  Uiso   1.00
H765   H     0.67527   0.75001   0.80561   0.00000  Uiso   1.00
H766   H     0.79708   0.52217   0.80626   0.00000  Uiso   1.00
H767   H     0.79326   0.97718   0.68454   0.00000  Uiso   1.00
H768   H     0.88724   0.61527   0.69736   0.00000  Uiso   1.00
H769   H     0.89083   0.88489   0.81490   0.00000  Uiso   1.00
H770   H     0.89626   0.53389   0.69766   0.00000  Uiso   1.00
H771   H     0.90004   0.96637   0.81608   0.00000  Uiso   1.00
H772   H     0.77823   0.69502   0.52789   0.00000  Uiso   1.00
N773   N     0.83333   0.74999   0.62624   0.00000  Uiso   1.00
N774   N     0.83333   0.75001   0.87377   0.00000  Uiso   1.00
O775   O     0.83334   0.68453   0.78974   0.00000  Uiso   1.00
O776   O     0.72987   0.57535   0.83251   0.00000  Uiso   1.00
O777   O     0.79956   0.63385   0.86735   0.00000  Uiso   1.00
O778   O     0.72704   0.85321   0.68816   0.00000  Uiso   1.00
O779   O     0.72435   0.92334   0.64262   0.00000  Uiso   1.00
O780   O     0.79014   0.86223   0.62547   0.00000  Uiso   1.00
O781   O     0.83333   0.81546   0.71026   0.00000  Uiso   1.00
O782   O     0.83334   0.68453   0.71026   0.00000  Uiso   1.00
O783   O     0.83333   0.81547   0.78974   0.00000  Uiso   1.00
O784   O     0.75725   0.75000   0.78045   0.00000  Uiso   1.00
O785   O     0.90942   0.75000   0.71956   0.00000  Uiso   1.00
O786   O     0.75725   0.74999   0.70097   0.00000  Uiso   1.00
O787   O     0.90942   0.75000   0.79904   0.00000  Uiso   1.00
O788   O     0.73164   0.64745   0.79088   0.00000  Uiso   1.00
S789   S     0.76497   0.61171   0.81805   0.00000  Uiso   1.00
S790   S     0.75981   0.88728   0.66662   0.00000  Uiso   1.00
Zn791  Zn    0.83333   0.75000   0.80307   0.00000  Uiso   1.00
Zn792  Zn    0.83333   0.74999   0.69693   0.00000  Uiso   1.00
loop_
_geom_bond_atom_site_label_1
_geom_bond_atom_site_label_2
_geom_bond_distance
_geom_bond_site_symmetry_2
_ccdc_geom_bond_type
C1     O56     1.288   .     A
C1     C14     1.441   .     S
C1     O49     1.284   .     A
C2     C4      1.409   .     A
C2     C27     1.406   .     A
C2     H36     1.082   .     S
C3     C28     1.410   .     A
C3     C22     1.410   .     A
C3     C400    1.512   1_554 S
C4     C23     1.410   .     A
C4     C399    1.512   .     S
C5     C7      1.402   .     S
C5     O58     1.275   .     A
C5     O60     1.278   .     A
C6     O61     1.278   .     A
C6     C8      1.401   .     S
C6     O59     1.275   .     A
C7     C140    1.330   1_455 S
C7     H161    1.088   1_455 S
C8     C73     1.330   .     S
C8     H105    1.088   .     S
C9     C11     1.388   .     A
C9     C20     1.394   .     A
C9     H40     1.084   .     S
C10    H41     1.084   .     S
C10    C21     1.394   .     A
C10    C13     1.387   .     A
C11    S63     1.775   .     S
C11    C14     1.415   .     A
C12    C15     1.439   .     S
C12    O57     1.288   .     A
C12    O55     1.283   .     A
C13    S64     1.776   .     S
C13    C15     1.414   .     A
C14    C16     1.403   .     A
C15    C17     1.402   .     A
C16    C18     1.380   .     A
C16    H42     1.084   .     S
C17    H43     1.084   .     S
C17    C19     1.380   .     A
C18    H44     1.084   .     S
C18    C20     1.390   .     A
C19    H45     1.084   .     S
C19    C21     1.391   .     A
C20    C219    1.432   1_545 S
C21    C218    1.432   .     S
C22    C24     1.407   .     A
C22    H46     1.082   .     S
C23    C25     1.407   .     A
C23    H30     1.082   .     S
C24    N47     1.362   .     A
C24    H31     1.082   .     S
C25    H32     1.081   .     S
C25    N48     1.364   .     A
C26    C28     1.407   .     A
C26    N47     1.363   .     A
C26    H33     1.082   .     S
C27    N48     1.364   .     A
C27    H34     1.080   .     S
C28    H35     1.082   .     S
H29    C73     1.088   .     S
H37    O51     0.990   .     S
H38    O54     0.990   .     S
H39    C140    1.088   1_455 S
N47    Zn66    2.004   .     S
N48    Zn65    2.004   .     S
O49    Zn65    1.995   .     S
O50    S63     1.504   .     D
O51    S63     1.681   .     S
O52    S64     1.503   .     D
O53    S64     1.503   .     D
O54    S64     1.681   .     S
O55    Zn66    1.995   .     S
O56    Zn66    1.987   .     S
O57    Zn65    1.987   .     S
O58    Zn65    1.969   .     S
O59    Zn66    1.969   .     S
O60    Zn66    1.981   .     S
O61    Zn65    1.981   .     S
O62    S63     1.503   .     D
C67    O122    1.288   .     A
C67    C80     1.441   .     S
C67    O115    1.284   .     A
C68    C70     1.409   .     A
C68    C93     1.406   .     A
C68    H102    1.082   .     S
C69    C94     1.410   .     A
C69    C88     1.410   .     A
C69    C466    1.512   1_554 S
C70    C89     1.410   .     A
C70    C465    1.512   .     S
C71    C73     1.402   .     S
C71    O124    1.275   .     A
C71    O126    1.278   .     A
C72    O127    1.278   .     A
C72    C74     1.401   .     S
C72    O125    1.275   .     A
C74    C139    1.330   .     S
C74    H171    1.088   .     S
C75    C77     1.388   .     A
C75    C86     1.394   .     A
C75    H106    1.084   .     S
C76    H107    1.084   .     S
C76    C87     1.394   .     A
C76    C79     1.387   .     A
C77    S129    1.775   .     S
C77    C80     1.415   .     A
C78    C81     1.439   .     S
C78    O123    1.288   .     A
C78    O121    1.283   .     A
C79    S130    1.776   .     S
C79    C81     1.414   .     A
C80    C82     1.403   .     A
C81    C83     1.402   .     A
C82    C84     1.380   .     A
C82    H108    1.084   .     S
C83    H109    1.084   .     S
C83    C85     1.380   .     A
C84    H110    1.084   .     S
C84    C86     1.390   .     A
C85    H111    1.084   .     S
C85    C87     1.391   .     A
C86    C285    1.432   1_545 S
C87    C284    1.432   .     S
C88    C90     1.407   .     A
C88    H112    1.082   .     S
C89    C91     1.407   .     A
C89    H96     1.082   .     S
C90    N113    1.362   .     A
C90    H97     1.082   .     S
C91    H98     1.081   .     S
C91    N114    1.364   .     A
C92    C94     1.407   .     A
C92    N113    1.363   .     A
C92    H99     1.082   .     S
C93    N114    1.364   .     A
C93    H100    1.080   .     S
C94    H101    1.082   .     S
H95    C139    1.088   .     S
H103   O117    0.990   .     S
H104   O120    0.990   .     S
N113   Zn132   2.004   .     S
N114   Zn131   2.004   .     S
O115   Zn131   1.995   .     S
O116   S129    1.504   .     D
O117   S129    1.681   .     S
O118   S130    1.503   .     D
O119   S130    1.503   .     D
O120   S130    1.681   .     S
O121   Zn132   1.995   .     S
O122   Zn132   1.987   .     S
O123   Zn131   1.987   .     S
O124   Zn131   1.969   .     S
O125   Zn132   1.969   .     S
O126   Zn132   1.981   .     S
O127   Zn131   1.981   .     S
O128   S129    1.503   .     D
C133   O188    1.288   .     A
C133   C146    1.441   .     S
C133   O181    1.284   .     A
C134   C136    1.409   .     A
C134   C159    1.406   .     A
C134   H168    1.082   .     S
C135   C160    1.410   .     A
C135   C154    1.410   .     A
C135   C532    1.512   1_554 S
C136   C155    1.410   .     A
C136   C531    1.512   .     S
C137   C139    1.402   .     S
C137   O190    1.275   .     A
C137   O192    1.278   .     A
C138   O193    1.278   .     A
C138   C140    1.401   .     S
C138   O191    1.275   .     A
C140   C7      1.330   1_655 S
C140   H39     1.088   1_655 S
C141   C143    1.388   .     A
C141   C152    1.394   .     A
C141   H172    1.084   .     S
C142   H173    1.084   .     S
C142   C153    1.394   .     A
C142   C145    1.387   .     A
C143   S195    1.775   .     S
C143   C146    1.415   .     A
C144   C147    1.439   .     S
C144   O189    1.288   .     A
C144   O187    1.283   .     A
C145   S196    1.776   .     S
C145   C147    1.414   .     A
C146   C148    1.403   .     A
C147   C149    1.402   .     A
C148   C150    1.380   .     A
C148   H174    1.084   .     S
C149   H175    1.084   .     S
C149   C151    1.380   .     A
C150   H176    1.084   .     S
C150   C152    1.390   .     A
C151   H177    1.084   .     S
C151   C153    1.391   .     A
C152   C351    1.432   1_545 S
C153   C350    1.432   .     S
C154   C156    1.407   .     A
C154   H178    1.082   .     S
C155   C157    1.407   .     A
C155   H162    1.082   .     S
C156   N179    1.362   .     A
C156   H163    1.082   .     S
C157   H164    1.081   .     S
C157   N180    1.364   .     A
C158   C160    1.407   .     A
C158   N179    1.363   .     A
C158   H165    1.082   .     S
C159   N180    1.364   .     A
C159   H166    1.080   .     S
C160   H167    1.082   .     S
H161   C7      1.088   1_655 S
H169   O183    0.990   .     S
H170   O186    0.990   .     S
N179   Zn198   2.004   .     S
N180   Zn197   2.004   .     S
O181   Zn197   1.995   .     S
O182   S195    1.504   .     D
O183   S195    1.681   .     S
O184   S196    1.503   .     D
O185   S196    1.503   .     D
O186   S196    1.681   .     S
O187   Zn198   1.995   .     S
O188   Zn198   1.987   .     S
O189   Zn197   1.987   .     S
O190   Zn197   1.969   .     S
O191   Zn198   1.969   .     S
O192   Zn198   1.981   .     S
O193   Zn197   1.981   .     S
O194   S195    1.503   .     D
C199   O254    1.288   .     A
C199   C212    1.441   .     S
C199   O247    1.284   .     A
C200   C202    1.409   .     A
C200   C225    1.406   .     A
C200   H234    1.082   .     S
C201   C226    1.410   .     A
C201   C220    1.410   .     A
C201   C598    1.512   1_554 S
C202   C221    1.410   .     A
C202   C597    1.512   .     S
C203   C205    1.402   .     S
C203   O256    1.275   .     A
C203   O258    1.278   .     A
C204   O259    1.278   .     A
C204   C206    1.401   .     S
C204   O257    1.275   .     A
C205   C338    1.330   1_455 S
C205   H359    1.088   1_455 S
C206   C271    1.330   .     S
C206   H303    1.088   .     S
C207   C209    1.388   .     A
C207   C218    1.394   .     A
C207   H238    1.084   .     S
C208   H239    1.084   .     S
C208   C219    1.394   .     A
C208   C211    1.387   .     A
C209   S261    1.775   .     S
C209   C212    1.415   .     A
C210   C213    1.439   .     S
C210   O255    1.288   .     A
C210   O253    1.283   .     A
C211   S262    1.776   .     S
C211   C213    1.414   .     A
C212   C214    1.403   .     A
C213   C215    1.402   .     A
C214   C216    1.380   .     A
C214   H240    1.084   .     S
C215   H241    1.084   .     S
C215   C217    1.380   .     A
C216   H242    1.084   .     S
C216   C218    1.390   .     A
C217   H243    1.084   .     S
C217   C219    1.391   .     A
C219   C20     1.432   1_565 S
C220   C222    1.407   .     A
C220   H244    1.082   .     S
C221   C223    1.407   .     A
C221   H228    1.082   .     S
C222   N245    1.362   .     A
C222   H229    1.082   .     S
C223   H230    1.081   .     S
C223   N246    1.364   .     A
C224   C226    1.407   .     A
C224   N245    1.363   .     A
C224   H231    1.082   .     S
C225   N246    1.364   .     A
C225   H232    1.080   .     S
C226   H233    1.082   .     S
H227   C271    1.088   .     S
H235   O249    0.990   .     S
H236   O252    0.990   .     S
H237   C338    1.088   1_455 S
N245   Zn264   2.004   .     S
N246   Zn263   2.004   .     S
O247   Zn263   1.995   .     S
O248   S261    1.504   .     D
O249   S261    1.681   .     S
O250   S262    1.503   .     D
O251   S262    1.503   .     D
O252   S262    1.681   .     S
O253   Zn264   1.995   .     S
O254   Zn264   1.987   .     S
O255   Zn263   1.987   .     S
O256   Zn263   1.969   .     S
O257   Zn264   1.969   .     S
O258   Zn264   1.981   .     S
O259   Zn263   1.981   .     S
O260   S261    1.503   .     D
C265   O320    1.288   .     A
C265   C278    1.441   .     S
C265   O313    1.284   .     A
C266   C268    1.409   .     A
C266   C291    1.406   .     A
C266   H300    1.082   .     S
C267   C292    1.410   .     A
C267   C286    1.410   .     A
C267   C664    1.512   1_554 S
C268   C287    1.410   .     A
C268   C663    1.512   .     S
C269   C271    1.402   .     S
C269   O322    1.275   .     A
C269   O324    1.278   .     A
C270   O325    1.278   .     A
C270   C272    1.401   .     S
C270   O323    1.275   .     A
C272   C337    1.330   .     S
C272   H369    1.088   .     S
C273   C275    1.388   .     A
C273   C284    1.394   .     A
C273   H304    1.084   .     S
C274   H305    1.084   .     S
C274   C285    1.394   .     A
C274   C277    1.387   .     A
C275   S327    1.775   .     S
C275   C278    1.415   .     A
C276   C279    1.439   .     S
C276   O321    1.288   .     A
C276   O319    1.283   .     A
C277   S328    1.776   .     S
C277   C279    1.414   .     A
C278   C280    1.403   .     A
C279   C281    1.402   .     A
C280   C282    1.380   .     A
C280   H306    1.084   .     S
C281   H307    1.084   .     S
C281   C283    1.380   .     A
C282   H308    1.084   .     S
C282   C284    1.390   .     A
C283   H309    1.084   .     S
C283   C285    1.391   .     A
C285   C86     1.432   1_565 S
C286   C288    1.407   .     A
C286   H310    1.082   .     S
C287   C289    1.407   .     A
C287   H294    1.082   .     S
C288   N311    1.362   .     A
C288   H295    1.082   .     S
C289   H296    1.081   .     S
C289   N312    1.364   .     A
C290   C292    1.407   .     A
C290   N311    1.363   .     A
C290   H297    1.082   .     S
C291   N312    1.364   .     A
C291   H298    1.080   .     S
C292   H299    1.082   .     S
H293   C337    1.088   .     S
H301   O315    0.990   .     S
H302   O318    0.990   .     S
N311   Zn330   2.004   .     S
N312   Zn329   2.004   .     S
O313   Zn329   1.995   .     S
O314   S327    1.504   .     D
O315   S327    1.681   .     S
O316   S328    1.503   .     D
O317   S328    1.503   .     D
O318   S328    1.681   .     S
O319   Zn330   1.995   .     S
O320   Zn330   1.987   .     S
O321   Zn329   1.987   .     S
O322   Zn329   1.969   .     S
O323   Zn330   1.969   .     S
O324   Zn330   1.981   .     S
O325   Zn329   1.981   .     S
O326   S327    1.503   .     D
C331   O386    1.288   .     A
C331   C344    1.441   .     S
C331   O379    1.284   .     A
C332   C334    1.409   .     A
C332   C357    1.406   .     A
C332   H366    1.082   .     S
C333   C358    1.410   .     A
C333   C352    1.410   .     A
C333   C730    1.512   1_554 S
C334   C353    1.410   .     A
C334   C729    1.512   .     S
C335   C337    1.402   .     S
C335   O388    1.275   .     A
C335   O390    1.278   .     A
C336   O391    1.278   .     A
C336   C338    1.401   .     S
C336   O389    1.275   .     A
C338   C205    1.330   1_655 S
C338   H237    1.088   1_655 S
C339   C341    1.388   .     A
C339   C350    1.394   .     A
C339   H370    1.084   .     S
C340   H371    1.084   .     S
C340   C351    1.394   .     A
C340   C343    1.387   .     A
C341   S393    1.775   .     S
C341   C344    1.415   .     A
C342   C345    1.439   .     S
C342   O387    1.288   .     A
C342   O385    1.283   .     A
C343   S394    1.776   .     S
C343   C345    1.414   .     A
C344   C346    1.403   .     A
C345   C347    1.402   .     A
C346   C348    1.380   .     A
C346   H372    1.084   .     S
C347   H373    1.084   .     S
C347   C349    1.380   .     A
C348   H374    1.084   .     S
C348   C350    1.390   .     A
C349   H375    1.084   .     S
C349   C351    1.391   .     A
C351   C152    1.432   1_565 S
C352   C354    1.407   .     A
C352   H376    1.082   .     S
C353   C355    1.407   .     A
C353   H360    1.082   .     S
C354   N377    1.362   .     A
C354   H361    1.082   .     S
C355   H362    1.081   .     S
C355   N378    1.364   .     A
C356   C358    1.407   .     A
C356   N377    1.363   .     A
C356   H363    1.082   .     S
C357   N378    1.364   .     A
C357   H364    1.080   .     S
C358   H365    1.082   .     S
H359   C205    1.088   1_655 S
H367   O381    0.990   .     S
H368   O384    0.990   .     S
N377   Zn396   2.004   .     S
N378   Zn395   2.004   .     S
O379   Zn395   1.995   .     S
O380   S393    1.504   .     D
O381   S393    1.681   .     S
O382   S394    1.503   .     D
O383   S394    1.503   .     D
O384   S394    1.681   .     S
O385   Zn396   1.995   .     S
O386   Zn396   1.987   .     S
O387   Zn395   1.987   .     S
O388   Zn395   1.969   .     S
O389   Zn396   1.969   .     S
O390   Zn396   1.981   .     S
O391   Zn395   1.981   .     S
O392   S393    1.503   .     D
C397   O452    1.288   .     A
C397   C410    1.441   .     S
C397   O445    1.284   .     A
C398   C400    1.409   .     A
C398   C423    1.406   .     A
C398   H432    1.082   .     S
C399   C424    1.410   .     A
C399   C418    1.410   .     A
C400   C419    1.410   .     A
C400   C3      1.512   1_556 S
C401   C403    1.402   .     S
C401   O454    1.275   .     A
C401   O456    1.278   .     A
C402   O457    1.278   .     A
C402   C404    1.401   .     S
C402   O455    1.275   .     A
C403   C536    1.330   1_455 S
C403   H557    1.088   1_455 S
C404   C469    1.330   .     S
C404   H501    1.088   .     S
C405   C407    1.388   .     A
C405   C416    1.394   .     A
C405   H436    1.084   .     S
C406   H437    1.084   .     S
C406   C417    1.394   .     A
C406   C409    1.387   .     A
C407   S459    1.775   .     S
C407   C410    1.415   .     A
C408   C411    1.439   .     S
C408   O453    1.288   .     A
C408   O451    1.283   .     A
C409   S460    1.776   .     S
C409   C411    1.414   .     A
C410   C412    1.403   .     A
C411   C413    1.402   .     A
C412   C414    1.380   .     A
C412   H438    1.084   .     S
C413   H439    1.084   .     S
C413   C415    1.380   .     A
C414   H440    1.084   .     S
C414   C416    1.390   .     A
C415   H441    1.084   .     S
C415   C417    1.391   .     A
C416   C615    1.432   1_545 S
C417   C614    1.432   .     S
C418   C420    1.407   .     A
C418   H442    1.082   .     S
C419   C421    1.407   .     A
C419   H426    1.082   .     S
C420   N443    1.362   .     A
C420   H427    1.082   .     S
C421   H428    1.081   .     S
C421   N444    1.364   .     A
C422   C424    1.407   .     A
C422   N443    1.363   .     A
C422   H429    1.082   .     S
C423   N444    1.364   .     A
C423   H430    1.080   .     S
C424   H431    1.082   .     S
H425   C469    1.088   .     S
H433   O447    0.990   .     S
H434   O450    0.990   .     S
H435   C536    1.088   1_455 S
N443   Zn462   2.004   .     S
N444   Zn461   2.004   .     S
O445   Zn461   1.995   .     S
O446   S459    1.504   .     D
O447   S459    1.681   .     S
O448   S460    1.503   .     D
O449   S460    1.503   .     D
O450   S460    1.681   .     S
O451   Zn462   1.995   .     S
O452   Zn462   1.987   .     S
O453   Zn461   1.987   .     S
O454   Zn461   1.969   .     S
O455   Zn462   1.969   .     S
O456   Zn462   1.981   .     S
O457   Zn461   1.981   .     S
O458   S459    1.503   .     D
C463   O518    1.288   .     A
C463   C476    1.441   .     S
C463   O511    1.284   .     A
C464   C466    1.409   .     A
C464   C489    1.406   .     A
C464   H498    1.082   .     S
C465   C490    1.410   .     A
C465   C484    1.410   .     A
C466   C485    1.410   .     A
C466   C69     1.512   1_556 S
C467   C469    1.402   .     S
C467   O520    1.275   .     A
C467   O522    1.278   .     A
C468   O523    1.278   .     A
C468   C470    1.401   .     S
C468   O521    1.275   .     A
C470   C535    1.330   .     S
C470   H567    1.088   .     S
C471   C473    1.388   .     A
C471   C482    1.394   .     A
C471   H502    1.084   .     S
C472   H503    1.084   .     S
C472   C483    1.394   .     A
C472   C475    1.387   .     A
C473   S525    1.775   .     S
C473   C476    1.415   .     A
C474   C477    1.439   .     S
C474   O519    1.288   .     A
C474   O517    1.283   .     A
C475   S526    1.776   .     S
C475   C477    1.414   .     A
C476   C478    1.403   .     A
C477   C479    1.402   .     A
C478   C480    1.380   .     A
C478   H504    1.084   .     S
C479   H505    1.084   .     S
C479   C481    1.380   .     A
C480   H506    1.084   .     S
C480   C482    1.390   .     A
C481   H507    1.084   .     S
C481   C483    1.391   .     A
C482   C681    1.432   1_545 S
C483   C680    1.432   .     S
C484   C486    1.407   .     A
C484   H508    1.082   .     S
C485   C487    1.407   .     A
C485   H492    1.082   .     S
C486   N509    1.362   .     A
C486   H493    1.082   .     S
C487   H494    1.081   .     S
C487   N510    1.364   .     A
C488   C490    1.407   .     A
C488   N509    1.363   .     A
C488   H495    1.082   .     S
C489   N510    1.364   .     A
C489   H496    1.080   .     S
C490   H497    1.082   .     S
H491   C535    1.088   .     S
H499   O513    0.990   .     S
H500   O516    0.990   .     S
N509   Zn528   2.004   .     S
N510   Zn527   2.004   .     S
O511   Zn527   1.995   .     S
O512   S525    1.504   .     D
O513   S525    1.681   .     S
O514   S526    1.503   .     D
O515   S526    1.503   .     D
O516   S526    1.681   .     S
O517   Zn528   1.995   .     S
O518   Zn528   1.987   .     S
O519   Zn527   1.987   .     S
O520   Zn527   1.969   .     S
O521   Zn528   1.969   .     S
O522   Zn528   1.981   .     S
O523   Zn527   1.981   .     S
O524   S525    1.503   .     D
C529   O584    1.288   .     A
C529   C542    1.441   .     S
C529   O577    1.284   .     A
C530   C532    1.409   .     A
C530   C555    1.406   .     A
C530   H564    1.082   .     S
C531   C556    1.410   .     A
C531   C550    1.410   .     A
C532   C551    1.410   .     A
C532   C135    1.512   1_556 S
C533   C535    1.402   .     S
C533   O586    1.275   .     A
C533   O588    1.278   .     A
C534   O589    1.278   .     A
C534   C536    1.401   .     S
C534   O587    1.275   .     A
C536   C403    1.330   1_655 S
C536   H435    1.088   1_655 S
C537   C539    1.388   .     A
C537   C548    1.394   .     A
C537   H568    1.084   .     S
C538   H569    1.084   .     S
C538   C549    1.394   .     A
C538   C541    1.387   .     A
C539   S591    1.775   .     S
C539   C542    1.415   .     A
C540   C543    1.439   .     S
C540   O585    1.288   .     A
C540   O583    1.283   .     A
C541   S592    1.776   .     S
C541   C543    1.414   .     A
C542   C544    1.403   .     A
C543   C545    1.402   .     A
C544   C546    1.380   .     A
C544   H570    1.084   .     S
C545   H571    1.084   .     S
C545   C547    1.380   .     A
C546   H572    1.084   .     S
C546   C548    1.390   .     A
C547   H573    1.084   .     S
C547   C549    1.391   .     A
C548   C747    1.432   1_545 S
C549   C746    1.432   .     S
C550   C552    1.407   .     A
C550   H574    1.082   .     S
C551   C553    1.407   .     A
C551   H558    1.082   .     S
C552   N575    1.362   .     A
C552   H559    1.082   .     S
C553   H560    1.081   .     S
C553   N576    1.364   .     A
C554   C556    1.407   .     A
C554   N575    1.363   .     A
C554   H561    1.082   .     S
C555   N576    1.364   .     A
C555   H562    1.080   .     S
C556   H563    1.082   .     S
H557   C403    1.088   1_655 S
H565   O579    0.990   .     S
H566   O582    0.990   .     S
N575   Zn594   2.004   .     S
N576   Zn593   2.004   .     S
O577   Zn593   1.995   .     S
O578   S591    1.504   .     D
O579   S591    1.681   .     S
O580   S592    1.503   .     D
O581   S592    1.503   .     D
O582   S592    1.681   .     S
O583   Zn594   1.995   .     S
O584   Zn594   1.987   .     S
O585   Zn593   1.987   .     S
O586   Zn593   1.969   .     S
O587   Zn594   1.969   .     S
O588   Zn594   1.981   .     S
O589   Zn593   1.981   .     S
O590   S591    1.503   .     D
C595   O650    1.288   .     A
C595   C608    1.441   .     S
C595   O643    1.284   .     A
C596   C598    1.409   .     A
C596   C621    1.406   .     A
C596   H630    1.082   .     S
C597   C622    1.410   .     A
C597   C616    1.410   .     A
C598   C617    1.410   .     A
C598   C201    1.512   1_556 S
C599   C601    1.402   .     S
C599   O652    1.275   .     A
C599   O654    1.278   .     A
C600   O655    1.278   .     A
C600   C602    1.401   .     S
C600   O653    1.275   .     A
C601   C734    1.330   1_455 S
C601   H755    1.088   1_455 S
C602   C667    1.330   .     S
C602   H699    1.088   .     S
C603   C605    1.388   .     A
C603   C614    1.394   .     A
C603   H634    1.084   .     S
C604   H635    1.084   .     S
C604   C615    1.394   .     A
C604   C607    1.387   .     A
C605   S657    1.775   .     S
C605   C608    1.415   .     A
C606   C609    1.439   .     S
C606   O651    1.288   .     A
C606   O649    1.283   .     A
C607   S658    1.776   .     S
C607   C609    1.414   .     A
C608   C610    1.403   .     A
C609   C611    1.402   .     A
C610   C612    1.380   .     A
C610   H636    1.084   .     S
C611   H637    1.084   .     S
C611   C613    1.380   .     A
C612   H638    1.084   .     S
C612   C614    1.390   .     A
C613   H639    1.084   .     S
C613   C615    1.391   .     A
C615   C416    1.432   1_565 S
C616   C618    1.407   .     A
C616   H640    1.082   .     S
C617   C619    1.407   .     A
C617   H624    1.082   .     S
C618   N641    1.362   .     A
C618   H625    1.082   .     S
C619   H626    1.081   .     S
C619   N642    1.364   .     A
C620   C622    1.407   .     A
C620   N641    1.363   .     A
C620   H627    1.082   .     S
C621   N642    1.364   .     A
C621   H628    1.080   .     S
C622   H629    1.082   .     S
H623   C667    1.088   .     S
H631   O645    0.990   .     S
H632   O648    0.990   .     S
H633   C734    1.088   1_455 S
N641   Zn660   2.004   .     S
N642   Zn659   2.004   .     S
O643   Zn659   1.995   .     S
O644   S657    1.504   .     D
O645   S657    1.681   .     S
O646   S658    1.503   .     D
O647   S658    1.503   .     D
O648   S658    1.681   .     S
O649   Zn660   1.995   .     S
O650   Zn660   1.987   .     S
O651   Zn659   1.987   .     S
O652   Zn659   1.969   .     S
O653   Zn660   1.969   .     S
O654   Zn660   1.981   .     S
O655   Zn659   1.981   .     S
O656   S657    1.503   .     D
C661   O716    1.288   .     A
C661   C674    1.441   .     S
C661   O709    1.284   .     A
C662   C664    1.409   .     A
C662   C687    1.406   .     A
C662   H696    1.082   .     S
C663   C688    1.410   .     A
C663   C682    1.410   .     A
C664   C683    1.410   .     A
C664   C267    1.512   1_556 S
C665   C667    1.402   .     S
C665   O718    1.275   .     A
C665   O720    1.278   .     A
C666   O721    1.278   .     A
C666   C668    1.401   .     S
C666   O719    1.275   .     A
C668   C733    1.330   .     S
C668   H765    1.088   .     S
C669   C671    1.388   .     A
C669   C680    1.394   .     A
C669   H700    1.084   .     S
C670   H701    1.084   .     S
C670   C681    1.394   .     A
C670   C673    1.387   .     A
C671   S723    1.775   .     S
C671   C674    1.415   .     A
C672   C675    1.439   .     S
C672   O717    1.288   .     A
C672   O715    1.283   .     A
C673   S724    1.776   .     S
C673   C675    1.414   .     A
C674   C676    1.403   .     A
C675   C677    1.402   .     A
C676   C678    1.380   .     A
C676   H702    1.084   .     S
C677   H703    1.084   .     S
C677   C679    1.380   .     A
C678   H704    1.084   .     S
C678   C680    1.390   .     A
C679   H705    1.084   .     S
C679   C681    1.391   .     A
C681   C482    1.432   1_565 S
C682   C684    1.407   .     A
C682   H706    1.082   .     S
C683   C685    1.407   .     A
C683   H690    1.082   .     S
C684   N707    1.362   .     A
C684   H691    1.082   .     S
C685   H692    1.081   .     S
C685   N708    1.364   .     A
C686   C688    1.407   .     A
C686   N707    1.363   .     A
C686   H693    1.082   .     S
C687   N708    1.364   .     A
C687   H694    1.080   .     S
C688   H695    1.082   .     S
H689   C733    1.088   .     S
H697   O711    0.990   .     S
H698   O714    0.990   .     S
N707   Zn726   2.004   .     S
N708   Zn725   2.004   .     S
O709   Zn725   1.995   .     S
O710   S723    1.504   .     D
O711   S723    1.681   .     S
O712   S724    1.503   .     D
O713   S724    1.503   .     D
O714   S724    1.681   .     S
O715   Zn726   1.995   .     S
O716   Zn726   1.987   .     S
O717   Zn725   1.987   .     S
O718   Zn725   1.969   .     S
O719   Zn726   1.969   .     S
O720   Zn726   1.981   .     S
O721   Zn725   1.981   .     S
O722   S723    1.503   .     D
C727   O782    1.288   .     A
C727   C740    1.441   .     S
C727   O775    1.284   .     A
C728   C730    1.409   .     A
C728   C753    1.406   .     A
C728   H762    1.082   .     S
C729   C754    1.410   .     A
C729   C748    1.410   .     A
C730   C749    1.410   .     A
C730   C333    1.512   1_556 S
C731   C733    1.402   .     S
C731   O784    1.275   .     A
C731   O786    1.278   .     A
C732   O787    1.278   .     A
C732   C734    1.401   .     S
C732   O785    1.275   .     A
C734   C601    1.330   1_655 S
C734   H633    1.088   1_655 S
C735   C737    1.388   .     A
C735   C746    1.394   .     A
C735   H766    1.084   .     S
C736   H767    1.084   .     S
C736   C747    1.394   .     A
C736   C739    1.387   .     A
C737   S789    1.775   .     S
C737   C740    1.415   .     A
C738   C741    1.439   .     S
C738   O783    1.288   .     A
C738   O781    1.283   .     A
C739   S790    1.776   .     S
C739   C741    1.414   .     A
C740   C742    1.403   .     A
C741   C743    1.402   .     A
C742   C744    1.380   .     A
C742   H768    1.084   .     S
C743   H769    1.084   .     S
C743   C745    1.380   .     A
C744   H770    1.084   .     S
C744   C746    1.390   .     A
C745   H771    1.084   .     S
C745   C747    1.391   .     A
C747   C548    1.432   1_565 S
C748   C750    1.407   .     A
C748   H772    1.082   .     S
C749   C751    1.407   .     A
C749   H756    1.082   .     S
C750   N773    1.362   .     A
C750   H757    1.082   .     S
C751   H758    1.081   .     S
C751   N774    1.364   .     A
C752   C754    1.407   .     A
C752   N773    1.363   .     A
C752   H759    1.082   .     S
C753   N774    1.364   .     A
C753   H760    1.080   .     S
C754   H761    1.082   .     S
H755   C601    1.088   1_655 S
H763   O777    0.990   .     S
H764   O780    0.990   .     S
N773   Zn792   2.004   .     S
N774   Zn791   2.004   .     S
O775   Zn791   1.995   .     S
O776   S789    1.504   .     D
O777   S789    1.681   .     S
O778   S790    1.503   .     D
O779   S790    1.503   .     D
O780   S790    1.681   .     S
O781   Zn792   1.995   .     S
O782   Zn792   1.987   .     S
O783   Zn791   1.987   .     S
O784   Zn791   1.969   .     S
O785   Zn792   1.969   .     S
O786   Zn792   1.981   .     S
O787   Zn791   1.981   .     S
O788   S789    1.503   .     D
