data_str_m3_o2_o10_pcu_sym.125
_audit_creation_date              2020-01-03
_audit_creation_method            'Materials Studio'
_symmetry_space_group_name_H-M    'P1'
_symmetry_Int_Tables_number       1
_symmetry_cell_setting            triclinic
loop_
_symmetry_equiv_pos_as_xyz
  x,y,z
_cell_length_a                    25.8388
_cell_length_b                    30.0372
_cell_length_c                    28.2698
_cell_angle_alpha                 89.9538
_cell_angle_beta                  97.9145
_cell_angle_gamma                 90.0281
loop_
_atom_site_label
_atom_site_type_symbol
_atom_site_fract_x
_atom_site_fract_y
_atom_site_fract_z
_atom_site_U_iso_or_equiv
_atom_site_adp_type
_atom_site_occupancy
C1     C     0.16683   0.16382   0.25003   0.00000  Uiso   1.00
C2     C     0.16682   0.33618   0.25001   0.00000  Uiso   1.00
C3     C     0.13683   0.22105   0.04785   0.00000  Uiso   1.00
C4     C     0.19932   0.22266   0.45227   0.00000  Uiso   1.00
C5     C     0.13671   0.22072   0.09755   0.00000  Uiso   1.00
C6     C     0.19904   0.22244   0.40251   0.00000  Uiso   1.00
C7     C     0.19750   0.27993   0.10696   0.00000  Uiso   1.00
C8     C     0.13380   0.27814   0.39299   0.00000  Uiso   1.00
C9     C     0.19921   0.28174   0.05718   0.00000  Uiso   1.00
C10    C     0.13246   0.27966   0.44291   0.00000  Uiso   1.00
C11    C     0.16790   0.25163   0.02673   0.00000  Uiso   1.00
C12    C     0.16623   0.25145   0.47329   0.00000  Uiso   1.00
C13    C     0.06722   0.24890   0.23799   0.00000  Uiso   1.00
C14    C     0.26610   0.25114   0.26202   0.00000  Uiso   1.00
C15    C     0.01337   0.23988   0.23409   0.00000  Uiso   1.00
C16    C     0.31994   0.26015   0.26598   0.00000  Uiso   1.00
C17    C     0.14812   0.04646   0.28633   0.00000  Uiso   1.00
C18    C     0.14869   0.45356   0.20883   0.00000  Uiso   1.00
C19    C     0.14699   0.09240   0.28624   0.00000  Uiso   1.00
C20    C     0.14757   0.40761   0.20862   0.00000  Uiso   1.00
C21    C     0.16774   0.11586   0.25017   0.00000  Uiso   1.00
C22    C     0.16776   0.38416   0.25009   0.00000  Uiso   1.00
C23    C     0.18965   0.09303   0.21438   0.00000  Uiso   1.00
C24    C     0.18916   0.40702   0.29156   0.00000  Uiso   1.00
C25    C     0.19048   0.04707   0.21466   0.00000  Uiso   1.00
C26    C     0.18998   0.45298   0.29150   0.00000  Uiso   1.00
C27    C     0.16971   0.02396   0.25054   0.00000  Uiso   1.00
C28    C     0.16972   0.47607   0.25023   0.00000  Uiso   1.00
H29    H     0.13141   0.02836   0.31377   0.00000  Uiso   1.00
H30    H     0.13240   0.47164   0.17704   0.00000  Uiso   1.00
H31    H     0.20768   0.02946   0.18722   0.00000  Uiso   1.00
H32    H     0.20676   0.47060   0.32340   0.00000  Uiso   1.00
H33    H     0.11249   0.19759   0.02579   0.00000  Uiso   1.00
H34    H     0.22556   0.20062   0.47443   0.00000  Uiso   1.00
H35    H     0.22106   0.30262   0.13067   0.00000  Uiso   1.00
H36    H     0.10857   0.29957   0.36921   0.00000  Uiso   1.00
N37    N     0.16667   0.24999   0.12623   0.00000  Uiso   1.00
N38    N     0.16667   0.25001   0.37376   0.00000  Uiso   1.00
O39    O     0.16667   0.18453   0.28974   0.00000  Uiso   1.00
O40    O     0.16666   0.31547   0.21026   0.00000  Uiso   1.00
O41    O     0.16667   0.18453   0.21026   0.00000  Uiso   1.00
O42    O     0.16666   0.31547   0.28974   0.00000  Uiso   1.00
O43    O     0.09058   0.25000   0.28044   0.00000  Uiso   1.00
O44    O     0.24275   0.25000   0.21955   0.00000  Uiso   1.00
O45    O     0.09058   0.25000   0.20096   0.00000  Uiso   1.00
O46    O     0.24275   0.25000   0.29903   0.00000  Uiso   1.00
Zn47   Zn    0.16667   0.25001   0.30307   0.00000  Uiso   1.00
Zn48   Zn    0.16667   0.25000   0.19693   0.00000  Uiso   1.00
C49    C     0.32684   0.20069   0.20395   0.00000  Uiso   1.00
H50    H     0.29253   0.18239   0.21106   0.00000  Uiso   1.00
O51    O     0.01616   0.18779   0.17136   0.00000  Uiso   1.00
C52    C     0.00641   0.29924   0.29631   0.00000  Uiso   1.00
H53    H     0.04076   0.31757   0.28933   0.00000  Uiso   1.00
O54    O     0.31702   0.31201   0.32892   0.00000  Uiso   1.00
F55    F     0.12455   0.11370   0.32059   0.00000  Uiso   1.00
F56    F     0.12567   0.38632   0.16841   0.00000  Uiso   1.00
F57    F     0.21115   0.11496   0.17983   0.00000  Uiso   1.00
F58    F     0.21020   0.38512   0.33170   0.00000  Uiso   1.00
F59    F     0.10641   0.19095   0.11706   0.00000  Uiso   1.00
F60    F     0.23149   0.19459   0.38299   0.00000  Uiso   1.00
C61    C     0.23414   0.31537   0.03950   0.00000  Uiso   1.00
H62    H     0.25614   0.33799   0.06462   0.00000  Uiso   1.00
O63    O     0.23925   0.31838   0.49734   0.00000  Uiso   1.00
C64    C     0.09610   0.31056   0.46265   0.00000  Uiso   1.00
H65    H     0.09479   0.31208   0.00079   0.00000  Uiso   1.00
O66    O     0.06694   0.33480   0.43646   0.00000  Uiso   1.00
C67    C     0.50017   0.16382   0.25003   0.00000  Uiso   1.00
C68    C     0.50016   0.33618   0.25001   0.00000  Uiso   1.00
C69    C     0.47016   0.22105   0.04785   0.00000  Uiso   1.00
C70    C     0.53265   0.22266   0.45227   0.00000  Uiso   1.00
C71    C     0.47005   0.22072   0.09755   0.00000  Uiso   1.00
C72    C     0.53237   0.22244   0.40251   0.00000  Uiso   1.00
C73    C     0.53083   0.27993   0.10696   0.00000  Uiso   1.00
C74    C     0.46713   0.27814   0.39299   0.00000  Uiso   1.00
C75    C     0.53255   0.28174   0.05718   0.00000  Uiso   1.00
C76    C     0.46580   0.27966   0.44291   0.00000  Uiso   1.00
C77    C     0.50123   0.25163   0.02673   0.00000  Uiso   1.00
C78    C     0.49956   0.25145   0.47329   0.00000  Uiso   1.00
C79    C     0.40055   0.24890   0.23799   0.00000  Uiso   1.00
C80    C     0.59944   0.25114   0.26202   0.00000  Uiso   1.00
C81    C     0.34670   0.23988   0.23409   0.00000  Uiso   1.00
C82    C     0.65327   0.26015   0.26598   0.00000  Uiso   1.00
C83    C     0.48145   0.04646   0.28633   0.00000  Uiso   1.00
C84    C     0.48202   0.45356   0.20883   0.00000  Uiso   1.00
C85    C     0.48033   0.09240   0.28624   0.00000  Uiso   1.00
C86    C     0.48090   0.40761   0.20862   0.00000  Uiso   1.00
C87    C     0.50107   0.11586   0.25017   0.00000  Uiso   1.00
C88    C     0.50110   0.38416   0.25009   0.00000  Uiso   1.00
C89    C     0.52298   0.09303   0.21438   0.00000  Uiso   1.00
C90    C     0.52250   0.40702   0.29156   0.00000  Uiso   1.00
C91    C     0.52382   0.04707   0.21466   0.00000  Uiso   1.00
C92    C     0.52331   0.45298   0.29150   0.00000  Uiso   1.00
C93    C     0.50304   0.02396   0.25054   0.00000  Uiso   1.00
C94    C     0.50305   0.47607   0.25023   0.00000  Uiso   1.00
H95    H     0.46475   0.02836   0.31377   0.00000  Uiso   1.00
H96    H     0.46573   0.47164   0.17704   0.00000  Uiso   1.00
H97    H     0.54101   0.02946   0.18722   0.00000  Uiso   1.00
H98    H     0.54010   0.47060   0.32340   0.00000  Uiso   1.00
H99    H     0.44582   0.19759   0.02579   0.00000  Uiso   1.00
H100   H     0.55889   0.20062   0.47443   0.00000  Uiso   1.00
H101   H     0.55439   0.30262   0.13067   0.00000  Uiso   1.00
H102   H     0.44191   0.29957   0.36921   0.00000  Uiso   1.00
N103   N     0.50000   0.24999   0.12623   0.00000  Uiso   1.00
N104   N     0.50000   0.25001   0.37376   0.00000  Uiso   1.00
O105   O     0.50000   0.18453   0.28974   0.00000  Uiso   1.00
O106   O     0.50000   0.31547   0.21026   0.00000  Uiso   1.00
O107   O     0.50000   0.18453   0.21026   0.00000  Uiso   1.00
O108   O     0.50000   0.31547   0.28974   0.00000  Uiso   1.00
O109   O     0.42392   0.25000   0.28044   0.00000  Uiso   1.00
O110   O     0.57608   0.25000   0.21955   0.00000  Uiso   1.00
O111   O     0.42392   0.25000   0.20096   0.00000  Uiso   1.00
O112   O     0.57608   0.25000   0.29903   0.00000  Uiso   1.00
Zn113  Zn    0.50000   0.25001   0.30307   0.00000  Uiso   1.00
Zn114  Zn    0.50000   0.25000   0.19693   0.00000  Uiso   1.00
C115   C     0.66018   0.20069   0.20395   0.00000  Uiso   1.00
H116   H     0.62586   0.18239   0.21106   0.00000  Uiso   1.00
O117   O     0.34949   0.18779   0.17136   0.00000  Uiso   1.00
C118   C     0.33975   0.29924   0.29631   0.00000  Uiso   1.00
H119   H     0.37409   0.31757   0.28933   0.00000  Uiso   1.00
O120   O     0.65035   0.31201   0.32892   0.00000  Uiso   1.00
F121   F     0.45789   0.11370   0.32059   0.00000  Uiso   1.00
F122   F     0.45900   0.38632   0.16841   0.00000  Uiso   1.00
F123   F     0.54448   0.11496   0.17983   0.00000  Uiso   1.00
F124   F     0.54354   0.38512   0.33170   0.00000  Uiso   1.00
F125   F     0.43974   0.19095   0.11706   0.00000  Uiso   1.00
F126   F     0.56482   0.19459   0.38299   0.00000  Uiso   1.00
C127   C     0.56747   0.31537   0.03950   0.00000  Uiso   1.00
H128   H     0.58948   0.33799   0.06462   0.00000  Uiso   1.00
O129   O     0.57259   0.31838   0.49734   0.00000  Uiso   1.00
C130   C     0.42943   0.31056   0.46265   0.00000  Uiso   1.00
H131   H     0.42812   0.31208   0.00079   0.00000  Uiso   1.00
O132   O     0.40027   0.33480   0.43646   0.00000  Uiso   1.00
C133   C     0.83350   0.16382   0.25003   0.00000  Uiso   1.00
C134   C     0.83349   0.33618   0.25001   0.00000  Uiso   1.00
C135   C     0.80350   0.22105   0.04785   0.00000  Uiso   1.00
C136   C     0.86598   0.22266   0.45227   0.00000  Uiso   1.00
C137   C     0.80338   0.22072   0.09755   0.00000  Uiso   1.00
C138   C     0.86571   0.22244   0.40251   0.00000  Uiso   1.00
C139   C     0.86416   0.27993   0.10696   0.00000  Uiso   1.00
C140   C     0.80047   0.27814   0.39299   0.00000  Uiso   1.00
C141   C     0.86588   0.28174   0.05718   0.00000  Uiso   1.00
C142   C     0.79913   0.27966   0.44291   0.00000  Uiso   1.00
C143   C     0.83457   0.25163   0.02673   0.00000  Uiso   1.00
C144   C     0.83289   0.25145   0.47329   0.00000  Uiso   1.00
C145   C     0.73388   0.24890   0.23799   0.00000  Uiso   1.00
C146   C     0.93277   0.25114   0.26202   0.00000  Uiso   1.00
C147   C     0.68004   0.23988   0.23409   0.00000  Uiso   1.00
C148   C     0.98660   0.26015   0.26598   0.00000  Uiso   1.00
C149   C     0.81478   0.04646   0.28633   0.00000  Uiso   1.00
C150   C     0.81535   0.45356   0.20883   0.00000  Uiso   1.00
C151   C     0.81366   0.09240   0.28624   0.00000  Uiso   1.00
C152   C     0.81423   0.40761   0.20862   0.00000  Uiso   1.00
C153   C     0.83441   0.11586   0.25017   0.00000  Uiso   1.00
C154   C     0.83443   0.38416   0.25009   0.00000  Uiso   1.00
C155   C     0.85631   0.09303   0.21438   0.00000  Uiso   1.00
C156   C     0.85583   0.40702   0.29156   0.00000  Uiso   1.00
C157   C     0.85715   0.04707   0.21466   0.00000  Uiso   1.00
C158   C     0.85665   0.45298   0.29150   0.00000  Uiso   1.00
C159   C     0.83637   0.02396   0.25054   0.00000  Uiso   1.00
C160   C     0.83639   0.47607   0.25023   0.00000  Uiso   1.00
H161   H     0.79808   0.02836   0.31377   0.00000  Uiso   1.00
H162   H     0.79907   0.47164   0.17704   0.00000  Uiso   1.00
H163   H     0.87434   0.02946   0.18722   0.00000  Uiso   1.00
H164   H     0.87343   0.47060   0.32340   0.00000  Uiso   1.00
H165   H     0.77916   0.19759   0.02579   0.00000  Uiso   1.00
H166   H     0.89223   0.20062   0.47443   0.00000  Uiso   1.00
H167   H     0.88773   0.30262   0.13067   0.00000  Uiso   1.00
H168   H     0.77524   0.29957   0.36921   0.00000  Uiso   1.00
N169   N     0.83333   0.24999   0.12623   0.00000  Uiso   1.00
N170   N     0.83333   0.25001   0.37376   0.00000  Uiso   1.00
O171   O     0.83334   0.18453   0.28974   0.00000  Uiso   1.00
O172   O     0.83333   0.31547   0.21026   0.00000  Uiso   1.00
O173   O     0.83334   0.18453   0.21026   0.00000  Uiso   1.00
O174   O     0.83333   0.31547   0.28974   0.00000  Uiso   1.00
O175   O     0.75725   0.25000   0.28044   0.00000  Uiso   1.00
O176   O     0.90942   0.25000   0.21955   0.00000  Uiso   1.00
O177   O     0.75725   0.25000   0.20096   0.00000  Uiso   1.00
O178   O     0.90942   0.25000   0.29903   0.00000  Uiso   1.00
Zn179  Zn    0.83333   0.25001   0.30307   0.00000  Uiso   1.00
Zn180  Zn    0.83333   0.25000   0.19693   0.00000  Uiso   1.00
C181   C     0.99351   0.20069   0.20395   0.00000  Uiso   1.00
H182   H     0.95920   0.18239   0.21106   0.00000  Uiso   1.00
O183   O     0.68282   0.18779   0.17136   0.00000  Uiso   1.00
C184   C     0.67308   0.29924   0.29631   0.00000  Uiso   1.00
H185   H     0.70743   0.31757   0.28933   0.00000  Uiso   1.00
O186   O     0.98369   0.31201   0.32892   0.00000  Uiso   1.00
F187   F     0.79122   0.11370   0.32059   0.00000  Uiso   1.00
F188   F     0.79234   0.38632   0.16841   0.00000  Uiso   1.00
F189   F     0.87781   0.11496   0.17983   0.00000  Uiso   1.00
F190   F     0.87687   0.38512   0.33170   0.00000  Uiso   1.00
F191   F     0.77307   0.19095   0.11706   0.00000  Uiso   1.00
F192   F     0.89816   0.19459   0.38299   0.00000  Uiso   1.00
C193   C     0.90081   0.31537   0.03950   0.00000  Uiso   1.00
H194   H     0.92281   0.33799   0.06462   0.00000  Uiso   1.00
O195   O     0.90592   0.31838   0.49734   0.00000  Uiso   1.00
C196   C     0.76276   0.31056   0.46265   0.00000  Uiso   1.00
H197   H     0.76146   0.31208   0.00079   0.00000  Uiso   1.00
O198   O     0.73361   0.33480   0.43646   0.00000  Uiso   1.00
C199   C     0.16683   0.66382   0.25003   0.00000  Uiso   1.00
C200   C     0.16682   0.83618   0.25001   0.00000  Uiso   1.00
C201   C     0.13683   0.72105   0.04785   0.00000  Uiso   1.00
C202   C     0.19932   0.72266   0.45227   0.00000  Uiso   1.00
C203   C     0.13671   0.72072   0.09755   0.00000  Uiso   1.00
C204   C     0.19904   0.72244   0.40251   0.00000  Uiso   1.00
C205   C     0.19750   0.77993   0.10696   0.00000  Uiso   1.00
C206   C     0.13380   0.77814   0.39299   0.00000  Uiso   1.00
C207   C     0.19921   0.78174   0.05718   0.00000  Uiso   1.00
C208   C     0.13246   0.77966   0.44291   0.00000  Uiso   1.00
C209   C     0.16790   0.75163   0.02673   0.00000  Uiso   1.00
C210   C     0.16623   0.75145   0.47329   0.00000  Uiso   1.00
C211   C     0.06722   0.74890   0.23799   0.00000  Uiso   1.00
C212   C     0.26610   0.75114   0.26202   0.00000  Uiso   1.00
C213   C     0.01337   0.73988   0.23409   0.00000  Uiso   1.00
C214   C     0.31994   0.76015   0.26598   0.00000  Uiso   1.00
C215   C     0.14812   0.54646   0.28633   0.00000  Uiso   1.00
C216   C     0.14869   0.95356   0.20883   0.00000  Uiso   1.00
C217   C     0.14699   0.59240   0.28624   0.00000  Uiso   1.00
C218   C     0.14757   0.90761   0.20862   0.00000  Uiso   1.00
C219   C     0.16774   0.61586   0.25017   0.00000  Uiso   1.00
C220   C     0.16776   0.88416   0.25009   0.00000  Uiso   1.00
C221   C     0.18965   0.59303   0.21438   0.00000  Uiso   1.00
C222   C     0.18916   0.90702   0.29156   0.00000  Uiso   1.00
C223   C     0.19048   0.54707   0.21466   0.00000  Uiso   1.00
C224   C     0.18998   0.95298   0.29150   0.00000  Uiso   1.00
C225   C     0.16971   0.52396   0.25054   0.00000  Uiso   1.00
C226   C     0.16972   0.97607   0.25023   0.00000  Uiso   1.00
H227   H     0.13141   0.52836   0.31377   0.00000  Uiso   1.00
H228   H     0.13240   0.97164   0.17704   0.00000  Uiso   1.00
H229   H     0.20768   0.52946   0.18722   0.00000  Uiso   1.00
H230   H     0.20676   0.97060   0.32340   0.00000  Uiso   1.00
H231   H     0.11249   0.69759   0.02579   0.00000  Uiso   1.00
H232   H     0.22556   0.70062   0.47443   0.00000  Uiso   1.00
H233   H     0.22106   0.80262   0.13067   0.00000  Uiso   1.00
H234   H     0.10857   0.79957   0.36921   0.00000  Uiso   1.00
N235   N     0.16667   0.74999   0.12623   0.00000  Uiso   1.00
N236   N     0.16667   0.75001   0.37376   0.00000  Uiso   1.00
O237   O     0.16667   0.68453   0.28974   0.00000  Uiso   1.00
O238   O     0.16666   0.81547   0.21026   0.00000  Uiso   1.00
O239   O     0.16667   0.68453   0.21026   0.00000  Uiso   1.00
O240   O     0.16666   0.81547   0.28974   0.00000  Uiso   1.00
O241   O     0.09058   0.75000   0.28044   0.00000  Uiso   1.00
O242   O     0.24275   0.75000   0.21955   0.00000  Uiso   1.00
O243   O     0.09058   0.75000   0.20096   0.00000  Uiso   1.00
O244   O     0.24275   0.75000   0.29903   0.00000  Uiso   1.00
Zn245  Zn    0.16667   0.75001   0.30307   0.00000  Uiso   1.00
Zn246  Zn    0.16667   0.75000   0.19693   0.00000  Uiso   1.00
C247   C     0.32684   0.70069   0.20395   0.00000  Uiso   1.00
H248   H     0.29253   0.68239   0.21106   0.00000  Uiso   1.00
O249   O     0.01616   0.68779   0.17136   0.00000  Uiso   1.00
C250   C     0.00641   0.79924   0.29631   0.00000  Uiso   1.00
H251   H     0.04076   0.81757   0.28933   0.00000  Uiso   1.00
O252   O     0.31702   0.81201   0.32892   0.00000  Uiso   1.00
F253   F     0.12455   0.61370   0.32059   0.00000  Uiso   1.00
F254   F     0.12567   0.88632   0.16841   0.00000  Uiso   1.00
F255   F     0.21115   0.61496   0.17983   0.00000  Uiso   1.00
F256   F     0.21020   0.88512   0.33170   0.00000  Uiso   1.00
F257   F     0.10641   0.69095   0.11706   0.00000  Uiso   1.00
F258   F     0.23149   0.69459   0.38299   0.00000  Uiso   1.00
C259   C     0.23414   0.81537   0.03950   0.00000  Uiso   1.00
H260   H     0.25614   0.83799   0.06462   0.00000  Uiso   1.00
O261   O     0.23925   0.81838   0.49734   0.00000  Uiso   1.00
C262   C     0.09610   0.81056   0.46265   0.00000  Uiso   1.00
H263   H     0.09479   0.81208   0.00079   0.00000  Uiso   1.00
O264   O     0.06694   0.83480   0.43646   0.00000  Uiso   1.00
C265   C     0.50017   0.66382   0.25003   0.00000  Uiso   1.00
C266   C     0.50016   0.83618   0.25001   0.00000  Uiso   1.00
C267   C     0.47016   0.72105   0.04785   0.00000  Uiso   1.00
C268   C     0.53265   0.72266   0.45227   0.00000  Uiso   1.00
C269   C     0.47005   0.72072   0.09755   0.00000  Uiso   1.00
C270   C     0.53237   0.72244   0.40251   0.00000  Uiso   1.00
C271   C     0.53083   0.77993   0.10696   0.00000  Uiso   1.00
C272   C     0.46713   0.77814   0.39299   0.00000  Uiso   1.00
C273   C     0.53255   0.78174   0.05718   0.00000  Uiso   1.00
C274   C     0.46580   0.77966   0.44291   0.00000  Uiso   1.00
C275   C     0.50123   0.75163   0.02673   0.00000  Uiso   1.00
C276   C     0.49956   0.75145   0.47329   0.00000  Uiso   1.00
C277   C     0.40055   0.74890   0.23799   0.00000  Uiso   1.00
C278   C     0.59944   0.75114   0.26202   0.00000  Uiso   1.00
C279   C     0.34670   0.73988   0.23409   0.00000  Uiso   1.00
C280   C     0.65327   0.76015   0.26598   0.00000  Uiso   1.00
C281   C     0.48145   0.54646   0.28633   0.00000  Uiso   1.00
C282   C     0.48202   0.95356   0.20883   0.00000  Uiso   1.00
C283   C     0.48033   0.59240   0.28624   0.00000  Uiso   1.00
C284   C     0.48090   0.90761   0.20862   0.00000  Uiso   1.00
C285   C     0.50107   0.61586   0.25017   0.00000  Uiso   1.00
C286   C     0.50110   0.88416   0.25009   0.00000  Uiso   1.00
C287   C     0.52298   0.59303   0.21438   0.00000  Uiso   1.00
C288   C     0.52250   0.90702   0.29156   0.00000  Uiso   1.00
C289   C     0.52382   0.54707   0.21466   0.00000  Uiso   1.00
C290   C     0.52331   0.95298   0.29150   0.00000  Uiso   1.00
C291   C     0.50304   0.52396   0.25054   0.00000  Uiso   1.00
C292   C     0.50305   0.97607   0.25023   0.00000  Uiso   1.00
H293   H     0.46475   0.52836   0.31377   0.00000  Uiso   1.00
H294   H     0.46573   0.97164   0.17704   0.00000  Uiso   1.00
H295   H     0.54101   0.52946   0.18722   0.00000  Uiso   1.00
H296   H     0.54010   0.97060   0.32340   0.00000  Uiso   1.00
H297   H     0.44582   0.69759   0.02579   0.00000  Uiso   1.00
H298   H     0.55889   0.70062   0.47443   0.00000  Uiso   1.00
H299   H     0.55439   0.80262   0.13067   0.00000  Uiso   1.00
H300   H     0.44191   0.79957   0.36921   0.00000  Uiso   1.00
N301   N     0.50000   0.74999   0.12623   0.00000  Uiso   1.00
N302   N     0.50000   0.75001   0.37376   0.00000  Uiso   1.00
O303   O     0.50000   0.68453   0.28974   0.00000  Uiso   1.00
O304   O     0.50000   0.81547   0.21026   0.00000  Uiso   1.00
O305   O     0.50000   0.68453   0.21026   0.00000  Uiso   1.00
O306   O     0.50000   0.81547   0.28974   0.00000  Uiso   1.00
O307   O     0.42392   0.75000   0.28044   0.00000  Uiso   1.00
O308   O     0.57608   0.75000   0.21955   0.00000  Uiso   1.00
O309   O     0.42392   0.75000   0.20096   0.00000  Uiso   1.00
O310   O     0.57608   0.75000   0.29903   0.00000  Uiso   1.00
Zn311  Zn    0.50000   0.75001   0.30307   0.00000  Uiso   1.00
Zn312  Zn    0.50000   0.75000   0.19693   0.00000  Uiso   1.00
C313   C     0.66018   0.70069   0.20395   0.00000  Uiso   1.00
H314   H     0.62586   0.68239   0.21106   0.00000  Uiso   1.00
O315   O     0.34949   0.68779   0.17136   0.00000  Uiso   1.00
C316   C     0.33975   0.79924   0.29631   0.00000  Uiso   1.00
H317   H     0.37409   0.81757   0.28933   0.00000  Uiso   1.00
O318   O     0.65035   0.81201   0.32892   0.00000  Uiso   1.00
F319   F     0.45789   0.61370   0.32059   0.00000  Uiso   1.00
F320   F     0.45900   0.88632   0.16841   0.00000  Uiso   1.00
F321   F     0.54448   0.61496   0.17983   0.00000  Uiso   1.00
F322   F     0.54354   0.88512   0.33170   0.00000  Uiso   1.00
F323   F     0.43974   0.69095   0.11706   0.00000  Uiso   1.00
F324   F     0.56482   0.69459   0.38299   0.00000  Uiso   1.00
C325   C     0.56747   0.81537   0.03950   0.00000  Uiso   1.00
H326   H     0.58948   0.83799   0.06462   0.00000  Uiso   1.00
O327   O     0.57259   0.81838   0.49734   0.00000  Uiso   1.00
C328   C     0.42943   0.81056   0.46265   0.00000  Uiso   1.00
H329   H     0.42812   0.81208   0.00079   0.00000  Uiso   1.00
O330   O     0.40027   0.83480   0.43646   0.00000  Uiso   1.00
C331   C     0.83350   0.66382   0.25003   0.00000  Uiso   1.00
C332   C     0.83349   0.83618   0.25001   0.00000  Uiso   1.00
C333   C     0.80350   0.72105   0.04785   0.00000  Uiso   1.00
C334   C     0.86598   0.72266   0.45227   0.00000  Uiso   1.00
C335   C     0.80338   0.72072   0.09755   0.00000  Uiso   1.00
C336   C     0.86571   0.72244   0.40251   0.00000  Uiso   1.00
C337   C     0.86416   0.77993   0.10696   0.00000  Uiso   1.00
C338   C     0.80047   0.77814   0.39299   0.00000  Uiso   1.00
C339   C     0.86588   0.78174   0.05718   0.00000  Uiso   1.00
C340   C     0.79913   0.77966   0.44291   0.00000  Uiso   1.00
C341   C     0.83457   0.75163   0.02673   0.00000  Uiso   1.00
C342   C     0.83289   0.75145   0.47329   0.00000  Uiso   1.00
C343   C     0.73388   0.74890   0.23799   0.00000  Uiso   1.00
C344   C     0.93277   0.75114   0.26202   0.00000  Uiso   1.00
C345   C     0.68004   0.73988   0.23409   0.00000  Uiso   1.00
C346   C     0.98660   0.76015   0.26598   0.00000  Uiso   1.00
C347   C     0.81478   0.54646   0.28633   0.00000  Uiso   1.00
C348   C     0.81535   0.95356   0.20883   0.00000  Uiso   1.00
C349   C     0.81366   0.59240   0.28624   0.00000  Uiso   1.00
C350   C     0.81423   0.90761   0.20862   0.00000  Uiso   1.00
C351   C     0.83441   0.61586   0.25017   0.00000  Uiso   1.00
C352   C     0.83443   0.88416   0.25009   0.00000  Uiso   1.00
C353   C     0.85631   0.59303   0.21438   0.00000  Uiso   1.00
C354   C     0.85583   0.90702   0.29156   0.00000  Uiso   1.00
C355   C     0.85715   0.54707   0.21466   0.00000  Uiso   1.00
C356   C     0.85665   0.95298   0.29150   0.00000  Uiso   1.00
C357   C     0.83637   0.52396   0.25054   0.00000  Uiso   1.00
C358   C     0.83639   0.97607   0.25023   0.00000  Uiso   1.00
H359   H     0.79808   0.52836   0.31377   0.00000  Uiso   1.00
H360   H     0.79907   0.97164   0.17704   0.00000  Uiso   1.00
H361   H     0.87434   0.52946   0.18722   0.00000  Uiso   1.00
H362   H     0.87343   0.97060   0.32340   0.00000  Uiso   1.00
H363   H     0.77916   0.69759   0.02579   0.00000  Uiso   1.00
H364   H     0.89223   0.70062   0.47443   0.00000  Uiso   1.00
H365   H     0.88773   0.80262   0.13067   0.00000  Uiso   1.00
H366   H     0.77524   0.79957   0.36921   0.00000  Uiso   1.00
N367   N     0.83333   0.74999   0.12623   0.00000  Uiso   1.00
N368   N     0.83333   0.75001   0.37376   0.00000  Uiso   1.00
O369   O     0.83334   0.68453   0.28974   0.00000  Uiso   1.00
O370   O     0.83333   0.81547   0.21026   0.00000  Uiso   1.00
O371   O     0.83334   0.68453   0.21026   0.00000  Uiso   1.00
O372   O     0.83333   0.81547   0.28974   0.00000  Uiso   1.00
O373   O     0.75725   0.75000   0.28044   0.00000  Uiso   1.00
O374   O     0.90942   0.75000   0.21955   0.00000  Uiso   1.00
O375   O     0.75725   0.75000   0.20096   0.00000  Uiso   1.00
O376   O     0.90942   0.75000   0.29903   0.00000  Uiso   1.00
Zn377  Zn    0.83333   0.75001   0.30307   0.00000  Uiso   1.00
Zn378  Zn    0.83333   0.75000   0.19693   0.00000  Uiso   1.00
C379   C     0.99351   0.70069   0.20395   0.00000  Uiso   1.00
H380   H     0.95920   0.68239   0.21106   0.00000  Uiso   1.00
O381   O     0.68282   0.68779   0.17136   0.00000  Uiso   1.00
C382   C     0.67308   0.79924   0.29631   0.00000  Uiso   1.00
H383   H     0.70743   0.81757   0.28933   0.00000  Uiso   1.00
O384   O     0.98369   0.81201   0.32892   0.00000  Uiso   1.00
F385   F     0.79122   0.61370   0.32059   0.00000  Uiso   1.00
F386   F     0.79234   0.88632   0.16841   0.00000  Uiso   1.00
F387   F     0.87781   0.61496   0.17983   0.00000  Uiso   1.00
F388   F     0.87687   0.88512   0.33170   0.00000  Uiso   1.00
F389   F     0.77307   0.69095   0.11706   0.00000  Uiso   1.00
F390   F     0.89816   0.69459   0.38299   0.00000  Uiso   1.00
C391   C     0.90081   0.81537   0.03950   0.00000  Uiso   1.00
H392   H     0.92281   0.83799   0.06462   0.00000  Uiso   1.00
O393   O     0.90592   0.81838   0.49734   0.00000  Uiso   1.00
C394   C     0.76276   0.81056   0.46265   0.00000  Uiso   1.00
H395   H     0.76146   0.81208   0.00079   0.00000  Uiso   1.00
O396   O     0.73361   0.83480   0.43646   0.00000  Uiso   1.00
C397   C     0.16683   0.16382   0.75003   0.00000  Uiso   1.00
C398   C     0.16682   0.33618   0.75001   0.00000  Uiso   1.00
C399   C     0.13683   0.22105   0.54785   0.00000  Uiso   1.00
C400   C     0.19932   0.22266   0.95227   0.00000  Uiso   1.00
C401   C     0.13671   0.22072   0.59755   0.00000  Uiso   1.00
C402   C     0.19904   0.22244   0.90251   0.00000  Uiso   1.00
C403   C     0.19750   0.27993   0.60696   0.00000  Uiso   1.00
C404   C     0.13380   0.27814   0.89299   0.00000  Uiso   1.00
C405   C     0.19921   0.28174   0.55718   0.00000  Uiso   1.00
C406   C     0.13246   0.27966   0.94291   0.00000  Uiso   1.00
C407   C     0.16790   0.25163   0.52673   0.00000  Uiso   1.00
C408   C     0.16623   0.25145   0.97329   0.00000  Uiso   1.00
C409   C     0.06722   0.24890   0.73799   0.00000  Uiso   1.00
C410   C     0.26610   0.25114   0.76202   0.00000  Uiso   1.00
C411   C     0.01337   0.23988   0.73409   0.00000  Uiso   1.00
C412   C     0.31994   0.26015   0.76598   0.00000  Uiso   1.00
C413   C     0.14812   0.04646   0.78633   0.00000  Uiso   1.00
C414   C     0.14869   0.45356   0.70883   0.00000  Uiso   1.00
C415   C     0.14699   0.09240   0.78624   0.00000  Uiso   1.00
C416   C     0.14757   0.40761   0.70862   0.00000  Uiso   1.00
C417   C     0.16774   0.11586   0.75017   0.00000  Uiso   1.00
C418   C     0.16776   0.38416   0.75009   0.00000  Uiso   1.00
C419   C     0.18965   0.09303   0.71438   0.00000  Uiso   1.00
C420   C     0.18916   0.40702   0.79156   0.00000  Uiso   1.00
C421   C     0.19048   0.04707   0.71466   0.00000  Uiso   1.00
C422   C     0.18998   0.45298   0.79150   0.00000  Uiso   1.00
C423   C     0.16971   0.02396   0.75054   0.00000  Uiso   1.00
C424   C     0.16972   0.47607   0.75023   0.00000  Uiso   1.00
H425   H     0.13141   0.02836   0.81377   0.00000  Uiso   1.00
H426   H     0.13240   0.47164   0.67704   0.00000  Uiso   1.00
H427   H     0.20768   0.02946   0.68722   0.00000  Uiso   1.00
H428   H     0.20676   0.47060   0.82340   0.00000  Uiso   1.00
H429   H     0.11249   0.19759   0.52579   0.00000  Uiso   1.00
H430   H     0.22556   0.20062   0.97443   0.00000  Uiso   1.00
H431   H     0.22106   0.30262   0.63067   0.00000  Uiso   1.00
H432   H     0.10857   0.29957   0.86921   0.00000  Uiso   1.00
N433   N     0.16667   0.24999   0.62623   0.00000  Uiso   1.00
N434   N     0.16667   0.25001   0.87376   0.00000  Uiso   1.00
O435   O     0.16667   0.18453   0.78974   0.00000  Uiso   1.00
O436   O     0.16666   0.31547   0.71026   0.00000  Uiso   1.00
O437   O     0.16667   0.18453   0.71026   0.00000  Uiso   1.00
O438   O     0.16666   0.31547   0.78974   0.00000  Uiso   1.00
O439   O     0.09058   0.25000   0.78044   0.00000  Uiso   1.00
O440   O     0.24275   0.25000   0.71955   0.00000  Uiso   1.00
O441   O     0.09058   0.25000   0.70096   0.00000  Uiso   1.00
O442   O     0.24275   0.25000   0.79903   0.00000  Uiso   1.00
Zn443  Zn    0.16667   0.25001   0.80307   0.00000  Uiso   1.00
Zn444  Zn    0.16667   0.25000   0.69693   0.00000  Uiso   1.00
C445   C     0.32684   0.20069   0.70395   0.00000  Uiso   1.00
H446   H     0.29253   0.18239   0.71106   0.00000  Uiso   1.00
O447   O     0.01616   0.18779   0.67136   0.00000  Uiso   1.00
C448   C     0.00641   0.29924   0.79631   0.00000  Uiso   1.00
H449   H     0.04076   0.31757   0.78933   0.00000  Uiso   1.00
O450   O     0.31702   0.31201   0.82892   0.00000  Uiso   1.00
F451   F     0.12455   0.11370   0.82059   0.00000  Uiso   1.00
F452   F     0.12567   0.38632   0.66841   0.00000  Uiso   1.00
F453   F     0.21115   0.11496   0.67983   0.00000  Uiso   1.00
F454   F     0.21020   0.38512   0.83170   0.00000  Uiso   1.00
F455   F     0.10641   0.19095   0.61706   0.00000  Uiso   1.00
F456   F     0.23149   0.19459   0.88299   0.00000  Uiso   1.00
C457   C     0.23414   0.31537   0.53950   0.00000  Uiso   1.00
H458   H     0.25614   0.33799   0.56462   0.00000  Uiso   1.00
O459   O     0.23925   0.31838   0.99734   0.00000  Uiso   1.00
C460   C     0.09610   0.31056   0.96265   0.00000  Uiso   1.00
H461   H     0.09479   0.31208   0.50079   0.00000  Uiso   1.00
O462   O     0.06694   0.33480   0.93646   0.00000  Uiso   1.00
C463   C     0.50017   0.16382   0.75003   0.00000  Uiso   1.00
C464   C     0.50016   0.33618   0.75001   0.00000  Uiso   1.00
C465   C     0.47016   0.22105   0.54785   0.00000  Uiso   1.00
C466   C     0.53265   0.22266   0.95227   0.00000  Uiso   1.00
C467   C     0.47005   0.22072   0.59755   0.00000  Uiso   1.00
C468   C     0.53237   0.22244   0.90251   0.00000  Uiso   1.00
C469   C     0.53083   0.27993   0.60696   0.00000  Uiso   1.00
C470   C     0.46713   0.27814   0.89299   0.00000  Uiso   1.00
C471   C     0.53255   0.28174   0.55718   0.00000  Uiso   1.00
C472   C     0.46580   0.27966   0.94291   0.00000  Uiso   1.00
C473   C     0.50123   0.25163   0.52673   0.00000  Uiso   1.00
C474   C     0.49956   0.25145   0.97329   0.00000  Uiso   1.00
C475   C     0.40055   0.24890   0.73799   0.00000  Uiso   1.00
C476   C     0.59944   0.25114   0.76202   0.00000  Uiso   1.00
C477   C     0.34670   0.23988   0.73409   0.00000  Uiso   1.00
C478   C     0.65327   0.26015   0.76598   0.00000  Uiso   1.00
C479   C     0.48145   0.04646   0.78633   0.00000  Uiso   1.00
C480   C     0.48202   0.45356   0.70883   0.00000  Uiso   1.00
C481   C     0.48033   0.09240   0.78624   0.00000  Uiso   1.00
C482   C     0.48090   0.40761   0.70862   0.00000  Uiso   1.00
C483   C     0.50107   0.11586   0.75017   0.00000  Uiso   1.00
C484   C     0.50110   0.38416   0.75009   0.00000  Uiso   1.00
C485   C     0.52298   0.09303   0.71438   0.00000  Uiso   1.00
C486   C     0.52250   0.40702   0.79156   0.00000  Uiso   1.00
C487   C     0.52382   0.04707   0.71466   0.00000  Uiso   1.00
C488   C     0.52331   0.45298   0.79150   0.00000  Uiso   1.00
C489   C     0.50304   0.02396   0.75054   0.00000  Uiso   1.00
C490   C     0.50305   0.47607   0.75023   0.00000  Uiso   1.00
H491   H     0.46475   0.02836   0.81377   0.00000  Uiso   1.00
H492   H     0.46573   0.47164   0.67704   0.00000  Uiso   1.00
H493   H     0.54101   0.02946   0.68722   0.00000  Uiso   1.00
H494   H     0.54010   0.47060   0.82340   0.00000  Uiso   1.00
H495   H     0.44582   0.19759   0.52579   0.00000  Uiso   1.00
H496   H     0.55889   0.20062   0.97443   0.00000  Uiso   1.00
H497   H     0.55439   0.30262   0.63067   0.00000  Uiso   1.00
H498   H     0.44191   0.29957   0.86921   0.00000  Uiso   1.00
N499   N     0.50000   0.24999   0.62623   0.00000  Uiso   1.00
N500   N     0.50000   0.25001   0.87376   0.00000  Uiso   1.00
O501   O     0.50000   0.18453   0.78974   0.00000  Uiso   1.00
O502   O     0.50000   0.31547   0.71026   0.00000  Uiso   1.00
O503   O     0.50000   0.18453   0.71026   0.00000  Uiso   1.00
O504   O     0.50000   0.31547   0.78974   0.00000  Uiso   1.00
O505   O     0.42392   0.25000   0.78044   0.00000  Uiso   1.00
O506   O     0.57608   0.25000   0.71955   0.00000  Uiso   1.00
O507   O     0.42392   0.25000   0.70096   0.00000  Uiso   1.00
O508   O     0.57608   0.25000   0.79903   0.00000  Uiso   1.00
Zn509  Zn    0.50000   0.25001   0.80307   0.00000  Uiso   1.00
Zn510  Zn    0.50000   0.25000   0.69693   0.00000  Uiso   1.00
C511   C     0.66018   0.20069   0.70395   0.00000  Uiso   1.00
H512   H     0.62586   0.18239   0.71106   0.00000  Uiso   1.00
O513   O     0.34949   0.18779   0.67136   0.00000  Uiso   1.00
C514   C     0.33975   0.29924   0.79631   0.00000  Uiso   1.00
H515   H     0.37409   0.31757   0.78933   0.00000  Uiso   1.00
O516   O     0.65035   0.31201   0.82892   0.00000  Uiso   1.00
F517   F     0.45789   0.11370   0.82059   0.00000  Uiso   1.00
F518   F     0.45900   0.38632   0.66841   0.00000  Uiso   1.00
F519   F     0.54448   0.11496   0.67983   0.00000  Uiso   1.00
F520   F     0.54354   0.38512   0.83170   0.00000  Uiso   1.00
F521   F     0.43974   0.19095   0.61706   0.00000  Uiso   1.00
F522   F     0.56482   0.19459   0.88299   0.00000  Uiso   1.00
C523   C     0.56747   0.31537   0.53950   0.00000  Uiso   1.00
H524   H     0.58948   0.33799   0.56462   0.00000  Uiso   1.00
O525   O     0.57259   0.31838   0.99734   0.00000  Uiso   1.00
C526   C     0.42943   0.31056   0.96265   0.00000  Uiso   1.00
H527   H     0.42812   0.31208   0.50079   0.00000  Uiso   1.00
O528   O     0.40027   0.33480   0.93646   0.00000  Uiso   1.00
C529   C     0.83350   0.16382   0.75003   0.00000  Uiso   1.00
C530   C     0.83349   0.33618   0.75001   0.00000  Uiso   1.00
C531   C     0.80350   0.22105   0.54785   0.00000  Uiso   1.00
C532   C     0.86598   0.22266   0.95227   0.00000  Uiso   1.00
C533   C     0.80338   0.22072   0.59755   0.00000  Uiso   1.00
C534   C     0.86571   0.22244   0.90251   0.00000  Uiso   1.00
C535   C     0.86416   0.27993   0.60696   0.00000  Uiso   1.00
C536   C     0.80047   0.27814   0.89299   0.00000  Uiso   1.00
C537   C     0.86588   0.28174   0.55718   0.00000  Uiso   1.00
C538   C     0.79913   0.27966   0.94291   0.00000  Uiso   1.00
C539   C     0.83457   0.25163   0.52673   0.00000  Uiso   1.00
C540   C     0.83289   0.25145   0.97329   0.00000  Uiso   1.00
C541   C     0.73388   0.24890   0.73799   0.00000  Uiso   1.00
C542   C     0.93277   0.25114   0.76202   0.00000  Uiso   1.00
C543   C     0.68004   0.23988   0.73409   0.00000  Uiso   1.00
C544   C     0.98660   0.26015   0.76598   0.00000  Uiso   1.00
C545   C     0.81478   0.04646   0.78633   0.00000  Uiso   1.00
C546   C     0.81535   0.45356   0.70883   0.00000  Uiso   1.00
C547   C     0.81366   0.09240   0.78624   0.00000  Uiso   1.00
C548   C     0.81423   0.40761   0.70862   0.00000  Uiso   1.00
C549   C     0.83441   0.11586   0.75017   0.00000  Uiso   1.00
C550   C     0.83443   0.38416   0.75009   0.00000  Uiso   1.00
C551   C     0.85631   0.09303   0.71438   0.00000  Uiso   1.00
C552   C     0.85583   0.40702   0.79156   0.00000  Uiso   1.00
C553   C     0.85715   0.04707   0.71466   0.00000  Uiso   1.00
C554   C     0.85665   0.45298   0.79150   0.00000  Uiso   1.00
C555   C     0.83637   0.02396   0.75054   0.00000  Uiso   1.00
C556   C     0.83639   0.47607   0.75023   0.00000  Uiso   1.00
H557   H     0.79808   0.02836   0.81377   0.00000  Uiso   1.00
H558   H     0.79907   0.47164   0.67704   0.00000  Uiso   1.00
H559   H     0.87434   0.02946   0.68722   0.00000  Uiso   1.00
H560   H     0.87343   0.47060   0.82340   0.00000  Uiso   1.00
H561   H     0.77916   0.19759   0.52579   0.00000  Uiso   1.00
H562   H     0.89223   0.20062   0.97443   0.00000  Uiso   1.00
H563   H     0.88773   0.30262   0.63067   0.00000  Uiso   1.00
H564   H     0.77524   0.29957   0.86921   0.00000  Uiso   1.00
N565   N     0.83333   0.24999   0.62623   0.00000  Uiso   1.00
N566   N     0.83333   0.25001   0.87376   0.00000  Uiso   1.00
O567   O     0.83334   0.18453   0.78974   0.00000  Uiso   1.00
O568   O     0.83333   0.31547   0.71026   0.00000  Uiso   1.00
O569   O     0.83334   0.18453   0.71026   0.00000  Uiso   1.00
O570   O     0.83333   0.31547   0.78974   0.00000  Uiso   1.00
O571   O     0.75725   0.25000   0.78044   0.00000  Uiso   1.00
O572   O     0.90942   0.25000   0.71955   0.00000  Uiso   1.00
O573   O     0.75725   0.25000   0.70096   0.00000  Uiso   1.00
O574   O     0.90942   0.25000   0.79903   0.00000  Uiso   1.00
Zn575  Zn    0.83333   0.25001   0.80307   0.00000  Uiso   1.00
Zn576  Zn    0.83333   0.25000   0.69693   0.00000  Uiso   1.00
C577   C     0.99351   0.20069   0.70395   0.00000  Uiso   1.00
H578   H     0.95920   0.18239   0.71106   0.00000  Uiso   1.00
O579   O     0.68282   0.18779   0.67136   0.00000  Uiso   1.00
C580   C     0.67308   0.29924   0.79631   0.00000  Uiso   1.00
H581   H     0.70743   0.31757   0.78933   0.00000  Uiso   1.00
O582   O     0.98369   0.31201   0.82892   0.00000  Uiso   1.00
F583   F     0.79122   0.11370   0.82059   0.00000  Uiso   1.00
F584   F     0.79234   0.38632   0.66841   0.00000  Uiso   1.00
F585   F     0.87781   0.11496   0.67983   0.00000  Uiso   1.00
F586   F     0.87687   0.38512   0.83170   0.00000  Uiso   1.00
F587   F     0.77307   0.19095   0.61706   0.00000  Uiso   1.00
F588   F     0.89816   0.19459   0.88299   0.00000  Uiso   1.00
C589   C     0.90081   0.31537   0.53950   0.00000  Uiso   1.00
H590   H     0.92281   0.33799   0.56462   0.00000  Uiso   1.00
O591   O     0.90592   0.31838   0.99734   0.00000  Uiso   1.00
C592   C     0.76276   0.31056   0.96265   0.00000  Uiso   1.00
H593   H     0.76146   0.31208   0.50079   0.00000  Uiso   1.00
O594   O     0.73361   0.33480   0.93646   0.00000  Uiso   1.00
C595   C     0.16683   0.66382   0.75003   0.00000  Uiso   1.00
C596   C     0.16682   0.83618   0.75001   0.00000  Uiso   1.00
C597   C     0.13683   0.72105   0.54785   0.00000  Uiso   1.00
C598   C     0.19932   0.72266   0.95227   0.00000  Uiso   1.00
C599   C     0.13671   0.72072   0.59755   0.00000  Uiso   1.00
C600   C     0.19904   0.72244   0.90251   0.00000  Uiso   1.00
C601   C     0.19750   0.77993   0.60696   0.00000  Uiso   1.00
C602   C     0.13380   0.77814   0.89299   0.00000  Uiso   1.00
C603   C     0.19921   0.78174   0.55718   0.00000  Uiso   1.00
C604   C     0.13246   0.77966   0.94291   0.00000  Uiso   1.00
C605   C     0.16790   0.75163   0.52673   0.00000  Uiso   1.00
C606   C     0.16623   0.75145   0.97329   0.00000  Uiso   1.00
C607   C     0.06722   0.74890   0.73799   0.00000  Uiso   1.00
C608   C     0.26610   0.75114   0.76202   0.00000  Uiso   1.00
C609   C     0.01337   0.73988   0.73409   0.00000  Uiso   1.00
C610   C     0.31994   0.76015   0.76598   0.00000  Uiso   1.00
C611   C     0.14812   0.54646   0.78633   0.00000  Uiso   1.00
C612   C     0.14869   0.95356   0.70883   0.00000  Uiso   1.00
C613   C     0.14699   0.59240   0.78624   0.00000  Uiso   1.00
C614   C     0.14757   0.90761   0.70862   0.00000  Uiso   1.00
C615   C     0.16774   0.61586   0.75017   0.00000  Uiso   1.00
C616   C     0.16776   0.88416   0.75009   0.00000  Uiso   1.00
C617   C     0.18965   0.59303   0.71438   0.00000  Uiso   1.00
C618   C     0.18916   0.90702   0.79156   0.00000  Uiso   1.00
C619   C     0.19048   0.54707   0.71466   0.00000  Uiso   1.00
C620   C     0.18998   0.95298   0.79150   0.00000  Uiso   1.00
C621   C     0.16971   0.52396   0.75054   0.00000  Uiso   1.00
C622   C     0.16972   0.97607   0.75023   0.00000  Uiso   1.00
H623   H     0.13141   0.52836   0.81377   0.00000  Uiso   1.00
H624   H     0.13240   0.97164   0.67704   0.00000  Uiso   1.00
H625   H     0.20768   0.52946   0.68722   0.00000  Uiso   1.00
H626   H     0.20676   0.97060   0.82340   0.00000  Uiso   1.00
H627   H     0.11249   0.69759   0.52579   0.00000  Uiso   1.00
H628   H     0.22556   0.70062   0.97443   0.00000  Uiso   1.00
H629   H     0.22106   0.80262   0.63067   0.00000  Uiso   1.00
H630   H     0.10857   0.79957   0.86921   0.00000  Uiso   1.00
N631   N     0.16667   0.74999   0.62623   0.00000  Uiso   1.00
N632   N     0.16667   0.75001   0.87376   0.00000  Uiso   1.00
O633   O     0.16667   0.68453   0.78974   0.00000  Uiso   1.00
O634   O     0.16666   0.81547   0.71026   0.00000  Uiso   1.00
O635   O     0.16667   0.68453   0.71026   0.00000  Uiso   1.00
O636   O     0.16666   0.81547   0.78974   0.00000  Uiso   1.00
O637   O     0.09058   0.75000   0.78044   0.00000  Uiso   1.00
O638   O     0.24275   0.75000   0.71955   0.00000  Uiso   1.00
O639   O     0.09058   0.75000   0.70096   0.00000  Uiso   1.00
O640   O     0.24275   0.75000   0.79903   0.00000  Uiso   1.00
Zn641  Zn    0.16667   0.75001   0.80307   0.00000  Uiso   1.00
Zn642  Zn    0.16667   0.75000   0.69693   0.00000  Uiso   1.00
C643   C     0.32684   0.70069   0.70395   0.00000  Uiso   1.00
H644   H     0.29253   0.68239   0.71106   0.00000  Uiso   1.00
O645   O     0.01616   0.68779   0.67136   0.00000  Uiso   1.00
C646   C     0.00641   0.79924   0.79631   0.00000  Uiso   1.00
H647   H     0.04076   0.81757   0.78933   0.00000  Uiso   1.00
O648   O     0.31702   0.81201   0.82892   0.00000  Uiso   1.00
F649   F     0.12455   0.61370   0.82059   0.00000  Uiso   1.00
F650   F     0.12567   0.88632   0.66841   0.00000  Uiso   1.00
F651   F     0.21115   0.61496   0.67983   0.00000  Uiso   1.00
F652   F     0.21020   0.88512   0.83170   0.00000  Uiso   1.00
F653   F     0.10641   0.69095   0.61706   0.00000  Uiso   1.00
F654   F     0.23149   0.69459   0.88299   0.00000  Uiso   1.00
C655   C     0.23414   0.81537   0.53950   0.00000  Uiso   1.00
H656   H     0.25614   0.83799   0.56462   0.00000  Uiso   1.00
O657   O     0.23925   0.81838   0.99734   0.00000  Uiso   1.00
C658   C     0.09610   0.81056   0.96265   0.00000  Uiso   1.00
H659   H     0.09479   0.81208   0.50079   0.00000  Uiso   1.00
O660   O     0.06694   0.83480   0.93646   0.00000  Uiso   1.00
C661   C     0.50017   0.66382   0.75003   0.00000  Uiso   1.00
C662   C     0.50016   0.83618   0.75001   0.00000  Uiso   1.00
C663   C     0.47016   0.72105   0.54785   0.00000  Uiso   1.00
C664   C     0.53265   0.72266   0.95227   0.00000  Uiso   1.00
C665   C     0.47005   0.72072   0.59755   0.00000  Uiso   1.00
C666   C     0.53237   0.72244   0.90251   0.00000  Uiso   1.00
C667   C     0.53083   0.77993   0.60696   0.00000  Uiso   1.00
C668   C     0.46713   0.77814   0.89299   0.00000  Uiso   1.00
C669   C     0.53255   0.78174   0.55718   0.00000  Uiso   1.00
C670   C     0.46580   0.77966   0.94291   0.00000  Uiso   1.00
C671   C     0.50123   0.75163   0.52673   0.00000  Uiso   1.00
C672   C     0.49956   0.75145   0.97329   0.00000  Uiso   1.00
C673   C     0.40055   0.74890   0.73799   0.00000  Uiso   1.00
C674   C     0.59944   0.75114   0.76202   0.00000  Uiso   1.00
C675   C     0.34670   0.73988   0.73409   0.00000  Uiso   1.00
C676   C     0.65327   0.76015   0.76598   0.00000  Uiso   1.00
C677   C     0.48145   0.54646   0.78633   0.00000  Uiso   1.00
C678   C     0.48202   0.95356   0.70883   0.00000  Uiso   1.00
C679   C     0.48033   0.59240   0.78624   0.00000  Uiso   1.00
C680   C     0.48090   0.90761   0.70862   0.00000  Uiso   1.00
C681   C     0.50107   0.61586   0.75017   0.00000  Uiso   1.00
C682   C     0.50110   0.88416   0.75009   0.00000  Uiso   1.00
C683   C     0.52298   0.59303   0.71438   0.00000  Uiso   1.00
C684   C     0.52250   0.90702   0.79156   0.00000  Uiso   1.00
C685   C     0.52382   0.54707   0.71466   0.00000  Uiso   1.00
C686   C     0.52331   0.95298   0.79150   0.00000  Uiso   1.00
C687   C     0.50304   0.52396   0.75054   0.00000  Uiso   1.00
C688   C     0.50305   0.97607   0.75023   0.00000  Uiso   1.00
H689   H     0.46475   0.52836   0.81377   0.00000  Uiso   1.00
H690   H     0.46573   0.97164   0.67704   0.00000  Uiso   1.00
H691   H     0.54101   0.52946   0.68722   0.00000  Uiso   1.00
H692   H     0.54010   0.97060   0.82340   0.00000  Uiso   1.00
H693   H     0.44582   0.69759   0.52579   0.00000  Uiso   1.00
H694   H     0.55889   0.70062   0.97443   0.00000  Uiso   1.00
H695   H     0.55439   0.80262   0.63067   0.00000  Uiso   1.00
H696   H     0.44191   0.79957   0.86921   0.00000  Uiso   1.00
N697   N     0.50000   0.74999   0.62623   0.00000  Uiso   1.00
N698   N     0.50000   0.75001   0.87376   0.00000  Uiso   1.00
O699   O     0.50000   0.68453   0.78974   0.00000  Uiso   1.00
O700   O     0.50000   0.81547   0.71026   0.00000  Uiso   1.00
O701   O     0.50000   0.68453   0.71026   0.00000  Uiso   1.00
O702   O     0.50000   0.81547   0.78974   0.00000  Uiso   1.00
O703   O     0.42392   0.75000   0.78044   0.00000  Uiso   1.00
O704   O     0.57608   0.75000   0.71955   0.00000  Uiso   1.00
O705   O     0.42392   0.75000   0.70096   0.00000  Uiso   1.00
O706   O     0.57608   0.75000   0.79903   0.00000  Uiso   1.00
Zn707  Zn    0.50000   0.75001   0.80307   0.00000  Uiso   1.00
Zn708  Zn    0.50000   0.75000   0.69693   0.00000  Uiso   1.00
C709   C     0.66018   0.70069   0.70395   0.00000  Uiso   1.00
H710   H     0.62586   0.68239   0.71106   0.00000  Uiso   1.00
O711   O     0.34949   0.68779   0.67136   0.00000  Uiso   1.00
C712   C     0.33975   0.79924   0.79631   0.00000  Uiso   1.00
H713   H     0.37409   0.81757   0.78933   0.00000  Uiso   1.00
O714   O     0.65035   0.81201   0.82892   0.00000  Uiso   1.00
F715   F     0.45789   0.61370   0.82059   0.00000  Uiso   1.00
F716   F     0.45900   0.88632   0.66841   0.00000  Uiso   1.00
F717   F     0.54448   0.61496   0.67983   0.00000  Uiso   1.00
F718   F     0.54354   0.88512   0.83170   0.00000  Uiso   1.00
F719   F     0.43974   0.69095   0.61706   0.00000  Uiso   1.00
F720   F     0.56482   0.69459   0.88299   0.00000  Uiso   1.00
C721   C     0.56747   0.81537   0.53950   0.00000  Uiso   1.00
H722   H     0.58948   0.83799   0.56462   0.00000  Uiso   1.00
O723   O     0.57259   0.81838   0.99734   0.00000  Uiso   1.00
C724   C     0.42943   0.81056   0.96265   0.00000  Uiso   1.00
H725   H     0.42812   0.81208   0.50079   0.00000  Uiso   1.00
O726   O     0.40027   0.83480   0.93646   0.00000  Uiso   1.00
C727   C     0.83350   0.66382   0.75003   0.00000  Uiso   1.00
C728   C     0.83349   0.83618   0.75001   0.00000  Uiso   1.00
C729   C     0.80350   0.72105   0.54785   0.00000  Uiso   1.00
C730   C     0.86598   0.72266   0.95227   0.00000  Uiso   1.00
C731   C     0.80338   0.72072   0.59755   0.00000  Uiso   1.00
C732   C     0.86571   0.72244   0.90251   0.00000  Uiso   1.00
C733   C     0.86416   0.77993   0.60696   0.00000  Uiso   1.00
C734   C     0.80047   0.77814   0.89299   0.00000  Uiso   1.00
C735   C     0.86588   0.78174   0.55718   0.00000  Uiso   1.00
C736   C     0.79913   0.77966   0.94291   0.00000  Uiso   1.00
C737   C     0.83457   0.75163   0.52673   0.00000  Uiso   1.00
C738   C     0.83289   0.75145   0.97329   0.00000  Uiso   1.00
C739   C     0.73388   0.74890   0.73799   0.00000  Uiso   1.00
C740   C     0.93277   0.75114   0.76202   0.00000  Uiso   1.00
C741   C     0.68004   0.73988   0.73409   0.00000  Uiso   1.00
C742   C     0.98660   0.76015   0.76598   0.00000  Uiso   1.00
C743   C     0.81478   0.54646   0.78633   0.00000  Uiso   1.00
C744   C     0.81535   0.95356   0.70883   0.00000  Uiso   1.00
C745   C     0.81366   0.59240   0.78624   0.00000  Uiso   1.00
C746   C     0.81423   0.90761   0.70862   0.00000  Uiso   1.00
C747   C     0.83441   0.61586   0.75017   0.00000  Uiso   1.00
C748   C     0.83443   0.88416   0.75009   0.00000  Uiso   1.00
C749   C     0.85631   0.59303   0.71438   0.00000  Uiso   1.00
C750   C     0.85583   0.90702   0.79156   0.00000  Uiso   1.00
C751   C     0.85715   0.54707   0.71466   0.00000  Uiso   1.00
C752   C     0.85665   0.95298   0.79150   0.00000  Uiso   1.00
C753   C     0.83637   0.52396   0.75054   0.00000  Uiso   1.00
C754   C     0.83639   0.97607   0.75023   0.00000  Uiso   1.00
H755   H     0.79808   0.52836   0.81377   0.00000  Uiso   1.00
H756   H     0.79907   0.97164   0.67704   0.00000  Uiso   1.00
H757   H     0.87434   0.52946   0.68722   0.00000  Uiso   1.00
H758   H     0.87343   0.97060   0.82340   0.00000  Uiso   1.00
H759   H     0.77916   0.69759   0.52579   0.00000  Uiso   1.00
H760   H     0.89223   0.70062   0.97443   0.00000  Uiso   1.00
H761   H     0.88773   0.80262   0.63067   0.00000  Uiso   1.00
H762   H     0.77524   0.79957   0.86921   0.00000  Uiso   1.00
N763   N     0.83333   0.74999   0.62623   0.00000  Uiso   1.00
N764   N     0.83333   0.75001   0.87376   0.00000  Uiso   1.00
O765   O     0.83334   0.68453   0.78974   0.00000  Uiso   1.00
O766   O     0.83333   0.81547   0.71026   0.00000  Uiso   1.00
O767   O     0.83334   0.68453   0.71026   0.00000  Uiso   1.00
O768   O     0.83333   0.81547   0.78974   0.00000  Uiso   1.00
O769   O     0.75725   0.75000   0.78044   0.00000  Uiso   1.00
O770   O     0.90942   0.75000   0.71955   0.00000  Uiso   1.00
O771   O     0.75725   0.75000   0.70096   0.00000  Uiso   1.00
O772   O     0.90942   0.75000   0.79903   0.00000  Uiso   1.00
Zn773  Zn    0.83333   0.75001   0.80307   0.00000  Uiso   1.00
Zn774  Zn    0.83333   0.75000   0.69693   0.00000  Uiso   1.00
C775   C     0.99351   0.70069   0.70395   0.00000  Uiso   1.00
H776   H     0.95920   0.68239   0.71106   0.00000  Uiso   1.00
O777   O     0.68282   0.68779   0.67136   0.00000  Uiso   1.00
C778   C     0.67308   0.79924   0.79631   0.00000  Uiso   1.00
H779   H     0.70743   0.81757   0.78933   0.00000  Uiso   1.00
O780   O     0.98369   0.81201   0.82892   0.00000  Uiso   1.00
F781   F     0.79122   0.61370   0.82059   0.00000  Uiso   1.00
F782   F     0.79234   0.88632   0.66841   0.00000  Uiso   1.00
F783   F     0.87781   0.61496   0.67983   0.00000  Uiso   1.00
F784   F     0.87687   0.88512   0.83170   0.00000  Uiso   1.00
F785   F     0.77307   0.69095   0.61706   0.00000  Uiso   1.00
F786   F     0.89816   0.69459   0.88299   0.00000  Uiso   1.00
C787   C     0.90081   0.81537   0.53950   0.00000  Uiso   1.00
H788   H     0.92281   0.83799   0.56462   0.00000  Uiso   1.00
O789   O     0.90592   0.81838   0.99734   0.00000  Uiso   1.00
C790   C     0.76276   0.81056   0.96265   0.00000  Uiso   1.00
H791   H     0.76146   0.81208   0.50079   0.00000  Uiso   1.00
O792   O     0.73361   0.83480   0.93646   0.00000  Uiso   1.00
loop_
_geom_bond_atom_site_label_1
_geom_bond_atom_site_label_2
_geom_bond_distance
_geom_bond_site_symmetry_2
_ccdc_geom_bond_type
C1     O41     1.284   .     A
C1     C21     1.441   .     S
C1     O39     1.284   .     A
C2     C22     1.441   .     S
C2     O40     1.284   .     A
C2     O42     1.284   .     A
C3     C5      1.406   .     A
C3     H33     1.083   .     S
C3     C11     1.405   .     A
C4     H34     1.083   .     S
C4     C6      1.406   .     A
C4     C12     1.405   .     A
C5     N37     1.363   .     A
C5     F59     1.354   .     S
C6     N38     1.363   .     A
C6     F60     1.355   .     S
C7     N37     1.363   .     A
C7     H35     1.083   .     S
C7     C9      1.415   .     A
C8     N38     1.363   .     A
C8     C10     1.417   .     A
C8     H36     1.082   .     S
C9     C11     1.422   .     A
C9     C61     1.486   .     S
C10    C12     1.418   .     A
C10    C64     1.484   .     S
C11    C408    1.505   1_554 S
C12    C407    1.505   .     S
C13    O45     1.279   .     A
C13    C15     1.407   .     S
C13    O43     1.267   .     A
C14    O46     1.278   .     A
C14    C16     1.406   .     S
C14    O44     1.268   .     A
C15    C148    1.354   1_455 S
C15    C181    1.502   1_455 S
C16    C81     1.354   .     S
C16    C118    1.502   .     S
C17    H29     1.084   .     S
C17    C27     1.396   .     A
C17    C19     1.380   .     A
C18    H30     1.084   .     S
C18    C28     1.396   .     A
C18    C20     1.380   .     A
C19    C21     1.404   .     A
C19    F55     1.358   .     S
C20    C22     1.405   .     A
C20    F56     1.358   .     S
C21    C23     1.405   .     A
C22    C24     1.405   .     A
C23    C25     1.380   .     A
C23    F57     1.358   .     S
C24    F58     1.358   .     S
C24    C26     1.381   .     A
C25    C27     1.396   .     A
C25    H31     1.084   .     S
C26    C28     1.396   .     A
C26    H32     1.084   .     S
C27    C226    1.438   1_545 S
C28    C225    1.438   .     S
N37    Zn48    1.999   .     S
N38    Zn47    1.999   .     S
O39    Zn47    2.003   .     S
O40    Zn48    2.003   .     S
O41    Zn48    2.002   .     S
O42    Zn47    2.002   .     S
O43    Zn47    1.982   .     S
O44    Zn48    1.982   .     S
O45    Zn48    1.985   .     S
O46    Zn47    1.985   .     S
C49    H50     1.085   .     S
C49    C81     1.502   .     S
C49    O117    1.221   .     S
O51    C181    1.221   1_455 S
C52    H53     1.085   .     S
C52    C148    1.502   1_455 S
C52    O186    1.221   1_455 S
O54    C118    1.221   .     S
C61    H62     1.086   .     S
C61    O459    1.220   1_554 S
O63    C457    1.220   .     S
C64    O66     1.221   .     D
C64    H461    1.085   .     S
H65    C460    1.085   1_554 S
C67    O107    1.284   .     A
C67    C87     1.441   .     S
C67    O105    1.284   .     A
C68    C88     1.441   .     S
C68    O106    1.284   .     A
C68    O108    1.284   .     A
C69    C71     1.406   .     A
C69    H99     1.083   .     S
C69    C77     1.405   .     A
C70    H100    1.083   .     S
C70    C72     1.406   .     A
C70    C78     1.405   .     A
C71    N103    1.363   .     A
C71    F125    1.354   .     S
C72    N104    1.363   .     A
C72    F126    1.355   .     S
C73    N103    1.363   .     A
C73    H101    1.083   .     S
C73    C75     1.415   .     A
C74    N104    1.363   .     A
C74    C76     1.417   .     A
C74    H102    1.082   .     S
C75    C77     1.422   .     A
C75    C127    1.486   .     S
C76    C78     1.418   .     A
C76    C130    1.484   .     S
C77    C474    1.505   1_554 S
C78    C473    1.505   .     S
C79    O111    1.279   .     A
C79    C81     1.407   .     S
C79    O109    1.267   .     A
C80    O112    1.278   .     A
C80    C82     1.406   .     S
C80    O110    1.268   .     A
C82    C147    1.354   .     S
C82    C184    1.502   .     S
C83    H95     1.084   .     S
C83    C93     1.396   .     A
C83    C85     1.380   .     A
C84    H96     1.084   .     S
C84    C94     1.396   .     A
C84    C86     1.380   .     A
C85    C87     1.404   .     A
C85    F121    1.358   .     S
C86    C88     1.405   .     A
C86    F122    1.358   .     S
C87    C89     1.405   .     A
C88    C90     1.405   .     A
C89    C91     1.380   .     A
C89    F123    1.358   .     S
C90    F124    1.358   .     S
C90    C92     1.381   .     A
C91    C93     1.396   .     A
C91    H97     1.084   .     S
C92    C94     1.396   .     A
C92    H98     1.084   .     S
C93    C292    1.438   1_545 S
C94    C291    1.438   .     S
N103   Zn114   1.999   .     S
N104   Zn113   1.999   .     S
O105   Zn113   2.003   .     S
O106   Zn114   2.003   .     S
O107   Zn114   2.002   .     S
O108   Zn113   2.002   .     S
O109   Zn113   1.982   .     S
O110   Zn114   1.982   .     S
O111   Zn114   1.985   .     S
O112   Zn113   1.985   .     S
C115   H116    1.085   .     S
C115   C147    1.502   .     S
C115   O183    1.221   .     S
C118   H119    1.085   .     S
O120   C184    1.221   .     S
C127   H128    1.086   .     S
C127   O525    1.220   1_554 S
O129   C523    1.220   .     S
C130   O132    1.221   .     D
C130   H527    1.085   .     S
H131   C526    1.085   1_554 S
C133   O173    1.284   .     A
C133   C153    1.441   .     S
C133   O171    1.284   .     A
C134   C154    1.441   .     S
C134   O172    1.284   .     A
C134   O174    1.284   .     A
C135   C137    1.406   .     A
C135   H165    1.083   .     S
C135   C143    1.405   .     A
C136   H166    1.083   .     S
C136   C138    1.406   .     A
C136   C144    1.405   .     A
C137   N169    1.363   .     A
C137   F191    1.354   .     S
C138   N170    1.363   .     A
C138   F192    1.355   .     S
C139   N169    1.363   .     A
C139   H167    1.083   .     S
C139   C141    1.415   .     A
C140   N170    1.363   .     A
C140   C142    1.417   .     A
C140   H168    1.082   .     S
C141   C143    1.422   .     A
C141   C193    1.486   .     S
C142   C144    1.418   .     A
C142   C196    1.484   .     S
C143   C540    1.505   1_554 S
C144   C539    1.505   .     S
C145   O177    1.279   .     A
C145   C147    1.407   .     S
C145   O175    1.267   .     A
C146   O178    1.278   .     A
C146   C148    1.406   .     S
C146   O176    1.268   .     A
C148   C15     1.354   1_655 S
C148   C52     1.502   1_655 S
C149   H161    1.084   .     S
C149   C159    1.396   .     A
C149   C151    1.380   .     A
C150   H162    1.084   .     S
C150   C160    1.396   .     A
C150   C152    1.380   .     A
C151   C153    1.404   .     A
C151   F187    1.358   .     S
C152   C154    1.405   .     A
C152   F188    1.358   .     S
C153   C155    1.405   .     A
C154   C156    1.405   .     A
C155   C157    1.380   .     A
C155   F189    1.358   .     S
C156   F190    1.358   .     S
C156   C158    1.381   .     A
C157   C159    1.396   .     A
C157   H163    1.084   .     S
C158   C160    1.396   .     A
C158   H164    1.084   .     S
C159   C358    1.438   1_545 S
C160   C357    1.438   .     S
N169   Zn180   1.999   .     S
N170   Zn179   1.999   .     S
O171   Zn179   2.003   .     S
O172   Zn180   2.003   .     S
O173   Zn180   2.002   .     S
O174   Zn179   2.002   .     S
O175   Zn179   1.982   .     S
O176   Zn180   1.982   .     S
O177   Zn180   1.985   .     S
O178   Zn179   1.985   .     S
C181   H182    1.085   .     S
C181   C15     1.502   1_655 S
C181   O51     1.221   1_655 S
C184   H185    1.085   .     S
O186   C52     1.221   1_655 S
C193   H194    1.086   .     S
C193   O591    1.220   1_554 S
O195   C589    1.220   .     S
C196   O198    1.221   .     D
C196   H593    1.085   .     S
H197   C592    1.085   1_554 S
C199   O239    1.284   .     A
C199   C219    1.441   .     S
C199   O237    1.284   .     A
C200   C220    1.441   .     S
C200   O238    1.284   .     A
C200   O240    1.284   .     A
C201   C203    1.406   .     A
C201   H231    1.083   .     S
C201   C209    1.405   .     A
C202   H232    1.083   .     S
C202   C204    1.406   .     A
C202   C210    1.405   .     A
C203   N235    1.363   .     A
C203   F257    1.354   .     S
C204   N236    1.363   .     A
C204   F258    1.355   .     S
C205   N235    1.363   .     A
C205   H233    1.083   .     S
C205   C207    1.415   .     A
C206   N236    1.363   .     A
C206   C208    1.417   .     A
C206   H234    1.082   .     S
C207   C209    1.422   .     A
C207   C259    1.486   .     S
C208   C210    1.418   .     A
C208   C262    1.484   .     S
C209   C606    1.505   1_554 S
C210   C605    1.505   .     S
C211   O243    1.279   .     A
C211   C213    1.407   .     S
C211   O241    1.267   .     A
C212   O244    1.278   .     A
C212   C214    1.406   .     S
C212   O242    1.268   .     A
C213   C346    1.354   1_455 S
C213   C379    1.502   1_455 S
C214   C279    1.354   .     S
C214   C316    1.502   .     S
C215   H227    1.084   .     S
C215   C225    1.396   .     A
C215   C217    1.380   .     A
C216   H228    1.084   .     S
C216   C226    1.396   .     A
C216   C218    1.380   .     A
C217   C219    1.404   .     A
C217   F253    1.358   .     S
C218   C220    1.405   .     A
C218   F254    1.358   .     S
C219   C221    1.405   .     A
C220   C222    1.405   .     A
C221   C223    1.380   .     A
C221   F255    1.358   .     S
C222   F256    1.358   .     S
C222   C224    1.381   .     A
C223   C225    1.396   .     A
C223   H229    1.084   .     S
C224   C226    1.396   .     A
C224   H230    1.084   .     S
C226   C27     1.438   1_565 S
N235   Zn246   1.999   .     S
N236   Zn245   1.999   .     S
O237   Zn245   2.003   .     S
O238   Zn246   2.003   .     S
O239   Zn246   2.002   .     S
O240   Zn245   2.002   .     S
O241   Zn245   1.982   .     S
O242   Zn246   1.982   .     S
O243   Zn246   1.985   .     S
O244   Zn245   1.985   .     S
C247   H248    1.085   .     S
C247   C279    1.502   .     S
C247   O315    1.221   .     S
O249   C379    1.221   1_455 S
C250   H251    1.085   .     S
C250   C346    1.502   1_455 S
C250   O384    1.221   1_455 S
O252   C316    1.221   .     S
C259   H260    1.086   .     S
C259   O657    1.220   1_554 S
O261   C655    1.220   .     S
C262   O264    1.221   .     D
C262   H659    1.085   .     S
H263   C658    1.085   1_554 S
C265   O305    1.284   .     A
C265   C285    1.441   .     S
C265   O303    1.284   .     A
C266   C286    1.441   .     S
C266   O304    1.284   .     A
C266   O306    1.284   .     A
C267   C269    1.406   .     A
C267   H297    1.083   .     S
C267   C275    1.405   .     A
C268   H298    1.083   .     S
C268   C270    1.406   .     A
C268   C276    1.405   .     A
C269   N301    1.363   .     A
C269   F323    1.354   .     S
C270   N302    1.363   .     A
C270   F324    1.355   .     S
C271   N301    1.363   .     A
C271   H299    1.083   .     S
C271   C273    1.415   .     A
C272   N302    1.363   .     A
C272   C274    1.417   .     A
C272   H300    1.082   .     S
C273   C275    1.422   .     A
C273   C325    1.486   .     S
C274   C276    1.418   .     A
C274   C328    1.484   .     S
C275   C672    1.505   1_554 S
C276   C671    1.505   .     S
C277   O309    1.279   .     A
C277   C279    1.407   .     S
C277   O307    1.267   .     A
C278   O310    1.278   .     A
C278   C280    1.406   .     S
C278   O308    1.268   .     A
C280   C345    1.354   .     S
C280   C382    1.502   .     S
C281   H293    1.084   .     S
C281   C291    1.396   .     A
C281   C283    1.380   .     A
C282   H294    1.084   .     S
C282   C292    1.396   .     A
C282   C284    1.380   .     A
C283   C285    1.404   .     A
C283   F319    1.358   .     S
C284   C286    1.405   .     A
C284   F320    1.358   .     S
C285   C287    1.405   .     A
C286   C288    1.405   .     A
C287   C289    1.380   .     A
C287   F321    1.358   .     S
C288   F322    1.358   .     S
C288   C290    1.381   .     A
C289   C291    1.396   .     A
C289   H295    1.084   .     S
C290   C292    1.396   .     A
C290   H296    1.084   .     S
C292   C93     1.438   1_565 S
N301   Zn312   1.999   .     S
N302   Zn311   1.999   .     S
O303   Zn311   2.003   .     S
O304   Zn312   2.003   .     S
O305   Zn312   2.002   .     S
O306   Zn311   2.002   .     S
O307   Zn311   1.982   .     S
O308   Zn312   1.982   .     S
O309   Zn312   1.985   .     S
O310   Zn311   1.985   .     S
C313   H314    1.085   .     S
C313   C345    1.502   .     S
C313   O381    1.221   .     S
C316   H317    1.085   .     S
O318   C382    1.221   .     S
C325   H326    1.086   .     S
C325   O723    1.220   1_554 S
O327   C721    1.220   .     S
C328   O330    1.221   .     D
C328   H725    1.085   .     S
H329   C724    1.085   1_554 S
C331   O371    1.284   .     A
C331   C351    1.441   .     S
C331   O369    1.284   .     A
C332   C352    1.441   .     S
C332   O370    1.284   .     A
C332   O372    1.284   .     A
C333   C335    1.406   .     A
C333   H363    1.083   .     S
C333   C341    1.405   .     A
C334   H364    1.083   .     S
C334   C336    1.406   .     A
C334   C342    1.405   .     A
C335   N367    1.363   .     A
C335   F389    1.354   .     S
C336   N368    1.363   .     A
C336   F390    1.355   .     S
C337   N367    1.363   .     A
C337   H365    1.083   .     S
C337   C339    1.415   .     A
C338   N368    1.363   .     A
C338   C340    1.417   .     A
C338   H366    1.082   .     S
C339   C341    1.422   .     A
C339   C391    1.486   .     S
C340   C342    1.418   .     A
C340   C394    1.484   .     S
C341   C738    1.505   1_554 S
C342   C737    1.505   .     S
C343   O375    1.279   .     A
C343   C345    1.407   .     S
C343   O373    1.267   .     A
C344   O376    1.278   .     A
C344   C346    1.406   .     S
C344   O374    1.268   .     A
C346   C213    1.354   1_655 S
C346   C250    1.502   1_655 S
C347   H359    1.084   .     S
C347   C357    1.396   .     A
C347   C349    1.380   .     A
C348   H360    1.084   .     S
C348   C358    1.396   .     A
C348   C350    1.380   .     A
C349   C351    1.404   .     A
C349   F385    1.358   .     S
C350   C352    1.405   .     A
C350   F386    1.358   .     S
C351   C353    1.405   .     A
C352   C354    1.405   .     A
C353   C355    1.380   .     A
C353   F387    1.358   .     S
C354   F388    1.358   .     S
C354   C356    1.381   .     A
C355   C357    1.396   .     A
C355   H361    1.084   .     S
C356   C358    1.396   .     A
C356   H362    1.084   .     S
C358   C159    1.438   1_565 S
N367   Zn378   1.999   .     S
N368   Zn377   1.999   .     S
O369   Zn377   2.003   .     S
O370   Zn378   2.003   .     S
O371   Zn378   2.002   .     S
O372   Zn377   2.002   .     S
O373   Zn377   1.982   .     S
O374   Zn378   1.982   .     S
O375   Zn378   1.985   .     S
O376   Zn377   1.985   .     S
C379   H380    1.085   .     S
C379   C213    1.502   1_655 S
C379   O249    1.221   1_655 S
C382   H383    1.085   .     S
O384   C250    1.221   1_655 S
C391   H392    1.086   .     S
C391   O789    1.220   1_554 S
O393   C787    1.220   .     S
C394   O396    1.221   .     D
C394   H791    1.085   .     S
H395   C790    1.085   1_554 S
C397   O437    1.284   .     A
C397   C417    1.441   .     S
C397   O435    1.284   .     A
C398   C418    1.441   .     S
C398   O436    1.284   .     A
C398   O438    1.284   .     A
C399   C401    1.406   .     A
C399   H429    1.083   .     S
C399   C407    1.405   .     A
C400   H430    1.083   .     S
C400   C402    1.406   .     A
C400   C408    1.405   .     A
C401   N433    1.363   .     A
C401   F455    1.354   .     S
C402   N434    1.363   .     A
C402   F456    1.355   .     S
C403   N433    1.363   .     A
C403   H431    1.083   .     S
C403   C405    1.415   .     A
C404   N434    1.363   .     A
C404   C406    1.417   .     A
C404   H432    1.082   .     S
C405   C407    1.422   .     A
C405   C457    1.486   .     S
C406   C408    1.418   .     A
C406   C460    1.484   .     S
C408   C11     1.505   1_556 S
C409   O441    1.279   .     A
C409   C411    1.407   .     S
C409   O439    1.267   .     A
C410   O442    1.278   .     A
C410   C412    1.406   .     S
C410   O440    1.268   .     A
C411   C544    1.354   1_455 S
C411   C577    1.502   1_455 S
C412   C477    1.354   .     S
C412   C514    1.502   .     S
C413   H425    1.084   .     S
C413   C423    1.396   .     A
C413   C415    1.380   .     A
C414   H426    1.084   .     S
C414   C424    1.396   .     A
C414   C416    1.380   .     A
C415   C417    1.404   .     A
C415   F451    1.358   .     S
C416   C418    1.405   .     A
C416   F452    1.358   .     S
C417   C419    1.405   .     A
C418   C420    1.405   .     A
C419   C421    1.380   .     A
C419   F453    1.358   .     S
C420   F454    1.358   .     S
C420   C422    1.381   .     A
C421   C423    1.396   .     A
C421   H427    1.084   .     S
C422   C424    1.396   .     A
C422   H428    1.084   .     S
C423   C622    1.438   1_545 S
C424   C621    1.438   .     S
N433   Zn444   1.999   .     S
N434   Zn443   1.999   .     S
O435   Zn443   2.003   .     S
O436   Zn444   2.003   .     S
O437   Zn444   2.002   .     S
O438   Zn443   2.002   .     S
O439   Zn443   1.982   .     S
O440   Zn444   1.982   .     S
O441   Zn444   1.985   .     S
O442   Zn443   1.985   .     S
C445   H446    1.085   .     S
C445   C477    1.502   .     S
C445   O513    1.221   .     S
O447   C577    1.221   1_455 S
C448   H449    1.085   .     S
C448   C544    1.502   1_455 S
C448   O582    1.221   1_455 S
O450   C514    1.221   .     S
C457   H458    1.086   .     S
O459   C61     1.220   1_556 S
C460   O462    1.221   .     D
C460   H65     1.085   1_556 S
C463   O503    1.284   .     A
C463   C483    1.441   .     S
C463   O501    1.284   .     A
C464   C484    1.441   .     S
C464   O502    1.284   .     A
C464   O504    1.284   .     A
C465   C467    1.406   .     A
C465   H495    1.083   .     S
C465   C473    1.405   .     A
C466   H496    1.083   .     S
C466   C468    1.406   .     A
C466   C474    1.405   .     A
C467   N499    1.363   .     A
C467   F521    1.354   .     S
C468   N500    1.363   .     A
C468   F522    1.355   .     S
C469   N499    1.363   .     A
C469   H497    1.083   .     S
C469   C471    1.415   .     A
C470   N500    1.363   .     A
C470   C472    1.417   .     A
C470   H498    1.082   .     S
C471   C473    1.422   .     A
C471   C523    1.486   .     S
C472   C474    1.418   .     A
C472   C526    1.484   .     S
C474   C77     1.505   1_556 S
C475   O507    1.279   .     A
C475   C477    1.407   .     S
C475   O505    1.267   .     A
C476   O508    1.278   .     A
C476   C478    1.406   .     S
C476   O506    1.268   .     A
C478   C543    1.354   .     S
C478   C580    1.502   .     S
C479   H491    1.084   .     S
C479   C489    1.396   .     A
C479   C481    1.380   .     A
C480   H492    1.084   .     S
C480   C490    1.396   .     A
C480   C482    1.380   .     A
C481   C483    1.404   .     A
C481   F517    1.358   .     S
C482   C484    1.405   .     A
C482   F518    1.358   .     S
C483   C485    1.405   .     A
C484   C486    1.405   .     A
C485   C487    1.380   .     A
C485   F519    1.358   .     S
C486   F520    1.358   .     S
C486   C488    1.381   .     A
C487   C489    1.396   .     A
C487   H493    1.084   .     S
C488   C490    1.396   .     A
C488   H494    1.084   .     S
C489   C688    1.438   1_545 S
C490   C687    1.438   .     S
N499   Zn510   1.999   .     S
N500   Zn509   1.999   .     S
O501   Zn509   2.003   .     S
O502   Zn510   2.003   .     S
O503   Zn510   2.002   .     S
O504   Zn509   2.002   .     S
O505   Zn509   1.982   .     S
O506   Zn510   1.982   .     S
O507   Zn510   1.985   .     S
O508   Zn509   1.985   .     S
C511   H512    1.085   .     S
C511   C543    1.502   .     S
C511   O579    1.221   .     S
C514   H515    1.085   .     S
O516   C580    1.221   .     S
C523   H524    1.086   .     S
O525   C127    1.220   1_556 S
C526   O528    1.221   .     D
C526   H131    1.085   1_556 S
C529   O569    1.284   .     A
C529   C549    1.441   .     S
C529   O567    1.284   .     A
C530   C550    1.441   .     S
C530   O568    1.284   .     A
C530   O570    1.284   .     A
C531   C533    1.406   .     A
C531   H561    1.083   .     S
C531   C539    1.405   .     A
C532   H562    1.083   .     S
C532   C534    1.406   .     A
C532   C540    1.405   .     A
C533   N565    1.363   .     A
C533   F587    1.354   .     S
C534   N566    1.363   .     A
C534   F588    1.355   .     S
C535   N565    1.363   .     A
C535   H563    1.083   .     S
C535   C537    1.415   .     A
C536   N566    1.363   .     A
C536   C538    1.417   .     A
C536   H564    1.082   .     S
C537   C539    1.422   .     A
C537   C589    1.486   .     S
C538   C540    1.418   .     A
C538   C592    1.484   .     S
C540   C143    1.505   1_556 S
C541   O573    1.279   .     A
C541   C543    1.407   .     S
C541   O571    1.267   .     A
C542   O574    1.278   .     A
C542   C544    1.406   .     S
C542   O572    1.268   .     A
C544   C411    1.354   1_655 S
C544   C448    1.502   1_655 S
C545   H557    1.084   .     S
C545   C555    1.396   .     A
C545   C547    1.380   .     A
C546   H558    1.084   .     S
C546   C556    1.396   .     A
C546   C548    1.380   .     A
C547   C549    1.404   .     A
C547   F583    1.358   .     S
C548   C550    1.405   .     A
C548   F584    1.358   .     S
C549   C551    1.405   .     A
C550   C552    1.405   .     A
C551   C553    1.380   .     A
C551   F585    1.358   .     S
C552   F586    1.358   .     S
C552   C554    1.381   .     A
C553   C555    1.396   .     A
C553   H559    1.084   .     S
C554   C556    1.396   .     A
C554   H560    1.084   .     S
C555   C754    1.438   1_545 S
C556   C753    1.438   .     S
N565   Zn576   1.999   .     S
N566   Zn575   1.999   .     S
O567   Zn575   2.003   .     S
O568   Zn576   2.003   .     S
O569   Zn576   2.002   .     S
O570   Zn575   2.002   .     S
O571   Zn575   1.982   .     S
O572   Zn576   1.982   .     S
O573   Zn576   1.985   .     S
O574   Zn575   1.985   .     S
C577   H578    1.085   .     S
C577   C411    1.502   1_655 S
C577   O447    1.221   1_655 S
C580   H581    1.085   .     S
O582   C448    1.221   1_655 S
C589   H590    1.086   .     S
O591   C193    1.220   1_556 S
C592   O594    1.221   .     D
C592   H197    1.085   1_556 S
C595   O635    1.284   .     A
C595   C615    1.441   .     S
C595   O633    1.284   .     A
C596   C616    1.441   .     S
C596   O634    1.284   .     A
C596   O636    1.284   .     A
C597   C599    1.406   .     A
C597   H627    1.083   .     S
C597   C605    1.405   .     A
C598   H628    1.083   .     S
C598   C600    1.406   .     A
C598   C606    1.405   .     A
C599   N631    1.363   .     A
C599   F653    1.354   .     S
C600   N632    1.363   .     A
C600   F654    1.355   .     S
C601   N631    1.363   .     A
C601   H629    1.083   .     S
C601   C603    1.415   .     A
C602   N632    1.363   .     A
C602   C604    1.417   .     A
C602   H630    1.082   .     S
C603   C605    1.422   .     A
C603   C655    1.486   .     S
C604   C606    1.418   .     A
C604   C658    1.484   .     S
C606   C209    1.505   1_556 S
C607   O639    1.279   .     A
C607   C609    1.407   .     S
C607   O637    1.267   .     A
C608   O640    1.278   .     A
C608   C610    1.406   .     S
C608   O638    1.268   .     A
C609   C742    1.354   1_455 S
C609   C775    1.502   1_455 S
C610   C675    1.354   .     S
C610   C712    1.502   .     S
C611   H623    1.084   .     S
C611   C621    1.396   .     A
C611   C613    1.380   .     A
C612   H624    1.084   .     S
C612   C622    1.396   .     A
C612   C614    1.380   .     A
C613   C615    1.404   .     A
C613   F649    1.358   .     S
C614   C616    1.405   .     A
C614   F650    1.358   .     S
C615   C617    1.405   .     A
C616   C618    1.405   .     A
C617   C619    1.380   .     A
C617   F651    1.358   .     S
C618   F652    1.358   .     S
C618   C620    1.381   .     A
C619   C621    1.396   .     A
C619   H625    1.084   .     S
C620   C622    1.396   .     A
C620   H626    1.084   .     S
C622   C423    1.438   1_565 S
N631   Zn642   1.999   .     S
N632   Zn641   1.999   .     S
O633   Zn641   2.003   .     S
O634   Zn642   2.003   .     S
O635   Zn642   2.002   .     S
O636   Zn641   2.002   .     S
O637   Zn641   1.982   .     S
O638   Zn642   1.982   .     S
O639   Zn642   1.985   .     S
O640   Zn641   1.985   .     S
C643   H644    1.085   .     S
C643   C675    1.502   .     S
C643   O711    1.221   .     S
O645   C775    1.221   1_455 S
C646   H647    1.085   .     S
C646   C742    1.502   1_455 S
C646   O780    1.221   1_455 S
O648   C712    1.221   .     S
C655   H656    1.086   .     S
O657   C259    1.220   1_556 S
C658   O660    1.221   .     D
C658   H263    1.085   1_556 S
C661   O701    1.284   .     A
C661   C681    1.441   .     S
C661   O699    1.284   .     A
C662   C682    1.441   .     S
C662   O700    1.284   .     A
C662   O702    1.284   .     A
C663   C665    1.406   .     A
C663   H693    1.083   .     S
C663   C671    1.405   .     A
C664   H694    1.083   .     S
C664   C666    1.406   .     A
C664   C672    1.405   .     A
C665   N697    1.363   .     A
C665   F719    1.354   .     S
C666   N698    1.363   .     A
C666   F720    1.355   .     S
C667   N697    1.363   .     A
C667   H695    1.083   .     S
C667   C669    1.415   .     A
C668   N698    1.363   .     A
C668   C670    1.417   .     A
C668   H696    1.082   .     S
C669   C671    1.422   .     A
C669   C721    1.486   .     S
C670   C672    1.418   .     A
C670   C724    1.484   .     S
C672   C275    1.505   1_556 S
C673   O705    1.279   .     A
C673   C675    1.407   .     S
C673   O703    1.267   .     A
C674   O706    1.278   .     A
C674   C676    1.406   .     S
C674   O704    1.268   .     A
C676   C741    1.354   .     S
C676   C778    1.502   .     S
C677   H689    1.084   .     S
C677   C687    1.396   .     A
C677   C679    1.380   .     A
C678   H690    1.084   .     S
C678   C688    1.396   .     A
C678   C680    1.380   .     A
C679   C681    1.404   .     A
C679   F715    1.358   .     S
C680   C682    1.405   .     A
C680   F716    1.358   .     S
C681   C683    1.405   .     A
C682   C684    1.405   .     A
C683   C685    1.380   .     A
C683   F717    1.358   .     S
C684   F718    1.358   .     S
C684   C686    1.381   .     A
C685   C687    1.396   .     A
C685   H691    1.084   .     S
C686   C688    1.396   .     A
C686   H692    1.084   .     S
C688   C489    1.438   1_565 S
N697   Zn708   1.999   .     S
N698   Zn707   1.999   .     S
O699   Zn707   2.003   .     S
O700   Zn708   2.003   .     S
O701   Zn708   2.002   .     S
O702   Zn707   2.002   .     S
O703   Zn707   1.982   .     S
O704   Zn708   1.982   .     S
O705   Zn708   1.985   .     S
O706   Zn707   1.985   .     S
C709   H710    1.085   .     S
C709   C741    1.502   .     S
C709   O777    1.221   .     S
C712   H713    1.085   .     S
O714   C778    1.221   .     S
C721   H722    1.086   .     S
O723   C325    1.220   1_556 S
C724   O726    1.221   .     D
C724   H329    1.085   1_556 S
C727   O767    1.284   .     A
C727   C747    1.441   .     S
C727   O765    1.284   .     A
C728   C748    1.441   .     S
C728   O766    1.284   .     A
C728   O768    1.284   .     A
C729   C731    1.406   .     A
C729   H759    1.083   .     S
C729   C737    1.405   .     A
C730   H760    1.083   .     S
C730   C732    1.406   .     A
C730   C738    1.405   .     A
C731   N763    1.363   .     A
C731   F785    1.354   .     S
C732   N764    1.363   .     A
C732   F786    1.355   .     S
C733   N763    1.363   .     A
C733   H761    1.083   .     S
C733   C735    1.415   .     A
C734   N764    1.363   .     A
C734   C736    1.417   .     A
C734   H762    1.082   .     S
C735   C737    1.422   .     A
C735   C787    1.486   .     S
C736   C738    1.418   .     A
C736   C790    1.484   .     S
C738   C341    1.505   1_556 S
C739   O771    1.279   .     A
C739   C741    1.407   .     S
C739   O769    1.267   .     A
C740   O772    1.278   .     A
C740   C742    1.406   .     S
C740   O770    1.268   .     A
C742   C609    1.354   1_655 S
C742   C646    1.502   1_655 S
C743   H755    1.084   .     S
C743   C753    1.396   .     A
C743   C745    1.380   .     A
C744   H756    1.084   .     S
C744   C754    1.396   .     A
C744   C746    1.380   .     A
C745   C747    1.404   .     A
C745   F781    1.358   .     S
C746   C748    1.405   .     A
C746   F782    1.358   .     S
C747   C749    1.405   .     A
C748   C750    1.405   .     A
C749   C751    1.380   .     A
C749   F783    1.358   .     S
C750   F784    1.358   .     S
C750   C752    1.381   .     A
C751   C753    1.396   .     A
C751   H757    1.084   .     S
C752   C754    1.396   .     A
C752   H758    1.084   .     S
C754   C555    1.438   1_565 S
N763   Zn774   1.999   .     S
N764   Zn773   1.999   .     S
O765   Zn773   2.003   .     S
O766   Zn774   2.003   .     S
O767   Zn774   2.002   .     S
O768   Zn773   2.002   .     S
O769   Zn773   1.982   .     S
O770   Zn774   1.982   .     S
O771   Zn774   1.985   .     S
O772   Zn773   1.985   .     S
C775   H776    1.085   .     S
C775   C609    1.502   1_655 S
C775   O645    1.221   1_655 S
C778   H779    1.085   .     S
O780   C646    1.221   1_655 S
C787   H788    1.086   .     S
O789   C391    1.220   1_556 S
C790   O792    1.221   .     D
C790   H395    1.085   1_556 S
