data_str_m3_o2_o5_pcu_sym.76
_audit_creation_date              2020-01-03
_audit_creation_method            'Materials Studio'
_symmetry_space_group_name_H-M    'P1'
_symmetry_Int_Tables_number       1
_symmetry_cell_setting            triclinic
loop_
_symmetry_equiv_pos_as_xyz
  x,y,z
_cell_length_a                    29.6444
_cell_length_b                    28.7180
_cell_length_c                    26.8450
_cell_angle_alpha                 90.3191
_cell_angle_beta                  92.9200
_cell_angle_gamma                 91.5551
loop_
_atom_site_label
_atom_site_type_symbol
_atom_site_fract_x
_atom_site_fract_y
_atom_site_fract_z
_atom_site_U_iso_or_equiv
_atom_site_adp_type
_atom_site_occupancy
C1     C     0.16392   0.24966   0.17106   0.00000  Uiso   1.00
C2     C     0.21119   0.44605   0.15689   0.00000  Uiso   1.00
C3     C     0.24973   0.24992   0.07294   0.00000  Uiso   1.00
C4     C     0.25020   0.25009   0.26038   0.00000  Uiso   1.00
C5     C     0.25121   0.02684   0.16902   0.00000  Uiso   1.00
C6     C     0.25101   0.47319   0.17016   0.00000  Uiso   1.00
C7     C     0.24989   0.24990   0.02178   0.00000  Uiso   1.00
C8     C     0.25006   0.25014   0.31155   0.00000  Uiso   1.00
C9     C     0.05215   0.29731   0.15485   0.00000  Uiso   1.00
C10    C     0.45145   0.22055   0.12127   0.00000  Uiso   1.00
C11    C     0.44935   0.29961   0.15505   0.00000  Uiso   1.00
C12    C     0.33500   0.25068   0.15898   0.00000  Uiso   1.00
C13    C     0.04029   0.21676   0.18027   0.00000  Uiso   1.00
C14    C     0.09525   0.29477   0.17622   0.00000  Uiso   1.00
C15    C     0.40454   0.21554   0.12605   0.00000  Uiso   1.00
C16    C     0.40343   0.29779   0.14426   0.00000  Uiso   1.00
C17    C     0.08737   0.21136   0.18331   0.00000  Uiso   1.00
C18    C     0.11524   0.25102   0.17755   0.00000  Uiso   1.00
C19    C     0.38148   0.25391   0.14362   0.00000  Uiso   1.00
C20    C     0.02280   0.25814   0.15882   0.00000  Uiso   1.00
C21    C     0.47450   0.26020   0.14361   0.00000  Uiso   1.00
C22    C     0.04751   0.33504   0.08079   0.00000  Uiso   1.00
C23    C     0.22556   0.10049   0.13137   0.00000  Uiso   1.00
C24    C     0.04612   0.38344   0.05820   0.00000  Uiso   1.00
C25    C     0.49554   0.19750   0.05841   0.00000  Uiso   1.00
C26    C     0.02184   0.15673   0.03973   0.00000  Uiso   1.00
C27    C     0.46548   0.33673   0.22888   0.00000  Uiso   1.00
C28    C     0.48807   0.37985   0.25321   0.00000  Uiso   1.00
C29    C     0.49094   0.19194   0.23787   0.00000  Uiso   1.00
C30    C     0.46570   0.14903   0.25615   0.00000  Uiso   1.00
C31    C     0.12162   0.32760   0.24937   0.00000  Uiso   1.00
C32    C     0.14485   0.36978   0.27470   0.00000  Uiso   1.00
C33    C     0.38411   0.13811   0.13047   0.00000  Uiso   1.00
C34    C     0.28639   0.39836   0.18775   0.00000  Uiso   1.00
C35    C     0.35278   0.10088   0.10586   0.00000  Uiso   1.00
C36    C     0.36888   0.33632   0.08030   0.00000  Uiso   1.00
C37    C     0.34673   0.38103   0.06317   0.00000  Uiso   1.00
C38    C     0.09907   0.13573   0.16350   0.00000  Uiso   1.00
C39    C     0.12166   0.09192   0.18175   0.00000  Uiso   1.00
C40    C     0.22069   0.01088   0.05804   0.00000  Uiso   1.00
C41    C     0.18793   0.48476   0.02155   0.00000  Uiso   1.00
C42    C     0.36097   0.46466   0.15690   0.00000  Uiso   1.00
C43    C     0.40541   0.49007   0.17160   0.00000  Uiso   1.00
C44    C     0.28302   0.02063   0.28110   0.00000  Uiso   1.00
C45    C     0.27595   0.10411   0.20225   0.00000  Uiso   1.00
C46    C     0.31667   0.49722   0.31703   0.00000  Uiso   1.00
C47    C     0.15469   0.47654   0.20054   0.00000  Uiso   1.00
C48    C     0.10348   0.47077   0.20050   0.00000  Uiso   1.00
C49    C     0.21403   0.39791   0.14774   0.00000  Uiso   1.00
C50    C     0.22555   0.05129   0.13151   0.00000  Uiso   1.00
C51    C     0.29029   0.44732   0.18270   0.00000  Uiso   1.00
C52    C     0.27660   0.05514   0.20490   0.00000  Uiso   1.00
Cl53   Cl    0.19335   0.12841   0.08423   0.00000  Uiso   1.00
Cl54   Cl    0.32763   0.37045   0.22532   0.00000  Uiso   1.00
Cl55   Cl    0.31103   0.13636   0.24550   0.00000  Uiso   1.00
Cl56   Cl    0.17096   0.37037   0.11013   0.00000  Uiso   1.00
H57    H     0.02078   0.31268   0.06140   0.00000  Uiso   1.00
H58    H     0.04679   0.14563   0.06909   0.00000  Uiso   1.00
H59    H     0.48310   0.30564   0.24396   0.00000  Uiso   1.00
H60    H     0.42951   0.33511   0.23910   0.00000  Uiso   1.00
H61    H     0.47166   0.41164   0.23863   0.00000  Uiso   1.00
H62    H     0.48479   0.37848   0.29417   0.00000  Uiso   1.00
H63    H     0.02447   0.38160   0.24516   0.00000  Uiso   1.00
H64    H     0.46584   0.21942   0.23065   0.00000  Uiso   1.00
H65    H     0.01594   0.20432   0.26769   0.00000  Uiso   1.00
H66    H     0.44127   0.13557   0.22650   0.00000  Uiso   1.00
H67    H     0.44681   0.15802   0.28936   0.00000  Uiso   1.00
H68    H     0.08130   0.32066   0.07411   0.00000  Uiso   1.00
H69    H     0.48994   0.12136   0.26610   0.00000  Uiso   1.00
H70    H     0.14295   0.29718   0.25860   0.00000  Uiso   1.00
H71    H     0.08804   0.32208   0.26565   0.00000  Uiso   1.00
H72    H     0.12260   0.40011   0.27157   0.00000  Uiso   1.00
H73    H     0.15164   0.36253   0.31494   0.00000  Uiso   1.00
H74    H     0.17751   0.37753   0.25758   0.00000  Uiso   1.00
H75    H     0.37398   0.14369   0.16929   0.00000  Uiso   1.00
H76    H     0.41913   0.12519   0.13149   0.00000  Uiso   1.00
H77    H     0.36576   0.09018   0.06957   0.00000  Uiso   1.00
H78    H     0.35040   0.07001   0.13020   0.00000  Uiso   1.00
H79    H     0.05409   0.38159   0.01828   0.00000  Uiso   1.00
H80    H     0.31841   0.11467   0.09914   0.00000  Uiso   1.00
H81    H     0.34418   0.30714   0.07157   0.00000  Uiso   1.00
H82    H     0.39920   0.33160   0.05800   0.00000  Uiso   1.00
H83    H     0.31757   0.38838   0.08606   0.00000  Uiso   1.00
H84    H     0.37172   0.41053   0.06580   0.00000  Uiso   1.00
H85    H     0.33427   0.37727   0.02359   0.00000  Uiso   1.00
H86    H     0.11409   0.14700   0.12829   0.00000  Uiso   1.00
H87    H     0.06269   0.12683   0.15574   0.00000  Uiso   1.00
H88    H     0.10272   0.07646   0.21253   0.00000  Uiso   1.00
H89    H     0.12222   0.06649   0.15053   0.00000  Uiso   1.00
H90    H     0.01197   0.39789   0.06119   0.00000  Uiso   1.00
H91    H     0.15678   0.10020   0.19593   0.00000  Uiso   1.00
H92    H     0.24653   0.48616   0.07189   0.00000  Uiso   1.00
H93    H     0.23727   0.04008   0.03852   0.00000  Uiso   1.00
H94    H     0.16496   0.00956   0.00228   0.00000  Uiso   1.00
H95    H     0.20674   0.46594   0.32675   0.00000  Uiso   1.00
H96    H     0.16746   0.45876   0.04176   0.00000  Uiso   1.00
H97    H     0.34655   0.47985   0.12164   0.00000  Uiso   1.00
H98    H     0.36868   0.42753   0.15118   0.00000  Uiso   1.00
H99    H     0.42163   0.47340   0.20489   0.00000  Uiso   1.00
H100   H     0.42852   0.48849   0.14040   0.00000  Uiso   1.00
H101   H     0.07149   0.40694   0.07812   0.00000  Uiso   1.00
H102   H     0.39956   0.02706   0.18079   0.00000  Uiso   1.00
H103   H     0.25597   0.49467   0.26950   0.00000  Uiso   1.00
H104   H     0.26816   0.05058   0.30009   0.00000  Uiso   1.00
H105   H     0.34140   0.02350   0.00004   0.00000  Uiso   1.00
H106   H     0.29907   0.47981   0.01409   0.00000  Uiso   1.00
H107   H     0.33514   0.47027   0.29709   0.00000  Uiso   1.00
H108   H     0.16475   0.01314   0.20978   0.00000  Uiso   1.00
H109   H     0.16960   0.45450   0.23077   0.00000  Uiso   1.00
H110   H     0.08723   0.49281   0.17131   0.00000  Uiso   1.00
H111   H     0.09156   0.48102   0.23745   0.00000  Uiso   1.00
H112   H     0.01994   0.22710   0.06554   0.00000  Uiso   1.00
H113   H     0.09322   0.43387   0.19264   0.00000  Uiso   1.00
H114   H     0.46988   0.20746   0.02894   0.00000  Uiso   1.00
H115   H     0.49843   0.12689   0.02986   0.00000  Uiso   1.00
H116   H     0.04045   0.16706   0.00659   0.00000  Uiso   1.00
N117   N     0.25000   0.12623   0.16667   0.00000  Uiso   1.00
N118   N     0.25000   0.37376   0.16667   0.00000  Uiso   1.00
O119   O     0.18453   0.28974   0.16667   0.00000  Uiso   1.00
O120   O     0.47437   0.18368   0.10204   0.00000  Uiso   1.00
O121   O     0.46849   0.33968   0.17668   0.00000  Uiso   1.00
O122   O     0.01243   0.18005   0.19403   0.00000  Uiso   1.00
O123   O     0.11653   0.33440   0.19703   0.00000  Uiso   1.00
O124   O     0.38020   0.17925   0.10241   0.00000  Uiso   1.00
O125   O     0.38115   0.33834   0.13214   0.00000  Uiso   1.00
O126   O     0.10580   0.17049   0.20056   0.00000  Uiso   1.00
O127   O     0.19637   0.02830   0.09730   0.00000  Uiso   1.00
O128   O     0.33122   0.46938   0.19568   0.00000  Uiso   1.00
O129   O     0.30636   0.03661   0.24008   0.00000  Uiso   1.00
O130   O     0.31547   0.21026   0.16666   0.00000  Uiso   1.00
O131   O     0.16888   0.46512   0.15262   0.00000  Uiso   1.00
O132   O     0.31547   0.28974   0.16666   0.00000  Uiso   1.00
O133   O     0.18453   0.21026   0.16667   0.00000  Uiso   1.00
O134   O     0.25000   0.28973   0.09511   0.00000  Uiso   1.00
O135   O     0.25000   0.21027   0.23822   0.00000  Uiso   1.00
O136   O     0.25000   0.28973   0.23822   0.00000  Uiso   1.00
O137   O     0.25000   0.21027   0.09511   0.00000  Uiso   1.00
O138   O     0.03954   0.33830   0.13209   0.00000  Uiso   1.00
Zn139  Zn    0.25000   0.30307   0.16667   0.00000  Uiso   1.00
Zn140  Zn    0.25000   0.19693   0.16667   0.00000  Uiso   1.00
C141   C     0.66392   0.24966   0.17106   0.00000  Uiso   1.00
C142   C     0.71119   0.44605   0.15689   0.00000  Uiso   1.00
C143   C     0.74973   0.24992   0.07294   0.00000  Uiso   1.00
C144   C     0.75020   0.25009   0.26038   0.00000  Uiso   1.00
C145   C     0.75121   0.02684   0.16902   0.00000  Uiso   1.00
C146   C     0.75101   0.47319   0.17016   0.00000  Uiso   1.00
C147   C     0.74989   0.24990   0.02178   0.00000  Uiso   1.00
C148   C     0.75006   0.25014   0.31155   0.00000  Uiso   1.00
C149   C     0.55215   0.29731   0.15485   0.00000  Uiso   1.00
C150   C     0.95145   0.22055   0.12127   0.00000  Uiso   1.00
C151   C     0.94935   0.29961   0.15505   0.00000  Uiso   1.00
C152   C     0.83500   0.25068   0.15898   0.00000  Uiso   1.00
C153   C     0.54029   0.21676   0.18027   0.00000  Uiso   1.00
C154   C     0.59525   0.29477   0.17622   0.00000  Uiso   1.00
C155   C     0.90454   0.21554   0.12605   0.00000  Uiso   1.00
C156   C     0.90343   0.29779   0.14426   0.00000  Uiso   1.00
C157   C     0.58737   0.21136   0.18331   0.00000  Uiso   1.00
C158   C     0.61524   0.25102   0.17755   0.00000  Uiso   1.00
C159   C     0.88148   0.25391   0.14362   0.00000  Uiso   1.00
C160   C     0.52280   0.25814   0.15882   0.00000  Uiso   1.00
C161   C     0.97450   0.26020   0.14361   0.00000  Uiso   1.00
C162   C     0.54751   0.33504   0.08079   0.00000  Uiso   1.00
C163   C     0.72556   0.10049   0.13137   0.00000  Uiso   1.00
C164   C     0.54612   0.38344   0.05820   0.00000  Uiso   1.00
C165   C     0.99554   0.19750   0.05841   0.00000  Uiso   1.00
C166   C     0.52184   0.15673   0.03973   0.00000  Uiso   1.00
C167   C     0.96548   0.33673   0.22888   0.00000  Uiso   1.00
C168   C     0.98807   0.37985   0.25321   0.00000  Uiso   1.00
C169   C     0.99094   0.19194   0.23787   0.00000  Uiso   1.00
C170   C     0.96570   0.14903   0.25615   0.00000  Uiso   1.00
C171   C     0.62162   0.32760   0.24937   0.00000  Uiso   1.00
C172   C     0.64485   0.36978   0.27470   0.00000  Uiso   1.00
C173   C     0.88411   0.13811   0.13047   0.00000  Uiso   1.00
C174   C     0.78639   0.39836   0.18775   0.00000  Uiso   1.00
C175   C     0.85278   0.10088   0.10586   0.00000  Uiso   1.00
C176   C     0.86888   0.33632   0.08030   0.00000  Uiso   1.00
C177   C     0.84673   0.38103   0.06317   0.00000  Uiso   1.00
C178   C     0.59907   0.13573   0.16350   0.00000  Uiso   1.00
C179   C     0.62166   0.09192   0.18175   0.00000  Uiso   1.00
C180   C     0.72069   0.01088   0.05804   0.00000  Uiso   1.00
C181   C     0.68793   0.48476   0.02155   0.00000  Uiso   1.00
C182   C     0.86097   0.46466   0.15690   0.00000  Uiso   1.00
C183   C     0.90541   0.49007   0.17160   0.00000  Uiso   1.00
C184   C     0.78302   0.02063   0.28110   0.00000  Uiso   1.00
C185   C     0.77595   0.10411   0.20225   0.00000  Uiso   1.00
C186   C     0.81667   0.49722   0.31703   0.00000  Uiso   1.00
C187   C     0.65469   0.47654   0.20054   0.00000  Uiso   1.00
C188   C     0.60348   0.47077   0.20050   0.00000  Uiso   1.00
C189   C     0.71403   0.39791   0.14774   0.00000  Uiso   1.00
C190   C     0.72555   0.05129   0.13151   0.00000  Uiso   1.00
C191   C     0.79029   0.44732   0.18270   0.00000  Uiso   1.00
C192   C     0.77660   0.05514   0.20490   0.00000  Uiso   1.00
Cl193  Cl    0.69335   0.12841   0.08423   0.00000  Uiso   1.00
Cl194  Cl    0.82763   0.37045   0.22532   0.00000  Uiso   1.00
Cl195  Cl    0.81103   0.13636   0.24550   0.00000  Uiso   1.00
Cl196  Cl    0.67096   0.37037   0.11013   0.00000  Uiso   1.00
H197   H     0.52078   0.31268   0.06140   0.00000  Uiso   1.00
H198   H     0.54679   0.14563   0.06909   0.00000  Uiso   1.00
H199   H     0.98310   0.30564   0.24396   0.00000  Uiso   1.00
H200   H     0.92951   0.33511   0.23910   0.00000  Uiso   1.00
H201   H     0.97166   0.41164   0.23863   0.00000  Uiso   1.00
H202   H     0.98479   0.37848   0.29417   0.00000  Uiso   1.00
H203   H     0.52447   0.38160   0.24516   0.00000  Uiso   1.00
H204   H     0.96584   0.21942   0.23065   0.00000  Uiso   1.00
H205   H     0.51594   0.20432   0.26769   0.00000  Uiso   1.00
H206   H     0.94127   0.13557   0.22650   0.00000  Uiso   1.00
H207   H     0.94681   0.15802   0.28936   0.00000  Uiso   1.00
H208   H     0.58130   0.32066   0.07411   0.00000  Uiso   1.00
H209   H     0.98994   0.12136   0.26610   0.00000  Uiso   1.00
H210   H     0.64295   0.29718   0.25860   0.00000  Uiso   1.00
H211   H     0.58804   0.32208   0.26565   0.00000  Uiso   1.00
H212   H     0.62260   0.40011   0.27157   0.00000  Uiso   1.00
H213   H     0.65164   0.36253   0.31494   0.00000  Uiso   1.00
H214   H     0.67751   0.37753   0.25758   0.00000  Uiso   1.00
H215   H     0.87398   0.14369   0.16929   0.00000  Uiso   1.00
H216   H     0.91913   0.12519   0.13149   0.00000  Uiso   1.00
H217   H     0.86576   0.09018   0.06957   0.00000  Uiso   1.00
H218   H     0.85040   0.07001   0.13020   0.00000  Uiso   1.00
H219   H     0.55409   0.38159   0.01828   0.00000  Uiso   1.00
H220   H     0.81841   0.11467   0.09914   0.00000  Uiso   1.00
H221   H     0.84418   0.30714   0.07157   0.00000  Uiso   1.00
H222   H     0.89920   0.33160   0.05800   0.00000  Uiso   1.00
H223   H     0.81757   0.38838   0.08606   0.00000  Uiso   1.00
H224   H     0.87172   0.41053   0.06580   0.00000  Uiso   1.00
H225   H     0.83427   0.37727   0.02359   0.00000  Uiso   1.00
H226   H     0.61409   0.14700   0.12829   0.00000  Uiso   1.00
H227   H     0.56269   0.12683   0.15574   0.00000  Uiso   1.00
H228   H     0.60272   0.07646   0.21253   0.00000  Uiso   1.00
H229   H     0.62222   0.06649   0.15053   0.00000  Uiso   1.00
H230   H     0.51197   0.39789   0.06119   0.00000  Uiso   1.00
H231   H     0.65678   0.10020   0.19593   0.00000  Uiso   1.00
H232   H     0.74653   0.48616   0.07189   0.00000  Uiso   1.00
H233   H     0.73727   0.04008   0.03852   0.00000  Uiso   1.00
H234   H     0.66496   0.00956   0.00228   0.00000  Uiso   1.00
H235   H     0.70674   0.46594   0.32675   0.00000  Uiso   1.00
H236   H     0.66746   0.45876   0.04176   0.00000  Uiso   1.00
H237   H     0.84655   0.47985   0.12164   0.00000  Uiso   1.00
H238   H     0.86868   0.42753   0.15118   0.00000  Uiso   1.00
H239   H     0.92163   0.47340   0.20489   0.00000  Uiso   1.00
H240   H     0.92852   0.48849   0.14040   0.00000  Uiso   1.00
H241   H     0.57149   0.40694   0.07812   0.00000  Uiso   1.00
H242   H     0.89956   0.02706   0.18079   0.00000  Uiso   1.00
H243   H     0.75597   0.49467   0.26950   0.00000  Uiso   1.00
H244   H     0.76816   0.05058   0.30009   0.00000  Uiso   1.00
H245   H     0.84140   0.02350   0.00004   0.00000  Uiso   1.00
H246   H     0.79907   0.47981   0.01409   0.00000  Uiso   1.00
H247   H     0.83514   0.47027   0.29709   0.00000  Uiso   1.00
H248   H     0.66475   0.01314   0.20978   0.00000  Uiso   1.00
H249   H     0.66960   0.45450   0.23077   0.00000  Uiso   1.00
H250   H     0.58723   0.49281   0.17131   0.00000  Uiso   1.00
H251   H     0.59156   0.48102   0.23745   0.00000  Uiso   1.00
H252   H     0.51994   0.22710   0.06554   0.00000  Uiso   1.00
H253   H     0.59322   0.43387   0.19264   0.00000  Uiso   1.00
H254   H     0.96988   0.20746   0.02894   0.00000  Uiso   1.00
H255   H     0.99843   0.12689   0.02986   0.00000  Uiso   1.00
H256   H     0.54045   0.16706   0.00659   0.00000  Uiso   1.00
N257   N     0.75000   0.12623   0.16667   0.00000  Uiso   1.00
N258   N     0.75000   0.37376   0.16667   0.00000  Uiso   1.00
O259   O     0.68453   0.28974   0.16667   0.00000  Uiso   1.00
O260   O     0.97437   0.18368   0.10204   0.00000  Uiso   1.00
O261   O     0.96849   0.33968   0.17668   0.00000  Uiso   1.00
O262   O     0.51243   0.18005   0.19403   0.00000  Uiso   1.00
O263   O     0.61653   0.33440   0.19703   0.00000  Uiso   1.00
O264   O     0.88020   0.17925   0.10241   0.00000  Uiso   1.00
O265   O     0.88115   0.33834   0.13214   0.00000  Uiso   1.00
O266   O     0.60580   0.17049   0.20056   0.00000  Uiso   1.00
O267   O     0.69637   0.02830   0.09730   0.00000  Uiso   1.00
O268   O     0.83122   0.46938   0.19568   0.00000  Uiso   1.00
O269   O     0.80636   0.03661   0.24008   0.00000  Uiso   1.00
O270   O     0.81547   0.21026   0.16666   0.00000  Uiso   1.00
O271   O     0.66888   0.46512   0.15262   0.00000  Uiso   1.00
O272   O     0.81547   0.28974   0.16666   0.00000  Uiso   1.00
O273   O     0.68453   0.21026   0.16667   0.00000  Uiso   1.00
O274   O     0.75000   0.28973   0.09511   0.00000  Uiso   1.00
O275   O     0.75000   0.21027   0.23822   0.00000  Uiso   1.00
O276   O     0.75000   0.28973   0.23822   0.00000  Uiso   1.00
O277   O     0.75000   0.21027   0.09511   0.00000  Uiso   1.00
O278   O     0.53954   0.33830   0.13209   0.00000  Uiso   1.00
Zn279  Zn    0.75000   0.30307   0.16667   0.00000  Uiso   1.00
Zn280  Zn    0.75000   0.19693   0.16667   0.00000  Uiso   1.00
C281   C     0.16392   0.74966   0.17106   0.00000  Uiso   1.00
C282   C     0.21119   0.94605   0.15689   0.00000  Uiso   1.00
C283   C     0.24973   0.74992   0.07294   0.00000  Uiso   1.00
C284   C     0.25020   0.75009   0.26038   0.00000  Uiso   1.00
C285   C     0.25121   0.52684   0.16902   0.00000  Uiso   1.00
C286   C     0.25101   0.97319   0.17016   0.00000  Uiso   1.00
C287   C     0.24989   0.74990   0.02178   0.00000  Uiso   1.00
C288   C     0.25006   0.75014   0.31155   0.00000  Uiso   1.00
C289   C     0.05215   0.79731   0.15485   0.00000  Uiso   1.00
C290   C     0.45145   0.72055   0.12127   0.00000  Uiso   1.00
C291   C     0.44935   0.79961   0.15505   0.00000  Uiso   1.00
C292   C     0.33500   0.75068   0.15898   0.00000  Uiso   1.00
C293   C     0.04029   0.71676   0.18027   0.00000  Uiso   1.00
C294   C     0.09525   0.79477   0.17622   0.00000  Uiso   1.00
C295   C     0.40454   0.71554   0.12605   0.00000  Uiso   1.00
C296   C     0.40343   0.79779   0.14426   0.00000  Uiso   1.00
C297   C     0.08737   0.71136   0.18331   0.00000  Uiso   1.00
C298   C     0.11524   0.75102   0.17755   0.00000  Uiso   1.00
C299   C     0.38148   0.75391   0.14362   0.00000  Uiso   1.00
C300   C     0.02280   0.75814   0.15882   0.00000  Uiso   1.00
C301   C     0.47450   0.76020   0.14361   0.00000  Uiso   1.00
C302   C     0.04751   0.83504   0.08079   0.00000  Uiso   1.00
C303   C     0.22556   0.60049   0.13137   0.00000  Uiso   1.00
C304   C     0.04612   0.88344   0.05820   0.00000  Uiso   1.00
C305   C     0.49554   0.69750   0.05841   0.00000  Uiso   1.00
C306   C     0.02184   0.65673   0.03973   0.00000  Uiso   1.00
C307   C     0.46548   0.83673   0.22888   0.00000  Uiso   1.00
C308   C     0.48807   0.87985   0.25321   0.00000  Uiso   1.00
C309   C     0.49094   0.69194   0.23787   0.00000  Uiso   1.00
C310   C     0.46570   0.64903   0.25615   0.00000  Uiso   1.00
C311   C     0.12162   0.82760   0.24937   0.00000  Uiso   1.00
C312   C     0.14485   0.86978   0.27470   0.00000  Uiso   1.00
C313   C     0.38411   0.63811   0.13047   0.00000  Uiso   1.00
C314   C     0.28639   0.89836   0.18775   0.00000  Uiso   1.00
C315   C     0.35278   0.60088   0.10586   0.00000  Uiso   1.00
C316   C     0.36888   0.83632   0.08030   0.00000  Uiso   1.00
C317   C     0.34673   0.88103   0.06317   0.00000  Uiso   1.00
C318   C     0.09907   0.63573   0.16350   0.00000  Uiso   1.00
C319   C     0.12166   0.59192   0.18175   0.00000  Uiso   1.00
C320   C     0.22069   0.51088   0.05804   0.00000  Uiso   1.00
C321   C     0.18793   0.98476   0.02155   0.00000  Uiso   1.00
C322   C     0.36097   0.96466   0.15690   0.00000  Uiso   1.00
C323   C     0.40541   0.99007   0.17160   0.00000  Uiso   1.00
C324   C     0.28302   0.52063   0.28110   0.00000  Uiso   1.00
C325   C     0.27595   0.60411   0.20225   0.00000  Uiso   1.00
C326   C     0.31667   0.99722   0.31703   0.00000  Uiso   1.00
C327   C     0.15469   0.97654   0.20054   0.00000  Uiso   1.00
C328   C     0.10348   0.97077   0.20050   0.00000  Uiso   1.00
C329   C     0.21403   0.89791   0.14774   0.00000  Uiso   1.00
C330   C     0.22555   0.55129   0.13151   0.00000  Uiso   1.00
C331   C     0.29029   0.94732   0.18270   0.00000  Uiso   1.00
C332   C     0.27660   0.55514   0.20490   0.00000  Uiso   1.00
Cl333  Cl    0.19335   0.62841   0.08423   0.00000  Uiso   1.00
Cl334  Cl    0.32763   0.87045   0.22532   0.00000  Uiso   1.00
Cl335  Cl    0.31103   0.63636   0.24550   0.00000  Uiso   1.00
Cl336  Cl    0.17096   0.87037   0.11013   0.00000  Uiso   1.00
H337   H     0.02078   0.81268   0.06140   0.00000  Uiso   1.00
H338   H     0.04679   0.64563   0.06909   0.00000  Uiso   1.00
H339   H     0.48310   0.80564   0.24396   0.00000  Uiso   1.00
H340   H     0.42951   0.83511   0.23910   0.00000  Uiso   1.00
H341   H     0.47166   0.91164   0.23863   0.00000  Uiso   1.00
H342   H     0.48479   0.87848   0.29417   0.00000  Uiso   1.00
H343   H     0.02447   0.88160   0.24516   0.00000  Uiso   1.00
H344   H     0.46584   0.71942   0.23065   0.00000  Uiso   1.00
H345   H     0.01594   0.70432   0.26769   0.00000  Uiso   1.00
H346   H     0.44127   0.63557   0.22650   0.00000  Uiso   1.00
H347   H     0.44681   0.65802   0.28936   0.00000  Uiso   1.00
H348   H     0.08130   0.82066   0.07411   0.00000  Uiso   1.00
H349   H     0.48994   0.62136   0.26610   0.00000  Uiso   1.00
H350   H     0.14295   0.79718   0.25860   0.00000  Uiso   1.00
H351   H     0.08804   0.82208   0.26565   0.00000  Uiso   1.00
H352   H     0.12260   0.90011   0.27157   0.00000  Uiso   1.00
H353   H     0.15164   0.86253   0.31494   0.00000  Uiso   1.00
H354   H     0.17751   0.87753   0.25758   0.00000  Uiso   1.00
H355   H     0.37398   0.64369   0.16929   0.00000  Uiso   1.00
H356   H     0.41913   0.62519   0.13149   0.00000  Uiso   1.00
H357   H     0.36576   0.59018   0.06957   0.00000  Uiso   1.00
H358   H     0.35040   0.57001   0.13020   0.00000  Uiso   1.00
H359   H     0.05409   0.88159   0.01828   0.00000  Uiso   1.00
H360   H     0.31841   0.61467   0.09914   0.00000  Uiso   1.00
H361   H     0.34418   0.80714   0.07157   0.00000  Uiso   1.00
H362   H     0.39920   0.83160   0.05800   0.00000  Uiso   1.00
H363   H     0.31757   0.88838   0.08606   0.00000  Uiso   1.00
H364   H     0.37172   0.91053   0.06580   0.00000  Uiso   1.00
H365   H     0.33427   0.87727   0.02359   0.00000  Uiso   1.00
H366   H     0.11409   0.64700   0.12829   0.00000  Uiso   1.00
H367   H     0.06269   0.62683   0.15574   0.00000  Uiso   1.00
H368   H     0.10272   0.57646   0.21253   0.00000  Uiso   1.00
H369   H     0.12222   0.56649   0.15053   0.00000  Uiso   1.00
H370   H     0.01197   0.89789   0.06119   0.00000  Uiso   1.00
H371   H     0.15678   0.60020   0.19593   0.00000  Uiso   1.00
H372   H     0.24653   0.98616   0.07189   0.00000  Uiso   1.00
H373   H     0.23727   0.54008   0.03852   0.00000  Uiso   1.00
H374   H     0.16496   0.50956   0.00228   0.00000  Uiso   1.00
H375   H     0.20674   0.96594   0.32675   0.00000  Uiso   1.00
H376   H     0.16746   0.95876   0.04176   0.00000  Uiso   1.00
H377   H     0.34655   0.97985   0.12164   0.00000  Uiso   1.00
H378   H     0.36868   0.92753   0.15118   0.00000  Uiso   1.00
H379   H     0.42163   0.97340   0.20489   0.00000  Uiso   1.00
H380   H     0.42852   0.98849   0.14040   0.00000  Uiso   1.00
H381   H     0.07149   0.90694   0.07812   0.00000  Uiso   1.00
H382   H     0.39956   0.52706   0.18079   0.00000  Uiso   1.00
H383   H     0.25597   0.99467   0.26950   0.00000  Uiso   1.00
H384   H     0.26816   0.55058   0.30009   0.00000  Uiso   1.00
H385   H     0.34140   0.52350   0.00004   0.00000  Uiso   1.00
H386   H     0.29907   0.97981   0.01409   0.00000  Uiso   1.00
H387   H     0.33514   0.97027   0.29709   0.00000  Uiso   1.00
H388   H     0.16475   0.51314   0.20978   0.00000  Uiso   1.00
H389   H     0.16960   0.95450   0.23077   0.00000  Uiso   1.00
H390   H     0.08723   0.99281   0.17131   0.00000  Uiso   1.00
H391   H     0.09156   0.98102   0.23745   0.00000  Uiso   1.00
H392   H     0.01994   0.72710   0.06554   0.00000  Uiso   1.00
H393   H     0.09322   0.93387   0.19264   0.00000  Uiso   1.00
H394   H     0.46988   0.70746   0.02894   0.00000  Uiso   1.00
H395   H     0.49843   0.62689   0.02986   0.00000  Uiso   1.00
H396   H     0.04045   0.66706   0.00659   0.00000  Uiso   1.00
N397   N     0.25000   0.62623   0.16667   0.00000  Uiso   1.00
N398   N     0.25000   0.87376   0.16667   0.00000  Uiso   1.00
O399   O     0.18453   0.78974   0.16667   0.00000  Uiso   1.00
O400   O     0.47437   0.68368   0.10204   0.00000  Uiso   1.00
O401   O     0.46849   0.83968   0.17668   0.00000  Uiso   1.00
O402   O     0.01243   0.68005   0.19403   0.00000  Uiso   1.00
O403   O     0.11653   0.83440   0.19703   0.00000  Uiso   1.00
O404   O     0.38020   0.67925   0.10241   0.00000  Uiso   1.00
O405   O     0.38115   0.83834   0.13214   0.00000  Uiso   1.00
O406   O     0.10580   0.67049   0.20056   0.00000  Uiso   1.00
O407   O     0.19637   0.52830   0.09730   0.00000  Uiso   1.00
O408   O     0.33122   0.96938   0.19568   0.00000  Uiso   1.00
O409   O     0.30636   0.53661   0.24008   0.00000  Uiso   1.00
O410   O     0.31547   0.71026   0.16666   0.00000  Uiso   1.00
O411   O     0.16888   0.96512   0.15262   0.00000  Uiso   1.00
O412   O     0.31547   0.78974   0.16666   0.00000  Uiso   1.00
O413   O     0.18453   0.71026   0.16667   0.00000  Uiso   1.00
O414   O     0.25000   0.78973   0.09511   0.00000  Uiso   1.00
O415   O     0.25000   0.71027   0.23822   0.00000  Uiso   1.00
O416   O     0.25000   0.78973   0.23822   0.00000  Uiso   1.00
O417   O     0.25000   0.71027   0.09511   0.00000  Uiso   1.00
O418   O     0.03954   0.83830   0.13209   0.00000  Uiso   1.00
Zn419  Zn    0.25000   0.80307   0.16667   0.00000  Uiso   1.00
Zn420  Zn    0.25000   0.69693   0.16667   0.00000  Uiso   1.00
C421   C     0.66392   0.74966   0.17106   0.00000  Uiso   1.00
C422   C     0.71119   0.94605   0.15689   0.00000  Uiso   1.00
C423   C     0.74973   0.74992   0.07294   0.00000  Uiso   1.00
C424   C     0.75020   0.75009   0.26038   0.00000  Uiso   1.00
C425   C     0.75121   0.52684   0.16902   0.00000  Uiso   1.00
C426   C     0.75101   0.97319   0.17016   0.00000  Uiso   1.00
C427   C     0.74989   0.74990   0.02178   0.00000  Uiso   1.00
C428   C     0.75006   0.75014   0.31155   0.00000  Uiso   1.00
C429   C     0.55215   0.79731   0.15485   0.00000  Uiso   1.00
C430   C     0.95145   0.72055   0.12127   0.00000  Uiso   1.00
C431   C     0.94935   0.79961   0.15505   0.00000  Uiso   1.00
C432   C     0.83500   0.75068   0.15898   0.00000  Uiso   1.00
C433   C     0.54029   0.71676   0.18027   0.00000  Uiso   1.00
C434   C     0.59525   0.79477   0.17622   0.00000  Uiso   1.00
C435   C     0.90454   0.71554   0.12605   0.00000  Uiso   1.00
C436   C     0.90343   0.79779   0.14426   0.00000  Uiso   1.00
C437   C     0.58737   0.71136   0.18331   0.00000  Uiso   1.00
C438   C     0.61524   0.75102   0.17755   0.00000  Uiso   1.00
C439   C     0.88148   0.75391   0.14362   0.00000  Uiso   1.00
C440   C     0.52280   0.75814   0.15882   0.00000  Uiso   1.00
C441   C     0.97450   0.76020   0.14361   0.00000  Uiso   1.00
C442   C     0.54751   0.83504   0.08079   0.00000  Uiso   1.00
C443   C     0.72556   0.60049   0.13137   0.00000  Uiso   1.00
C444   C     0.54612   0.88344   0.05820   0.00000  Uiso   1.00
C445   C     0.99554   0.69750   0.05841   0.00000  Uiso   1.00
C446   C     0.52184   0.65673   0.03973   0.00000  Uiso   1.00
C447   C     0.96548   0.83673   0.22888   0.00000  Uiso   1.00
C448   C     0.98807   0.87985   0.25321   0.00000  Uiso   1.00
C449   C     0.99094   0.69194   0.23787   0.00000  Uiso   1.00
C450   C     0.96570   0.64903   0.25615   0.00000  Uiso   1.00
C451   C     0.62162   0.82760   0.24937   0.00000  Uiso   1.00
C452   C     0.64485   0.86978   0.27470   0.00000  Uiso   1.00
C453   C     0.88411   0.63811   0.13047   0.00000  Uiso   1.00
C454   C     0.78639   0.89836   0.18775   0.00000  Uiso   1.00
C455   C     0.85278   0.60088   0.10586   0.00000  Uiso   1.00
C456   C     0.86888   0.83632   0.08030   0.00000  Uiso   1.00
C457   C     0.84673   0.88103   0.06317   0.00000  Uiso   1.00
C458   C     0.59907   0.63573   0.16350   0.00000  Uiso   1.00
C459   C     0.62166   0.59192   0.18175   0.00000  Uiso   1.00
C460   C     0.72069   0.51088   0.05804   0.00000  Uiso   1.00
C461   C     0.68793   0.98476   0.02155   0.00000  Uiso   1.00
C462   C     0.86097   0.96466   0.15690   0.00000  Uiso   1.00
C463   C     0.90541   0.99007   0.17160   0.00000  Uiso   1.00
C464   C     0.78302   0.52063   0.28110   0.00000  Uiso   1.00
C465   C     0.77595   0.60411   0.20225   0.00000  Uiso   1.00
C466   C     0.81667   0.99722   0.31703   0.00000  Uiso   1.00
C467   C     0.65469   0.97654   0.20054   0.00000  Uiso   1.00
C468   C     0.60348   0.97077   0.20050   0.00000  Uiso   1.00
C469   C     0.71403   0.89791   0.14774   0.00000  Uiso   1.00
C470   C     0.72555   0.55129   0.13151   0.00000  Uiso   1.00
C471   C     0.79029   0.94732   0.18270   0.00000  Uiso   1.00
C472   C     0.77660   0.55514   0.20490   0.00000  Uiso   1.00
Cl473  Cl    0.69335   0.62841   0.08423   0.00000  Uiso   1.00
Cl474  Cl    0.82763   0.87045   0.22532   0.00000  Uiso   1.00
Cl475  Cl    0.81103   0.63636   0.24550   0.00000  Uiso   1.00
Cl476  Cl    0.67096   0.87037   0.11013   0.00000  Uiso   1.00
H477   H     0.52078   0.81268   0.06140   0.00000  Uiso   1.00
H478   H     0.54679   0.64563   0.06909   0.00000  Uiso   1.00
H479   H     0.98310   0.80564   0.24396   0.00000  Uiso   1.00
H480   H     0.92951   0.83511   0.23910   0.00000  Uiso   1.00
H481   H     0.97166   0.91164   0.23863   0.00000  Uiso   1.00
H482   H     0.98479   0.87848   0.29417   0.00000  Uiso   1.00
H483   H     0.52447   0.88160   0.24516   0.00000  Uiso   1.00
H484   H     0.96584   0.71942   0.23065   0.00000  Uiso   1.00
H485   H     0.51594   0.70432   0.26769   0.00000  Uiso   1.00
H486   H     0.94127   0.63557   0.22650   0.00000  Uiso   1.00
H487   H     0.94681   0.65802   0.28936   0.00000  Uiso   1.00
H488   H     0.58130   0.82066   0.07411   0.00000  Uiso   1.00
H489   H     0.98994   0.62136   0.26610   0.00000  Uiso   1.00
H490   H     0.64295   0.79718   0.25860   0.00000  Uiso   1.00
H491   H     0.58804   0.82208   0.26565   0.00000  Uiso   1.00
H492   H     0.62260   0.90011   0.27157   0.00000  Uiso   1.00
H493   H     0.65164   0.86253   0.31494   0.00000  Uiso   1.00
H494   H     0.67751   0.87753   0.25758   0.00000  Uiso   1.00
H495   H     0.87398   0.64369   0.16929   0.00000  Uiso   1.00
H496   H     0.91913   0.62519   0.13149   0.00000  Uiso   1.00
H497   H     0.86576   0.59018   0.06957   0.00000  Uiso   1.00
H498   H     0.85040   0.57001   0.13020   0.00000  Uiso   1.00
H499   H     0.55409   0.88159   0.01828   0.00000  Uiso   1.00
H500   H     0.81841   0.61467   0.09914   0.00000  Uiso   1.00
H501   H     0.84418   0.80714   0.07157   0.00000  Uiso   1.00
H502   H     0.89920   0.83160   0.05800   0.00000  Uiso   1.00
H503   H     0.81757   0.88838   0.08606   0.00000  Uiso   1.00
H504   H     0.87172   0.91053   0.06580   0.00000  Uiso   1.00
H505   H     0.83427   0.87727   0.02359   0.00000  Uiso   1.00
H506   H     0.61409   0.64700   0.12829   0.00000  Uiso   1.00
H507   H     0.56269   0.62683   0.15574   0.00000  Uiso   1.00
H508   H     0.60272   0.57646   0.21253   0.00000  Uiso   1.00
H509   H     0.62222   0.56649   0.15053   0.00000  Uiso   1.00
H510   H     0.51197   0.89789   0.06119   0.00000  Uiso   1.00
H511   H     0.65678   0.60020   0.19593   0.00000  Uiso   1.00
H512   H     0.74653   0.98616   0.07189   0.00000  Uiso   1.00
H513   H     0.73727   0.54008   0.03852   0.00000  Uiso   1.00
H514   H     0.66496   0.50956   0.00228   0.00000  Uiso   1.00
H515   H     0.70674   0.96594   0.32675   0.00000  Uiso   1.00
H516   H     0.66746   0.95876   0.04176   0.00000  Uiso   1.00
H517   H     0.84655   0.97985   0.12164   0.00000  Uiso   1.00
H518   H     0.86868   0.92753   0.15118   0.00000  Uiso   1.00
H519   H     0.92163   0.97340   0.20489   0.00000  Uiso   1.00
H520   H     0.92852   0.98849   0.14040   0.00000  Uiso   1.00
H521   H     0.57149   0.90694   0.07812   0.00000  Uiso   1.00
H522   H     0.89956   0.52706   0.18079   0.00000  Uiso   1.00
H523   H     0.75597   0.99467   0.26950   0.00000  Uiso   1.00
H524   H     0.76816   0.55058   0.30009   0.00000  Uiso   1.00
H525   H     0.84140   0.52350   0.00004   0.00000  Uiso   1.00
H526   H     0.79907   0.97981   0.01409   0.00000  Uiso   1.00
H527   H     0.83514   0.97027   0.29709   0.00000  Uiso   1.00
H528   H     0.66475   0.51314   0.20978   0.00000  Uiso   1.00
H529   H     0.66960   0.95450   0.23077   0.00000  Uiso   1.00
H530   H     0.58723   0.99281   0.17131   0.00000  Uiso   1.00
H531   H     0.59156   0.98102   0.23745   0.00000  Uiso   1.00
H532   H     0.51994   0.72710   0.06554   0.00000  Uiso   1.00
H533   H     0.59322   0.93387   0.19264   0.00000  Uiso   1.00
H534   H     0.96988   0.70746   0.02894   0.00000  Uiso   1.00
H535   H     0.99843   0.62689   0.02986   0.00000  Uiso   1.00
H536   H     0.54045   0.66706   0.00659   0.00000  Uiso   1.00
N537   N     0.75000   0.62623   0.16667   0.00000  Uiso   1.00
N538   N     0.75000   0.87376   0.16667   0.00000  Uiso   1.00
O539   O     0.68453   0.78974   0.16667   0.00000  Uiso   1.00
O540   O     0.97437   0.68368   0.10204   0.00000  Uiso   1.00
O541   O     0.96849   0.83968   0.17668   0.00000  Uiso   1.00
O542   O     0.51243   0.68005   0.19403   0.00000  Uiso   1.00
O543   O     0.61653   0.83440   0.19703   0.00000  Uiso   1.00
O544   O     0.88020   0.67925   0.10241   0.00000  Uiso   1.00
O545   O     0.88115   0.83834   0.13214   0.00000  Uiso   1.00
O546   O     0.60580   0.67049   0.20056   0.00000  Uiso   1.00
O547   O     0.69637   0.52830   0.09730   0.00000  Uiso   1.00
O548   O     0.83122   0.96938   0.19568   0.00000  Uiso   1.00
O549   O     0.80636   0.53661   0.24008   0.00000  Uiso   1.00
O550   O     0.81547   0.71026   0.16666   0.00000  Uiso   1.00
O551   O     0.66888   0.96512   0.15262   0.00000  Uiso   1.00
O552   O     0.81547   0.78974   0.16666   0.00000  Uiso   1.00
O553   O     0.68453   0.71026   0.16667   0.00000  Uiso   1.00
O554   O     0.75000   0.78973   0.09511   0.00000  Uiso   1.00
O555   O     0.75000   0.71027   0.23822   0.00000  Uiso   1.00
O556   O     0.75000   0.78973   0.23822   0.00000  Uiso   1.00
O557   O     0.75000   0.71027   0.09511   0.00000  Uiso   1.00
O558   O     0.53954   0.83830   0.13209   0.00000  Uiso   1.00
Zn559  Zn    0.75000   0.80307   0.16667   0.00000  Uiso   1.00
Zn560  Zn    0.75000   0.69693   0.16667   0.00000  Uiso   1.00
C561   C     0.16392   0.24966   0.50439   0.00000  Uiso   1.00
C562   C     0.21119   0.44605   0.49022   0.00000  Uiso   1.00
C563   C     0.24973   0.24992   0.40628   0.00000  Uiso   1.00
C564   C     0.25020   0.25009   0.59372   0.00000  Uiso   1.00
C565   C     0.25121   0.02684   0.50236   0.00000  Uiso   1.00
C566   C     0.25101   0.47319   0.50349   0.00000  Uiso   1.00
C567   C     0.24989   0.24990   0.35512   0.00000  Uiso   1.00
C568   C     0.25006   0.25014   0.64488   0.00000  Uiso   1.00
C569   C     0.05215   0.29731   0.48818   0.00000  Uiso   1.00
C570   C     0.45145   0.22055   0.45461   0.00000  Uiso   1.00
C571   C     0.44935   0.29961   0.48838   0.00000  Uiso   1.00
C572   C     0.33500   0.25068   0.49231   0.00000  Uiso   1.00
C573   C     0.04029   0.21676   0.51360   0.00000  Uiso   1.00
C574   C     0.09525   0.29477   0.50956   0.00000  Uiso   1.00
C575   C     0.40454   0.21554   0.45938   0.00000  Uiso   1.00
C576   C     0.40343   0.29779   0.47760   0.00000  Uiso   1.00
C577   C     0.08737   0.21136   0.51665   0.00000  Uiso   1.00
C578   C     0.11524   0.25102   0.51089   0.00000  Uiso   1.00
C579   C     0.38148   0.25391   0.47695   0.00000  Uiso   1.00
C580   C     0.02280   0.25814   0.49215   0.00000  Uiso   1.00
C581   C     0.47450   0.26020   0.47694   0.00000  Uiso   1.00
C582   C     0.04751   0.33504   0.41412   0.00000  Uiso   1.00
C583   C     0.22556   0.10049   0.46471   0.00000  Uiso   1.00
C584   C     0.04612   0.38344   0.39153   0.00000  Uiso   1.00
C585   C     0.49554   0.19750   0.39175   0.00000  Uiso   1.00
C586   C     0.02184   0.15673   0.37306   0.00000  Uiso   1.00
C587   C     0.46548   0.33673   0.56221   0.00000  Uiso   1.00
C588   C     0.48807   0.37985   0.58654   0.00000  Uiso   1.00
C589   C     0.49094   0.19194   0.57120   0.00000  Uiso   1.00
C590   C     0.46570   0.14903   0.58949   0.00000  Uiso   1.00
C591   C     0.12162   0.32760   0.58270   0.00000  Uiso   1.00
C592   C     0.14485   0.36978   0.60803   0.00000  Uiso   1.00
C593   C     0.38411   0.13811   0.46381   0.00000  Uiso   1.00
C594   C     0.28639   0.39836   0.52109   0.00000  Uiso   1.00
C595   C     0.35278   0.10088   0.43919   0.00000  Uiso   1.00
C596   C     0.36888   0.33632   0.41363   0.00000  Uiso   1.00
C597   C     0.34673   0.38103   0.39650   0.00000  Uiso   1.00
C598   C     0.09907   0.13573   0.49683   0.00000  Uiso   1.00
C599   C     0.12166   0.09192   0.51508   0.00000  Uiso   1.00
C600   C     0.22069   0.01088   0.39137   0.00000  Uiso   1.00
C601   C     0.18793   0.48476   0.35489   0.00000  Uiso   1.00
C602   C     0.36097   0.46466   0.49023   0.00000  Uiso   1.00
C603   C     0.40541   0.49007   0.50494   0.00000  Uiso   1.00
C604   C     0.28302   0.02063   0.61444   0.00000  Uiso   1.00
C605   C     0.27595   0.10411   0.53558   0.00000  Uiso   1.00
C606   C     0.31667   0.49722   0.65036   0.00000  Uiso   1.00
C607   C     0.15469   0.47654   0.53387   0.00000  Uiso   1.00
C608   C     0.10348   0.47077   0.53384   0.00000  Uiso   1.00
C609   C     0.21403   0.39791   0.48107   0.00000  Uiso   1.00
C610   C     0.22555   0.05129   0.46484   0.00000  Uiso   1.00
C611   C     0.29029   0.44732   0.51604   0.00000  Uiso   1.00
C612   C     0.27660   0.05514   0.53823   0.00000  Uiso   1.00
Cl613  Cl    0.19335   0.12841   0.41756   0.00000  Uiso   1.00
Cl614  Cl    0.32763   0.37045   0.55865   0.00000  Uiso   1.00
Cl615  Cl    0.31103   0.13636   0.57883   0.00000  Uiso   1.00
Cl616  Cl    0.17096   0.37037   0.44346   0.00000  Uiso   1.00
H617   H     0.02078   0.31268   0.39474   0.00000  Uiso   1.00
H618   H     0.04679   0.14563   0.40243   0.00000  Uiso   1.00
H619   H     0.48310   0.30564   0.57729   0.00000  Uiso   1.00
H620   H     0.42951   0.33511   0.57243   0.00000  Uiso   1.00
H621   H     0.47166   0.41164   0.57196   0.00000  Uiso   1.00
H622   H     0.48479   0.37848   0.62751   0.00000  Uiso   1.00
H623   H     0.02447   0.38160   0.57850   0.00000  Uiso   1.00
H624   H     0.46584   0.21942   0.56398   0.00000  Uiso   1.00
H625   H     0.01594   0.20432   0.60102   0.00000  Uiso   1.00
H626   H     0.44127   0.13557   0.55983   0.00000  Uiso   1.00
H627   H     0.44681   0.15802   0.62269   0.00000  Uiso   1.00
H628   H     0.08130   0.32066   0.40744   0.00000  Uiso   1.00
H629   H     0.48994   0.12136   0.59943   0.00000  Uiso   1.00
H630   H     0.14295   0.29718   0.59193   0.00000  Uiso   1.00
H631   H     0.08804   0.32208   0.59899   0.00000  Uiso   1.00
H632   H     0.12260   0.40011   0.60490   0.00000  Uiso   1.00
H633   H     0.15164   0.36253   0.64828   0.00000  Uiso   1.00
H634   H     0.17751   0.37753   0.59092   0.00000  Uiso   1.00
H635   H     0.37398   0.14369   0.50262   0.00000  Uiso   1.00
H636   H     0.41913   0.12519   0.46483   0.00000  Uiso   1.00
H637   H     0.36576   0.09018   0.40290   0.00000  Uiso   1.00
H638   H     0.35040   0.07001   0.46354   0.00000  Uiso   1.00
H639   H     0.05409   0.38159   0.35161   0.00000  Uiso   1.00
H640   H     0.31841   0.11467   0.43247   0.00000  Uiso   1.00
H641   H     0.34418   0.30714   0.40491   0.00000  Uiso   1.00
H642   H     0.39920   0.33160   0.39133   0.00000  Uiso   1.00
H643   H     0.31757   0.38838   0.41939   0.00000  Uiso   1.00
H644   H     0.37172   0.41053   0.39914   0.00000  Uiso   1.00
H645   H     0.33427   0.37727   0.35692   0.00000  Uiso   1.00
H646   H     0.11409   0.14700   0.46162   0.00000  Uiso   1.00
H647   H     0.06269   0.12683   0.48907   0.00000  Uiso   1.00
H648   H     0.10272   0.07646   0.54587   0.00000  Uiso   1.00
H649   H     0.12222   0.06649   0.48386   0.00000  Uiso   1.00
H650   H     0.01197   0.39789   0.39453   0.00000  Uiso   1.00
H651   H     0.15678   0.10020   0.52927   0.00000  Uiso   1.00
H652   H     0.24653   0.48616   0.40523   0.00000  Uiso   1.00
H653   H     0.23727   0.04008   0.37186   0.00000  Uiso   1.00
H654   H     0.16496   0.00956   0.33561   0.00000  Uiso   1.00
H655   H     0.20674   0.46594   0.66009   0.00000  Uiso   1.00
H656   H     0.16746   0.45876   0.37509   0.00000  Uiso   1.00
H657   H     0.34655   0.47985   0.45497   0.00000  Uiso   1.00
H658   H     0.36868   0.42753   0.48451   0.00000  Uiso   1.00
H659   H     0.42163   0.47340   0.53822   0.00000  Uiso   1.00
H660   H     0.42852   0.48849   0.47373   0.00000  Uiso   1.00
H661   H     0.07149   0.40694   0.41146   0.00000  Uiso   1.00
H662   H     0.39956   0.02706   0.51413   0.00000  Uiso   1.00
H663   H     0.25597   0.49467   0.60283   0.00000  Uiso   1.00
H664   H     0.26816   0.05058   0.63342   0.00000  Uiso   1.00
H665   H     0.34140   0.02350   0.33337   0.00000  Uiso   1.00
H666   H     0.29907   0.47981   0.34742   0.00000  Uiso   1.00
H667   H     0.33514   0.47027   0.63042   0.00000  Uiso   1.00
H668   H     0.16475   0.01314   0.54311   0.00000  Uiso   1.00
H669   H     0.16960   0.45450   0.56410   0.00000  Uiso   1.00
H670   H     0.08723   0.49281   0.50464   0.00000  Uiso   1.00
H671   H     0.09156   0.48102   0.57078   0.00000  Uiso   1.00
H672   H     0.01994   0.22710   0.39887   0.00000  Uiso   1.00
H673   H     0.09322   0.43387   0.52597   0.00000  Uiso   1.00
H674   H     0.46988   0.20746   0.36228   0.00000  Uiso   1.00
H675   H     0.49843   0.12689   0.36319   0.00000  Uiso   1.00
H676   H     0.04045   0.16706   0.33992   0.00000  Uiso   1.00
N677   N     0.25000   0.12623   0.50000   0.00000  Uiso   1.00
N678   N     0.25000   0.37376   0.50000   0.00000  Uiso   1.00
O679   O     0.18453   0.28974   0.50000   0.00000  Uiso   1.00
O680   O     0.47437   0.18368   0.43537   0.00000  Uiso   1.00
O681   O     0.46849   0.33968   0.51001   0.00000  Uiso   1.00
O682   O     0.01243   0.18005   0.52737   0.00000  Uiso   1.00
O683   O     0.11653   0.33440   0.53037   0.00000  Uiso   1.00
O684   O     0.38020   0.17925   0.43574   0.00000  Uiso   1.00
O685   O     0.38115   0.33834   0.46548   0.00000  Uiso   1.00
O686   O     0.10580   0.17049   0.53390   0.00000  Uiso   1.00
O687   O     0.19637   0.02830   0.43063   0.00000  Uiso   1.00
O688   O     0.33122   0.46938   0.52902   0.00000  Uiso   1.00
O689   O     0.30636   0.03661   0.57342   0.00000  Uiso   1.00
O690   O     0.31547   0.21026   0.50000   0.00000  Uiso   1.00
O691   O     0.16888   0.46512   0.48595   0.00000  Uiso   1.00
O692   O     0.31547   0.28974   0.50000   0.00000  Uiso   1.00
O693   O     0.18453   0.21026   0.50000   0.00000  Uiso   1.00
O694   O     0.25000   0.28973   0.42845   0.00000  Uiso   1.00
O695   O     0.25000   0.21027   0.57155   0.00000  Uiso   1.00
O696   O     0.25000   0.28973   0.57155   0.00000  Uiso   1.00
O697   O     0.25000   0.21027   0.42845   0.00000  Uiso   1.00
O698   O     0.03954   0.33830   0.46542   0.00000  Uiso   1.00
Zn699  Zn    0.25000   0.30307   0.50000   0.00000  Uiso   1.00
Zn700  Zn    0.25000   0.19693   0.50000   0.00000  Uiso   1.00
C701   C     0.66392   0.24966   0.50439   0.00000  Uiso   1.00
C702   C     0.71119   0.44605   0.49022   0.00000  Uiso   1.00
C703   C     0.74973   0.24992   0.40628   0.00000  Uiso   1.00
C704   C     0.75020   0.25009   0.59372   0.00000  Uiso   1.00
C705   C     0.75121   0.02684   0.50236   0.00000  Uiso   1.00
C706   C     0.75101   0.47319   0.50349   0.00000  Uiso   1.00
C707   C     0.74989   0.24990   0.35512   0.00000  Uiso   1.00
C708   C     0.75006   0.25014   0.64488   0.00000  Uiso   1.00
C709   C     0.55215   0.29731   0.48818   0.00000  Uiso   1.00
C710   C     0.95145   0.22055   0.45461   0.00000  Uiso   1.00
C711   C     0.94935   0.29961   0.48838   0.00000  Uiso   1.00
C712   C     0.83500   0.25068   0.49231   0.00000  Uiso   1.00
C713   C     0.54029   0.21676   0.51360   0.00000  Uiso   1.00
C714   C     0.59525   0.29477   0.50956   0.00000  Uiso   1.00
C715   C     0.90454   0.21554   0.45938   0.00000  Uiso   1.00
C716   C     0.90343   0.29779   0.47760   0.00000  Uiso   1.00
C717   C     0.58737   0.21136   0.51665   0.00000  Uiso   1.00
C718   C     0.61524   0.25102   0.51089   0.00000  Uiso   1.00
C719   C     0.88148   0.25391   0.47695   0.00000  Uiso   1.00
C720   C     0.52280   0.25814   0.49215   0.00000  Uiso   1.00
C721   C     0.97450   0.26020   0.47694   0.00000  Uiso   1.00
C722   C     0.54751   0.33504   0.41412   0.00000  Uiso   1.00
C723   C     0.72556   0.10049   0.46471   0.00000  Uiso   1.00
C724   C     0.54612   0.38344   0.39153   0.00000  Uiso   1.00
C725   C     0.99554   0.19750   0.39175   0.00000  Uiso   1.00
C726   C     0.52184   0.15673   0.37306   0.00000  Uiso   1.00
C727   C     0.96548   0.33673   0.56221   0.00000  Uiso   1.00
C728   C     0.98807   0.37985   0.58654   0.00000  Uiso   1.00
C729   C     0.99094   0.19194   0.57120   0.00000  Uiso   1.00
C730   C     0.96570   0.14903   0.58949   0.00000  Uiso   1.00
C731   C     0.62162   0.32760   0.58270   0.00000  Uiso   1.00
C732   C     0.64485   0.36978   0.60803   0.00000  Uiso   1.00
C733   C     0.88411   0.13811   0.46381   0.00000  Uiso   1.00
C734   C     0.78639   0.39836   0.52109   0.00000  Uiso   1.00
C735   C     0.85278   0.10088   0.43919   0.00000  Uiso   1.00
C736   C     0.86888   0.33632   0.41363   0.00000  Uiso   1.00
C737   C     0.84673   0.38103   0.39650   0.00000  Uiso   1.00
C738   C     0.59907   0.13573   0.49683   0.00000  Uiso   1.00
C739   C     0.62166   0.09192   0.51508   0.00000  Uiso   1.00
C740   C     0.72069   0.01088   0.39137   0.00000  Uiso   1.00
C741   C     0.68793   0.48476   0.35489   0.00000  Uiso   1.00
C742   C     0.86097   0.46466   0.49023   0.00000  Uiso   1.00
C743   C     0.90541   0.49007   0.50494   0.00000  Uiso   1.00
C744   C     0.78302   0.02063   0.61444   0.00000  Uiso   1.00
C745   C     0.77595   0.10411   0.53558   0.00000  Uiso   1.00
C746   C     0.81667   0.49722   0.65036   0.00000  Uiso   1.00
C747   C     0.65469   0.47654   0.53387   0.00000  Uiso   1.00
C748   C     0.60348   0.47077   0.53384   0.00000  Uiso   1.00
C749   C     0.71403   0.39791   0.48107   0.00000  Uiso   1.00
C750   C     0.72555   0.05129   0.46484   0.00000  Uiso   1.00
C751   C     0.79029   0.44732   0.51604   0.00000  Uiso   1.00
C752   C     0.77660   0.05514   0.53823   0.00000  Uiso   1.00
Cl753  Cl    0.69335   0.12841   0.41756   0.00000  Uiso   1.00
Cl754  Cl    0.82763   0.37045   0.55865   0.00000  Uiso   1.00
Cl755  Cl    0.81103   0.13636   0.57883   0.00000  Uiso   1.00
Cl756  Cl    0.67096   0.37037   0.44346   0.00000  Uiso   1.00
H757   H     0.52078   0.31268   0.39474   0.00000  Uiso   1.00
H758   H     0.54679   0.14563   0.40243   0.00000  Uiso   1.00
H759   H     0.98310   0.30564   0.57729   0.00000  Uiso   1.00
H760   H     0.92951   0.33511   0.57243   0.00000  Uiso   1.00
H761   H     0.97166   0.41164   0.57196   0.00000  Uiso   1.00
H762   H     0.98479   0.37848   0.62751   0.00000  Uiso   1.00
H763   H     0.52447   0.38160   0.57850   0.00000  Uiso   1.00
H764   H     0.96584   0.21942   0.56398   0.00000  Uiso   1.00
H765   H     0.51594   0.20432   0.60102   0.00000  Uiso   1.00
H766   H     0.94127   0.13557   0.55983   0.00000  Uiso   1.00
H767   H     0.94681   0.15802   0.62269   0.00000  Uiso   1.00
H768   H     0.58130   0.32066   0.40744   0.00000  Uiso   1.00
H769   H     0.98994   0.12136   0.59943   0.00000  Uiso   1.00
H770   H     0.64295   0.29718   0.59193   0.00000  Uiso   1.00
H771   H     0.58804   0.32208   0.59899   0.00000  Uiso   1.00
H772   H     0.62260   0.40011   0.60490   0.00000  Uiso   1.00
H773   H     0.65164   0.36253   0.64828   0.00000  Uiso   1.00
H774   H     0.67751   0.37753   0.59092   0.00000  Uiso   1.00
H775   H     0.87398   0.14369   0.50262   0.00000  Uiso   1.00
H776   H     0.91913   0.12519   0.46483   0.00000  Uiso   1.00
H777   H     0.86576   0.09018   0.40290   0.00000  Uiso   1.00
H778   H     0.85040   0.07001   0.46354   0.00000  Uiso   1.00
H779   H     0.55409   0.38159   0.35161   0.00000  Uiso   1.00
H780   H     0.81841   0.11467   0.43247   0.00000  Uiso   1.00
H781   H     0.84418   0.30714   0.40491   0.00000  Uiso   1.00
H782   H     0.89920   0.33160   0.39133   0.00000  Uiso   1.00
H783   H     0.81757   0.38838   0.41939   0.00000  Uiso   1.00
H784   H     0.87172   0.41053   0.39914   0.00000  Uiso   1.00
H785   H     0.83427   0.37727   0.35692   0.00000  Uiso   1.00
H786   H     0.61409   0.14700   0.46162   0.00000  Uiso   1.00
H787   H     0.56269   0.12683   0.48907   0.00000  Uiso   1.00
H788   H     0.60272   0.07646   0.54587   0.00000  Uiso   1.00
H789   H     0.62222   0.06649   0.48386   0.00000  Uiso   1.00
H790   H     0.51197   0.39789   0.39453   0.00000  Uiso   1.00
H791   H     0.65678   0.10020   0.52927   0.00000  Uiso   1.00
H792   H     0.74653   0.48616   0.40523   0.00000  Uiso   1.00
H793   H     0.73727   0.04008   0.37186   0.00000  Uiso   1.00
H794   H     0.66496   0.00956   0.33561   0.00000  Uiso   1.00
H795   H     0.70674   0.46594   0.66009   0.00000  Uiso   1.00
H796   H     0.66746   0.45876   0.37509   0.00000  Uiso   1.00
H797   H     0.84655   0.47985   0.45497   0.00000  Uiso   1.00
H798   H     0.86868   0.42753   0.48451   0.00000  Uiso   1.00
H799   H     0.92163   0.47340   0.53822   0.00000  Uiso   1.00
H800   H     0.92852   0.48849   0.47373   0.00000  Uiso   1.00
H801   H     0.57149   0.40694   0.41146   0.00000  Uiso   1.00
H802   H     0.89956   0.02706   0.51413   0.00000  Uiso   1.00
H803   H     0.75597   0.49467   0.60283   0.00000  Uiso   1.00
H804   H     0.76816   0.05058   0.63342   0.00000  Uiso   1.00
H805   H     0.84140   0.02350   0.33337   0.00000  Uiso   1.00
H806   H     0.79907   0.47981   0.34742   0.00000  Uiso   1.00
H807   H     0.83514   0.47027   0.63042   0.00000  Uiso   1.00
H808   H     0.66475   0.01314   0.54311   0.00000  Uiso   1.00
H809   H     0.66960   0.45450   0.56410   0.00000  Uiso   1.00
H810   H     0.58723   0.49281   0.50464   0.00000  Uiso   1.00
H811   H     0.59156   0.48102   0.57078   0.00000  Uiso   1.00
H812   H     0.51994   0.22710   0.39887   0.00000  Uiso   1.00
H813   H     0.59322   0.43387   0.52597   0.00000  Uiso   1.00
H814   H     0.96988   0.20746   0.36228   0.00000  Uiso   1.00
H815   H     0.99843   0.12689   0.36319   0.00000  Uiso   1.00
H816   H     0.54045   0.16706   0.33992   0.00000  Uiso   1.00
N817   N     0.75000   0.12623   0.50000   0.00000  Uiso   1.00
N818   N     0.75000   0.37376   0.50000   0.00000  Uiso   1.00
O819   O     0.68453   0.28974   0.50000   0.00000  Uiso   1.00
O820   O     0.97437   0.18368   0.43537   0.00000  Uiso   1.00
O821   O     0.96849   0.33968   0.51001   0.00000  Uiso   1.00
O822   O     0.51243   0.18005   0.52737   0.00000  Uiso   1.00
O823   O     0.61653   0.33440   0.53037   0.00000  Uiso   1.00
O824   O     0.88020   0.17925   0.43574   0.00000  Uiso   1.00
O825   O     0.88115   0.33834   0.46548   0.00000  Uiso   1.00
O826   O     0.60580   0.17049   0.53390   0.00000  Uiso   1.00
O827   O     0.69637   0.02830   0.43063   0.00000  Uiso   1.00
O828   O     0.83122   0.46938   0.52902   0.00000  Uiso   1.00
O829   O     0.80636   0.03661   0.57342   0.00000  Uiso   1.00
O830   O     0.81547   0.21026   0.50000   0.00000  Uiso   1.00
O831   O     0.66888   0.46512   0.48595   0.00000  Uiso   1.00
O832   O     0.81547   0.28974   0.50000   0.00000  Uiso   1.00
O833   O     0.68453   0.21026   0.50000   0.00000  Uiso   1.00
O834   O     0.75000   0.28973   0.42845   0.00000  Uiso   1.00
O835   O     0.75000   0.21027   0.57155   0.00000  Uiso   1.00
O836   O     0.75000   0.28973   0.57155   0.00000  Uiso   1.00
O837   O     0.75000   0.21027   0.42845   0.00000  Uiso   1.00
O838   O     0.53954   0.33830   0.46542   0.00000  Uiso   1.00
Zn839  Zn    0.75000   0.30307   0.50000   0.00000  Uiso   1.00
Zn840  Zn    0.75000   0.19693   0.50000   0.00000  Uiso   1.00
C841   C     0.16392   0.74966   0.50439   0.00000  Uiso   1.00
C842   C     0.21119   0.94605   0.49022   0.00000  Uiso   1.00
C843   C     0.24973   0.74992   0.40628   0.00000  Uiso   1.00
C844   C     0.25020   0.75009   0.59372   0.00000  Uiso   1.00
C845   C     0.25121   0.52684   0.50236   0.00000  Uiso   1.00
C846   C     0.25101   0.97319   0.50349   0.00000  Uiso   1.00
C847   C     0.24989   0.74990   0.35512   0.00000  Uiso   1.00
C848   C     0.25006   0.75014   0.64488   0.00000  Uiso   1.00
C849   C     0.05215   0.79731   0.48818   0.00000  Uiso   1.00
C850   C     0.45145   0.72055   0.45461   0.00000  Uiso   1.00
C851   C     0.44935   0.79961   0.48838   0.00000  Uiso   1.00
C852   C     0.33500   0.75068   0.49231   0.00000  Uiso   1.00
C853   C     0.04029   0.71676   0.51360   0.00000  Uiso   1.00
C854   C     0.09525   0.79477   0.50956   0.00000  Uiso   1.00
C855   C     0.40454   0.71554   0.45938   0.00000  Uiso   1.00
C856   C     0.40343   0.79779   0.47760   0.00000  Uiso   1.00
C857   C     0.08737   0.71136   0.51665   0.00000  Uiso   1.00
C858   C     0.11524   0.75102   0.51089   0.00000  Uiso   1.00
C859   C     0.38148   0.75391   0.47695   0.00000  Uiso   1.00
C860   C     0.02280   0.75814   0.49215   0.00000  Uiso   1.00
C861   C     0.47450   0.76020   0.47694   0.00000  Uiso   1.00
C862   C     0.04751   0.83504   0.41412   0.00000  Uiso   1.00
C863   C     0.22556   0.60049   0.46471   0.00000  Uiso   1.00
C864   C     0.04612   0.88344   0.39153   0.00000  Uiso   1.00
C865   C     0.49554   0.69750   0.39175   0.00000  Uiso   1.00
C866   C     0.02184   0.65673   0.37306   0.00000  Uiso   1.00
C867   C     0.46548   0.83673   0.56221   0.00000  Uiso   1.00
C868   C     0.48807   0.87985   0.58654   0.00000  Uiso   1.00
C869   C     0.49094   0.69194   0.57120   0.00000  Uiso   1.00
C870   C     0.46570   0.64903   0.58949   0.00000  Uiso   1.00
C871   C     0.12162   0.82760   0.58270   0.00000  Uiso   1.00
C872   C     0.14485   0.86978   0.60803   0.00000  Uiso   1.00
C873   C     0.38411   0.63811   0.46381   0.00000  Uiso   1.00
C874   C     0.28639   0.89836   0.52109   0.00000  Uiso   1.00
C875   C     0.35278   0.60088   0.43919   0.00000  Uiso   1.00
C876   C     0.36888   0.83632   0.41363   0.00000  Uiso   1.00
C877   C     0.34673   0.88103   0.39650   0.00000  Uiso   1.00
C878   C     0.09907   0.63573   0.49683   0.00000  Uiso   1.00
C879   C     0.12166   0.59192   0.51508   0.00000  Uiso   1.00
C880   C     0.22069   0.51088   0.39137   0.00000  Uiso   1.00
C881   C     0.18793   0.98476   0.35489   0.00000  Uiso   1.00
C882   C     0.36097   0.96466   0.49023   0.00000  Uiso   1.00
C883   C     0.40541   0.99007   0.50494   0.00000  Uiso   1.00
C884   C     0.28302   0.52063   0.61444   0.00000  Uiso   1.00
C885   C     0.27595   0.60411   0.53558   0.00000  Uiso   1.00
C886   C     0.31667   0.99722   0.65036   0.00000  Uiso   1.00
C887   C     0.15469   0.97654   0.53387   0.00000  Uiso   1.00
C888   C     0.10348   0.97077   0.53384   0.00000  Uiso   1.00
C889   C     0.21403   0.89791   0.48107   0.00000  Uiso   1.00
C890   C     0.22555   0.55129   0.46484   0.00000  Uiso   1.00
C891   C     0.29029   0.94732   0.51604   0.00000  Uiso   1.00
C892   C     0.27660   0.55514   0.53823   0.00000  Uiso   1.00
Cl893  Cl    0.19335   0.62841   0.41756   0.00000  Uiso   1.00
Cl894  Cl    0.32763   0.87045   0.55865   0.00000  Uiso   1.00
Cl895  Cl    0.31103   0.63636   0.57883   0.00000  Uiso   1.00
Cl896  Cl    0.17096   0.87037   0.44346   0.00000  Uiso   1.00
H897   H     0.02078   0.81268   0.39474   0.00000  Uiso   1.00
H898   H     0.04679   0.64563   0.40243   0.00000  Uiso   1.00
H899   H     0.48310   0.80564   0.57729   0.00000  Uiso   1.00
H900   H     0.42951   0.83511   0.57243   0.00000  Uiso   1.00
H901   H     0.47166   0.91164   0.57196   0.00000  Uiso   1.00
H902   H     0.48479   0.87848   0.62751   0.00000  Uiso   1.00
H903   H     0.02447   0.88160   0.57850   0.00000  Uiso   1.00
H904   H     0.46584   0.71942   0.56398   0.00000  Uiso   1.00
H905   H     0.01594   0.70432   0.60102   0.00000  Uiso   1.00
H906   H     0.44127   0.63557   0.55983   0.00000  Uiso   1.00
H907   H     0.44681   0.65802   0.62269   0.00000  Uiso   1.00
H908   H     0.08130   0.82066   0.40744   0.00000  Uiso   1.00
H909   H     0.48994   0.62136   0.59943   0.00000  Uiso   1.00
H910   H     0.14295   0.79718   0.59193   0.00000  Uiso   1.00
H911   H     0.08804   0.82208   0.59899   0.00000  Uiso   1.00
H912   H     0.12260   0.90011   0.60490   0.00000  Uiso   1.00
H913   H     0.15164   0.86253   0.64828   0.00000  Uiso   1.00
H914   H     0.17751   0.87753   0.59092   0.00000  Uiso   1.00
H915   H     0.37398   0.64369   0.50262   0.00000  Uiso   1.00
H916   H     0.41913   0.62519   0.46483   0.00000  Uiso   1.00
H917   H     0.36576   0.59018   0.40290   0.00000  Uiso   1.00
H918   H     0.35040   0.57001   0.46354   0.00000  Uiso   1.00
H919   H     0.05409   0.88159   0.35161   0.00000  Uiso   1.00
H920   H     0.31841   0.61467   0.43247   0.00000  Uiso   1.00
H921   H     0.34418   0.80714   0.40491   0.00000  Uiso   1.00
H922   H     0.39920   0.83160   0.39133   0.00000  Uiso   1.00
H923   H     0.31757   0.88838   0.41939   0.00000  Uiso   1.00
H924   H     0.37172   0.91053   0.39914   0.00000  Uiso   1.00
H925   H     0.33427   0.87727   0.35692   0.00000  Uiso   1.00
H926   H     0.11409   0.64700   0.46162   0.00000  Uiso   1.00
H927   H     0.06269   0.62683   0.48907   0.00000  Uiso   1.00
H928   H     0.10272   0.57646   0.54587   0.00000  Uiso   1.00
H929   H     0.12222   0.56649   0.48386   0.00000  Uiso   1.00
H930   H     0.01197   0.89789   0.39453   0.00000  Uiso   1.00
H931   H     0.15678   0.60020   0.52927   0.00000  Uiso   1.00
H932   H     0.24653   0.98616   0.40523   0.00000  Uiso   1.00
H933   H     0.23727   0.54008   0.37186   0.00000  Uiso   1.00
H934   H     0.16496   0.50956   0.33561   0.00000  Uiso   1.00
H935   H     0.20674   0.96594   0.66009   0.00000  Uiso   1.00
H936   H     0.16746   0.95876   0.37509   0.00000  Uiso   1.00
H937   H     0.34655   0.97985   0.45497   0.00000  Uiso   1.00
H938   H     0.36868   0.92753   0.48451   0.00000  Uiso   1.00
H939   H     0.42163   0.97340   0.53822   0.00000  Uiso   1.00
H940   H     0.42852   0.98849   0.47373   0.00000  Uiso   1.00
H941   H     0.07149   0.90694   0.41146   0.00000  Uiso   1.00
H942   H     0.39956   0.52706   0.51413   0.00000  Uiso   1.00
H943   H     0.25597   0.99467   0.60283   0.00000  Uiso   1.00
H944   H     0.26816   0.55058   0.63342   0.00000  Uiso   1.00
H945   H     0.34140   0.52350   0.33337   0.00000  Uiso   1.00
H946   H     0.29907   0.97981   0.34742   0.00000  Uiso   1.00
H947   H     0.33514   0.97027   0.63042   0.00000  Uiso   1.00
H948   H     0.16475   0.51314   0.54311   0.00000  Uiso   1.00
H949   H     0.16960   0.95450   0.56410   0.00000  Uiso   1.00
H950   H     0.08723   0.99281   0.50464   0.00000  Uiso   1.00
H951   H     0.09156   0.98102   0.57078   0.00000  Uiso   1.00
H952   H     0.01994   0.72710   0.39887   0.00000  Uiso   1.00
H953   H     0.09322   0.93387   0.52597   0.00000  Uiso   1.00
H954   H     0.46988   0.70746   0.36228   0.00000  Uiso   1.00
H955   H     0.49843   0.62689   0.36319   0.00000  Uiso   1.00
H956   H     0.04045   0.66706   0.33992   0.00000  Uiso   1.00
N957   N     0.25000   0.62623   0.50000   0.00000  Uiso   1.00
N958   N     0.25000   0.87376   0.50000   0.00000  Uiso   1.00
O959   O     0.18453   0.78974   0.50000   0.00000  Uiso   1.00
O960   O     0.47437   0.68368   0.43537   0.00000  Uiso   1.00
O961   O     0.46849   0.83968   0.51001   0.00000  Uiso   1.00
O962   O     0.01243   0.68005   0.52737   0.00000  Uiso   1.00
O963   O     0.11653   0.83440   0.53037   0.00000  Uiso   1.00
O964   O     0.38020   0.67925   0.43574   0.00000  Uiso   1.00
O965   O     0.38115   0.83834   0.46548   0.00000  Uiso   1.00
O966   O     0.10580   0.67049   0.53390   0.00000  Uiso   1.00
O967   O     0.19637   0.52830   0.43063   0.00000  Uiso   1.00
O968   O     0.33122   0.96938   0.52902   0.00000  Uiso   1.00
O969   O     0.30636   0.53661   0.57342   0.00000  Uiso   1.00
O970   O     0.31547   0.71026   0.50000   0.00000  Uiso   1.00
O971   O     0.16888   0.96512   0.48595   0.00000  Uiso   1.00
O972   O     0.31547   0.78974   0.50000   0.00000  Uiso   1.00
O973   O     0.18453   0.71026   0.50000   0.00000  Uiso   1.00
O974   O     0.25000   0.78973   0.42845   0.00000  Uiso   1.00
O975   O     0.25000   0.71027   0.57155   0.00000  Uiso   1.00
O976   O     0.25000   0.78973   0.57155   0.00000  Uiso   1.00
O977   O     0.25000   0.71027   0.42845   0.00000  Uiso   1.00
O978   O     0.03954   0.83830   0.46542   0.00000  Uiso   1.00
Zn979  Zn    0.25000   0.80307   0.50000   0.00000  Uiso   1.00
Zn980  Zn    0.25000   0.69693   0.50000   0.00000  Uiso   1.00
C981   C     0.66392   0.74966   0.50439   0.00000  Uiso   1.00
C982   C     0.71119   0.94605   0.49022   0.00000  Uiso   1.00
C983   C     0.74973   0.74992   0.40628   0.00000  Uiso   1.00
C984   C     0.75020   0.75009   0.59372   0.00000  Uiso   1.00
C985   C     0.75121   0.52684   0.50236   0.00000  Uiso   1.00
C986   C     0.75101   0.97319   0.50349   0.00000  Uiso   1.00
C987   C     0.74989   0.74990   0.35512   0.00000  Uiso   1.00
C988   C     0.75006   0.75014   0.64488   0.00000  Uiso   1.00
C989   C     0.55215   0.79731   0.48818   0.00000  Uiso   1.00
C990   C     0.95145   0.72055   0.45461   0.00000  Uiso   1.00
C991   C     0.94935   0.79961   0.48838   0.00000  Uiso   1.00
C992   C     0.83500   0.75068   0.49231   0.00000  Uiso   1.00
C993   C     0.54029   0.71676   0.51360   0.00000  Uiso   1.00
C994   C     0.59525   0.79477   0.50956   0.00000  Uiso   1.00
C995   C     0.90454   0.71554   0.45938   0.00000  Uiso   1.00
C996   C     0.90343   0.79779   0.47760   0.00000  Uiso   1.00
C997   C     0.58737   0.71136   0.51665   0.00000  Uiso   1.00
C998   C     0.61524   0.75102   0.51089   0.00000  Uiso   1.00
C999   C     0.88148   0.75391   0.47695   0.00000  Uiso   1.00
C1000  C     0.52280   0.75814   0.49215   0.00000  Uiso   1.00
C1001  C     0.97450   0.76020   0.47694   0.00000  Uiso   1.00
C1002  C     0.54751   0.83504   0.41412   0.00000  Uiso   1.00
C1003  C     0.72556   0.60049   0.46471   0.00000  Uiso   1.00
C1004  C     0.54612   0.88344   0.39153   0.00000  Uiso   1.00
C1005  C     0.99554   0.69750   0.39175   0.00000  Uiso   1.00
C1006  C     0.52184   0.65673   0.37306   0.00000  Uiso   1.00
C1007  C     0.96548   0.83673   0.56221   0.00000  Uiso   1.00
C1008  C     0.98807   0.87985   0.58654   0.00000  Uiso   1.00
C1009  C     0.99094   0.69194   0.57120   0.00000  Uiso   1.00
C1010  C     0.96570   0.64903   0.58949   0.00000  Uiso   1.00
C1011  C     0.62162   0.82760   0.58270   0.00000  Uiso   1.00
C1012  C     0.64485   0.86978   0.60803   0.00000  Uiso   1.00
C1013  C     0.88411   0.63811   0.46381   0.00000  Uiso   1.00
C1014  C     0.78639   0.89836   0.52109   0.00000  Uiso   1.00
C1015  C     0.85278   0.60088   0.43919   0.00000  Uiso   1.00
C1016  C     0.86888   0.83632   0.41363   0.00000  Uiso   1.00
C1017  C     0.84673   0.88103   0.39650   0.00000  Uiso   1.00
C1018  C     0.59907   0.63573   0.49683   0.00000  Uiso   1.00
C1019  C     0.62166   0.59192   0.51508   0.00000  Uiso   1.00
C1020  C     0.72069   0.51088   0.39137   0.00000  Uiso   1.00
C1021  C     0.68793   0.98476   0.35489   0.00000  Uiso   1.00
C1022  C     0.86097   0.96466   0.49023   0.00000  Uiso   1.00
C1023  C     0.90541   0.99007   0.50494   0.00000  Uiso   1.00
C1024  C     0.78302   0.52063   0.61444   0.00000  Uiso   1.00
C1025  C     0.77595   0.60411   0.53558   0.00000  Uiso   1.00
C1026  C     0.81667   0.99722   0.65036   0.00000  Uiso   1.00
C1027  C     0.65469   0.97654   0.53387   0.00000  Uiso   1.00
C1028  C     0.60348   0.97077   0.53384   0.00000  Uiso   1.00
C1029  C     0.71403   0.89791   0.48107   0.00000  Uiso   1.00
C1030  C     0.72555   0.55129   0.46484   0.00000  Uiso   1.00
C1031  C     0.79029   0.94732   0.51604   0.00000  Uiso   1.00
C1032  C     0.77660   0.55514   0.53823   0.00000  Uiso   1.00
Cl1033 Cl    0.69335   0.62841   0.41756   0.00000  Uiso   1.00
Cl1034 Cl    0.82763   0.87045   0.55865   0.00000  Uiso   1.00
Cl1035 Cl    0.81103   0.63636   0.57883   0.00000  Uiso   1.00
Cl1036 Cl    0.67096   0.87037   0.44346   0.00000  Uiso   1.00
H1037  H     0.52078   0.81268   0.39474   0.00000  Uiso   1.00
H1038  H     0.54679   0.64563   0.40243   0.00000  Uiso   1.00
H1039  H     0.98310   0.80564   0.57729   0.00000  Uiso   1.00
H1040  H     0.92951   0.83511   0.57243   0.00000  Uiso   1.00
H1041  H     0.97166   0.91164   0.57196   0.00000  Uiso   1.00
H1042  H     0.98479   0.87848   0.62751   0.00000  Uiso   1.00
H1043  H     0.52447   0.88160   0.57850   0.00000  Uiso   1.00
H1044  H     0.96584   0.71942   0.56398   0.00000  Uiso   1.00
H1045  H     0.51594   0.70432   0.60102   0.00000  Uiso   1.00
H1046  H     0.94127   0.63557   0.55983   0.00000  Uiso   1.00
H1047  H     0.94681   0.65802   0.62269   0.00000  Uiso   1.00
H1048  H     0.58130   0.82066   0.40744   0.00000  Uiso   1.00
H1049  H     0.98994   0.62136   0.59943   0.00000  Uiso   1.00
H1050  H     0.64295   0.79718   0.59193   0.00000  Uiso   1.00
H1051  H     0.58804   0.82208   0.59899   0.00000  Uiso   1.00
H1052  H     0.62260   0.90011   0.60490   0.00000  Uiso   1.00
H1053  H     0.65164   0.86253   0.64828   0.00000  Uiso   1.00
H1054  H     0.67751   0.87753   0.59092   0.00000  Uiso   1.00
H1055  H     0.87398   0.64369   0.50262   0.00000  Uiso   1.00
H1056  H     0.91913   0.62519   0.46483   0.00000  Uiso   1.00
H1057  H     0.86576   0.59018   0.40290   0.00000  Uiso   1.00
H1058  H     0.85040   0.57001   0.46354   0.00000  Uiso   1.00
H1059  H     0.55409   0.88159   0.35161   0.00000  Uiso   1.00
H1060  H     0.81841   0.61467   0.43247   0.00000  Uiso   1.00
H1061  H     0.84418   0.80714   0.40491   0.00000  Uiso   1.00
H1062  H     0.89920   0.83160   0.39133   0.00000  Uiso   1.00
H1063  H     0.81757   0.88838   0.41939   0.00000  Uiso   1.00
H1064  H     0.87172   0.91053   0.39914   0.00000  Uiso   1.00
H1065  H     0.83427   0.87727   0.35692   0.00000  Uiso   1.00
H1066  H     0.61409   0.64700   0.46162   0.00000  Uiso   1.00
H1067  H     0.56269   0.62683   0.48907   0.00000  Uiso   1.00
H1068  H     0.60272   0.57646   0.54587   0.00000  Uiso   1.00
H1069  H     0.62222   0.56649   0.48386   0.00000  Uiso   1.00
H1070  H     0.51197   0.89789   0.39453   0.00000  Uiso   1.00
H1071  H     0.65678   0.60020   0.52927   0.00000  Uiso   1.00
H1072  H     0.74653   0.98616   0.40523   0.00000  Uiso   1.00
H1073  H     0.73727   0.54008   0.37186   0.00000  Uiso   1.00
H1074  H     0.66496   0.50956   0.33561   0.00000  Uiso   1.00
H1075  H     0.70674   0.96594   0.66009   0.00000  Uiso   1.00
H1076  H     0.66746   0.95876   0.37509   0.00000  Uiso   1.00
H1077  H     0.84655   0.97985   0.45497   0.00000  Uiso   1.00
H1078  H     0.86868   0.92753   0.48451   0.00000  Uiso   1.00
H1079  H     0.92163   0.97340   0.53822   0.00000  Uiso   1.00
H1080  H     0.92852   0.98849   0.47373   0.00000  Uiso   1.00
H1081  H     0.57149   0.90694   0.41146   0.00000  Uiso   1.00
H1082  H     0.89956   0.52706   0.51413   0.00000  Uiso   1.00
H1083  H     0.75597   0.99467   0.60283   0.00000  Uiso   1.00
H1084  H     0.76816   0.55058   0.63342   0.00000  Uiso   1.00
H1085  H     0.84140   0.52350   0.33337   0.00000  Uiso   1.00
H1086  H     0.79907   0.97981   0.34742   0.00000  Uiso   1.00
H1087  H     0.83514   0.97027   0.63042   0.00000  Uiso   1.00
H1088  H     0.66475   0.51314   0.54311   0.00000  Uiso   1.00
H1089  H     0.66960   0.95450   0.56410   0.00000  Uiso   1.00
H1090  H     0.58723   0.99281   0.50464   0.00000  Uiso   1.00
H1091  H     0.59156   0.98102   0.57078   0.00000  Uiso   1.00
H1092  H     0.51994   0.72710   0.39887   0.00000  Uiso   1.00
H1093  H     0.59322   0.93387   0.52597   0.00000  Uiso   1.00
H1094  H     0.96988   0.70746   0.36228   0.00000  Uiso   1.00
H1095  H     0.99843   0.62689   0.36319   0.00000  Uiso   1.00
H1096  H     0.54045   0.66706   0.33992   0.00000  Uiso   1.00
N1097  N     0.75000   0.62623   0.50000   0.00000  Uiso   1.00
N1098  N     0.75000   0.87376   0.50000   0.00000  Uiso   1.00
O1099  O     0.68453   0.78974   0.50000   0.00000  Uiso   1.00
O1100  O     0.97437   0.68368   0.43537   0.00000  Uiso   1.00
O1101  O     0.96849   0.83968   0.51001   0.00000  Uiso   1.00
O1102  O     0.51243   0.68005   0.52737   0.00000  Uiso   1.00
O1103  O     0.61653   0.83440   0.53037   0.00000  Uiso   1.00
O1104  O     0.88020   0.67925   0.43574   0.00000  Uiso   1.00
O1105  O     0.88115   0.83834   0.46548   0.00000  Uiso   1.00
O1106  O     0.60580   0.67049   0.53390   0.00000  Uiso   1.00
O1107  O     0.69637   0.52830   0.43063   0.00000  Uiso   1.00
O1108  O     0.83122   0.96938   0.52902   0.00000  Uiso   1.00
O1109  O     0.80636   0.53661   0.57342   0.00000  Uiso   1.00
O1110  O     0.81547   0.71026   0.50000   0.00000  Uiso   1.00
O1111  O     0.66888   0.96512   0.48595   0.00000  Uiso   1.00
O1112  O     0.81547   0.78974   0.50000   0.00000  Uiso   1.00
O1113  O     0.68453   0.71026   0.50000   0.00000  Uiso   1.00
O1114  O     0.75000   0.78973   0.42845   0.00000  Uiso   1.00
O1115  O     0.75000   0.71027   0.57155   0.00000  Uiso   1.00
O1116  O     0.75000   0.78973   0.57155   0.00000  Uiso   1.00
O1117  O     0.75000   0.71027   0.42845   0.00000  Uiso   1.00
O1118  O     0.53954   0.83830   0.46542   0.00000  Uiso   1.00
Zn1119 Zn    0.75000   0.80307   0.50000   0.00000  Uiso   1.00
Zn1120 Zn    0.75000   0.69693   0.50000   0.00000  Uiso   1.00
C1121  C     0.16392   0.24966   0.83773   0.00000  Uiso   1.00
C1122  C     0.21119   0.44605   0.82356   0.00000  Uiso   1.00
C1123  C     0.24973   0.24992   0.73961   0.00000  Uiso   1.00
C1124  C     0.25020   0.25009   0.92705   0.00000  Uiso   1.00
C1125  C     0.25121   0.02684   0.83569   0.00000  Uiso   1.00
C1126  C     0.25101   0.47319   0.83683   0.00000  Uiso   1.00
C1127  C     0.24989   0.24990   0.68845   0.00000  Uiso   1.00
C1128  C     0.25006   0.25014   0.97822   0.00000  Uiso   1.00
C1129  C     0.05215   0.29731   0.82151   0.00000  Uiso   1.00
C1130  C     0.45145   0.22055   0.78794   0.00000  Uiso   1.00
C1131  C     0.44935   0.29961   0.82171   0.00000  Uiso   1.00
C1132  C     0.33500   0.25068   0.82565   0.00000  Uiso   1.00
C1133  C     0.04029   0.21676   0.84693   0.00000  Uiso   1.00
C1134  C     0.09525   0.29477   0.84289   0.00000  Uiso   1.00
C1135  C     0.40454   0.21554   0.79272   0.00000  Uiso   1.00
C1136  C     0.40343   0.29779   0.81093   0.00000  Uiso   1.00
C1137  C     0.08737   0.21136   0.84998   0.00000  Uiso   1.00
C1138  C     0.11524   0.25102   0.84422   0.00000  Uiso   1.00
C1139  C     0.38148   0.25391   0.81028   0.00000  Uiso   1.00
C1140  C     0.02280   0.25814   0.82549   0.00000  Uiso   1.00
C1141  C     0.47450   0.26020   0.81027   0.00000  Uiso   1.00
C1142  C     0.04751   0.33504   0.74746   0.00000  Uiso   1.00
C1143  C     0.22556   0.10049   0.79804   0.00000  Uiso   1.00
C1144  C     0.04612   0.38344   0.72487   0.00000  Uiso   1.00
C1145  C     0.49554   0.19750   0.72508   0.00000  Uiso   1.00
C1146  C     0.02184   0.15673   0.70639   0.00000  Uiso   1.00
C1147  C     0.46548   0.33673   0.89554   0.00000  Uiso   1.00
C1148  C     0.48807   0.37985   0.91987   0.00000  Uiso   1.00
C1149  C     0.49094   0.19194   0.90454   0.00000  Uiso   1.00
C1150  C     0.46570   0.14903   0.92282   0.00000  Uiso   1.00
C1151  C     0.12162   0.32760   0.91604   0.00000  Uiso   1.00
C1152  C     0.14485   0.36978   0.94136   0.00000  Uiso   1.00
C1153  C     0.38411   0.13811   0.79714   0.00000  Uiso   1.00
C1154  C     0.28639   0.39836   0.85442   0.00000  Uiso   1.00
C1155  C     0.35278   0.10088   0.77253   0.00000  Uiso   1.00
C1156  C     0.36888   0.33632   0.74696   0.00000  Uiso   1.00
C1157  C     0.34673   0.38103   0.72984   0.00000  Uiso   1.00
C1158  C     0.09907   0.13573   0.83016   0.00000  Uiso   1.00
C1159  C     0.12166   0.09192   0.84842   0.00000  Uiso   1.00
C1160  C     0.22069   0.01088   0.72470   0.00000  Uiso   1.00
C1161  C     0.18793   0.48476   0.68822   0.00000  Uiso   1.00
C1162  C     0.36097   0.46466   0.82356   0.00000  Uiso   1.00
C1163  C     0.40541   0.49007   0.83827   0.00000  Uiso   1.00
C1164  C     0.28302   0.02063   0.94777   0.00000  Uiso   1.00
C1165  C     0.27595   0.10411   0.86891   0.00000  Uiso   1.00
C1166  C     0.31667   0.49722   0.98369   0.00000  Uiso   1.00
C1167  C     0.15469   0.47654   0.86721   0.00000  Uiso   1.00
C1168  C     0.10348   0.47077   0.86717   0.00000  Uiso   1.00
C1169  C     0.21403   0.39791   0.81441   0.00000  Uiso   1.00
C1170  C     0.22555   0.05129   0.79818   0.00000  Uiso   1.00
C1171  C     0.29029   0.44732   0.84937   0.00000  Uiso   1.00
C1172  C     0.27660   0.05514   0.87157   0.00000  Uiso   1.00
Cl1173 Cl    0.19335   0.12841   0.75090   0.00000  Uiso   1.00
Cl1174 Cl    0.32763   0.37045   0.89199   0.00000  Uiso   1.00
Cl1175 Cl    0.31103   0.13636   0.91217   0.00000  Uiso   1.00
Cl1176 Cl    0.17096   0.37037   0.77679   0.00000  Uiso   1.00
H1177  H     0.02078   0.31268   0.72807   0.00000  Uiso   1.00
H1178  H     0.04679   0.14563   0.73576   0.00000  Uiso   1.00
H1179  H     0.48310   0.30564   0.91062   0.00000  Uiso   1.00
H1180  H     0.42951   0.33511   0.90577   0.00000  Uiso   1.00
H1181  H     0.47166   0.41164   0.90530   0.00000  Uiso   1.00
H1182  H     0.48479   0.37848   0.96084   0.00000  Uiso   1.00
H1183  H     0.02447   0.38160   0.91183   0.00000  Uiso   1.00
H1184  H     0.46584   0.21942   0.89731   0.00000  Uiso   1.00
H1185  H     0.01594   0.20432   0.93436   0.00000  Uiso   1.00
H1186  H     0.44127   0.13557   0.89317   0.00000  Uiso   1.00
H1187  H     0.44681   0.15802   0.95603   0.00000  Uiso   1.00
H1188  H     0.08130   0.32066   0.74077   0.00000  Uiso   1.00
H1189  H     0.48994   0.12136   0.93277   0.00000  Uiso   1.00
H1190  H     0.14295   0.29718   0.92527   0.00000  Uiso   1.00
H1191  H     0.08804   0.32208   0.93232   0.00000  Uiso   1.00
H1192  H     0.12260   0.40011   0.93824   0.00000  Uiso   1.00
H1193  H     0.15164   0.36253   0.98161   0.00000  Uiso   1.00
H1194  H     0.17751   0.37753   0.92425   0.00000  Uiso   1.00
H1195  H     0.37398   0.14369   0.83595   0.00000  Uiso   1.00
H1196  H     0.41913   0.12519   0.79816   0.00000  Uiso   1.00
H1197  H     0.36576   0.09018   0.73623   0.00000  Uiso   1.00
H1198  H     0.35040   0.07001   0.79687   0.00000  Uiso   1.00
H1199  H     0.05409   0.38159   0.68494   0.00000  Uiso   1.00
H1200  H     0.31841   0.11467   0.76580   0.00000  Uiso   1.00
H1201  H     0.34418   0.30714   0.73824   0.00000  Uiso   1.00
H1202  H     0.39920   0.33160   0.72466   0.00000  Uiso   1.00
H1203  H     0.31757   0.38838   0.75273   0.00000  Uiso   1.00
H1204  H     0.37172   0.41053   0.73247   0.00000  Uiso   1.00
H1205  H     0.33427   0.37727   0.69025   0.00000  Uiso   1.00
H1206  H     0.11409   0.14700   0.79496   0.00000  Uiso   1.00
H1207  H     0.06269   0.12683   0.82240   0.00000  Uiso   1.00
H1208  H     0.10272   0.07646   0.87920   0.00000  Uiso   1.00
H1209  H     0.12222   0.06649   0.81720   0.00000  Uiso   1.00
H1210  H     0.01197   0.39789   0.72786   0.00000  Uiso   1.00
H1211  H     0.15678   0.10020   0.86260   0.00000  Uiso   1.00
H1212  H     0.24653   0.48616   0.73856   0.00000  Uiso   1.00
H1213  H     0.23727   0.04008   0.70519   0.00000  Uiso   1.00
H1214  H     0.16496   0.00956   0.66895   0.00000  Uiso   1.00
H1215  H     0.20674   0.46594   0.99342   0.00000  Uiso   1.00
H1216  H     0.16746   0.45876   0.70842   0.00000  Uiso   1.00
H1217  H     0.34655   0.47985   0.78831   0.00000  Uiso   1.00
H1218  H     0.36868   0.42753   0.81785   0.00000  Uiso   1.00
H1219  H     0.42163   0.47340   0.87155   0.00000  Uiso   1.00
H1220  H     0.42852   0.48849   0.80706   0.00000  Uiso   1.00
H1221  H     0.07149   0.40694   0.74479   0.00000  Uiso   1.00
H1222  H     0.39956   0.02706   0.84746   0.00000  Uiso   1.00
H1223  H     0.25597   0.49467   0.93617   0.00000  Uiso   1.00
H1224  H     0.26816   0.05058   0.96676   0.00000  Uiso   1.00
H1225  H     0.34140   0.02350   0.66671   0.00000  Uiso   1.00
H1226  H     0.29907   0.47981   0.68076   0.00000  Uiso   1.00
H1227  H     0.33514   0.47027   0.96376   0.00000  Uiso   1.00
H1228  H     0.16475   0.01314   0.87644   0.00000  Uiso   1.00
H1229  H     0.16960   0.45450   0.89744   0.00000  Uiso   1.00
H1230  H     0.08723   0.49281   0.83797   0.00000  Uiso   1.00
H1231  H     0.09156   0.48102   0.90411   0.00000  Uiso   1.00
H1232  H     0.01994   0.22710   0.73221   0.00000  Uiso   1.00
H1233  H     0.09322   0.43387   0.85930   0.00000  Uiso   1.00
H1234  H     0.46988   0.20746   0.69561   0.00000  Uiso   1.00
H1235  H     0.49843   0.12689   0.69652   0.00000  Uiso   1.00
H1236  H     0.04045   0.16706   0.67326   0.00000  Uiso   1.00
N1237  N     0.25000   0.12623   0.83333   0.00000  Uiso   1.00
N1238  N     0.25000   0.37376   0.83333   0.00000  Uiso   1.00
O1239  O     0.18453   0.28974   0.83334   0.00000  Uiso   1.00
O1240  O     0.47437   0.18368   0.76871   0.00000  Uiso   1.00
O1241  O     0.46849   0.33968   0.84335   0.00000  Uiso   1.00
O1242  O     0.01243   0.18005   0.86070   0.00000  Uiso   1.00
O1243  O     0.11653   0.33440   0.86370   0.00000  Uiso   1.00
O1244  O     0.38020   0.17925   0.76907   0.00000  Uiso   1.00
O1245  O     0.38115   0.33834   0.79881   0.00000  Uiso   1.00
O1246  O     0.10580   0.17049   0.86723   0.00000  Uiso   1.00
O1247  O     0.19637   0.02830   0.76396   0.00000  Uiso   1.00
O1248  O     0.33122   0.46938   0.86235   0.00000  Uiso   1.00
O1249  O     0.30636   0.03661   0.90675   0.00000  Uiso   1.00
O1250  O     0.31547   0.21026   0.83333   0.00000  Uiso   1.00
O1251  O     0.16888   0.46512   0.81929   0.00000  Uiso   1.00
O1252  O     0.31547   0.28974   0.83333   0.00000  Uiso   1.00
O1253  O     0.18453   0.21026   0.83334   0.00000  Uiso   1.00
O1254  O     0.25000   0.28973   0.76178   0.00000  Uiso   1.00
O1255  O     0.25000   0.21027   0.90489   0.00000  Uiso   1.00
O1256  O     0.25000   0.28973   0.90489   0.00000  Uiso   1.00
O1257  O     0.25000   0.21027   0.76178   0.00000  Uiso   1.00
O1258  O     0.03954   0.33830   0.79875   0.00000  Uiso   1.00
Zn1259 Zn    0.25000   0.30307   0.83333   0.00000  Uiso   1.00
Zn1260 Zn    0.25000   0.19693   0.83333   0.00000  Uiso   1.00
C1261  C     0.66392   0.24966   0.83773   0.00000  Uiso   1.00
C1262  C     0.71119   0.44605   0.82356   0.00000  Uiso   1.00
C1263  C     0.74973   0.24992   0.73961   0.00000  Uiso   1.00
C1264  C     0.75020   0.25009   0.92705   0.00000  Uiso   1.00
C1265  C     0.75121   0.02684   0.83569   0.00000  Uiso   1.00
C1266  C     0.75101   0.47319   0.83683   0.00000  Uiso   1.00
C1267  C     0.74989   0.24990   0.68845   0.00000  Uiso   1.00
C1268  C     0.75006   0.25014   0.97822   0.00000  Uiso   1.00
C1269  C     0.55215   0.29731   0.82151   0.00000  Uiso   1.00
C1270  C     0.95145   0.22055   0.78794   0.00000  Uiso   1.00
C1271  C     0.94935   0.29961   0.82171   0.00000  Uiso   1.00
C1272  C     0.83500   0.25068   0.82565   0.00000  Uiso   1.00
C1273  C     0.54029   0.21676   0.84693   0.00000  Uiso   1.00
C1274  C     0.59525   0.29477   0.84289   0.00000  Uiso   1.00
C1275  C     0.90454   0.21554   0.79272   0.00000  Uiso   1.00
C1276  C     0.90343   0.29779   0.81093   0.00000  Uiso   1.00
C1277  C     0.58737   0.21136   0.84998   0.00000  Uiso   1.00
C1278  C     0.61524   0.25102   0.84422   0.00000  Uiso   1.00
C1279  C     0.88148   0.25391   0.81028   0.00000  Uiso   1.00
C1280  C     0.52280   0.25814   0.82549   0.00000  Uiso   1.00
C1281  C     0.97450   0.26020   0.81027   0.00000  Uiso   1.00
C1282  C     0.54751   0.33504   0.74746   0.00000  Uiso   1.00
C1283  C     0.72556   0.10049   0.79804   0.00000  Uiso   1.00
C1284  C     0.54612   0.38344   0.72487   0.00000  Uiso   1.00
C1285  C     0.99554   0.19750   0.72508   0.00000  Uiso   1.00
C1286  C     0.52184   0.15673   0.70639   0.00000  Uiso   1.00
C1287  C     0.96548   0.33673   0.89554   0.00000  Uiso   1.00
C1288  C     0.98807   0.37985   0.91987   0.00000  Uiso   1.00
C1289  C     0.99094   0.19194   0.90454   0.00000  Uiso   1.00
C1290  C     0.96570   0.14903   0.92282   0.00000  Uiso   1.00
C1291  C     0.62162   0.32760   0.91604   0.00000  Uiso   1.00
C1292  C     0.64485   0.36978   0.94136   0.00000  Uiso   1.00
C1293  C     0.88411   0.13811   0.79714   0.00000  Uiso   1.00
C1294  C     0.78639   0.39836   0.85442   0.00000  Uiso   1.00
C1295  C     0.85278   0.10088   0.77253   0.00000  Uiso   1.00
C1296  C     0.86888   0.33632   0.74696   0.00000  Uiso   1.00
C1297  C     0.84673   0.38103   0.72984   0.00000  Uiso   1.00
C1298  C     0.59907   0.13573   0.83016   0.00000  Uiso   1.00
C1299  C     0.62166   0.09192   0.84842   0.00000  Uiso   1.00
C1300  C     0.72069   0.01088   0.72470   0.00000  Uiso   1.00
C1301  C     0.68793   0.48476   0.68822   0.00000  Uiso   1.00
C1302  C     0.86097   0.46466   0.82356   0.00000  Uiso   1.00
C1303  C     0.90541   0.49007   0.83827   0.00000  Uiso   1.00
C1304  C     0.78302   0.02063   0.94777   0.00000  Uiso   1.00
C1305  C     0.77595   0.10411   0.86891   0.00000  Uiso   1.00
C1306  C     0.81667   0.49722   0.98369   0.00000  Uiso   1.00
C1307  C     0.65469   0.47654   0.86721   0.00000  Uiso   1.00
C1308  C     0.60348   0.47077   0.86717   0.00000  Uiso   1.00
C1309  C     0.71403   0.39791   0.81441   0.00000  Uiso   1.00
C1310  C     0.72555   0.05129   0.79818   0.00000  Uiso   1.00
C1311  C     0.79029   0.44732   0.84937   0.00000  Uiso   1.00
C1312  C     0.77660   0.05514   0.87157   0.00000  Uiso   1.00
Cl1313 Cl    0.69335   0.12841   0.75090   0.00000  Uiso   1.00
Cl1314 Cl    0.82763   0.37045   0.89199   0.00000  Uiso   1.00
Cl1315 Cl    0.81103   0.13636   0.91217   0.00000  Uiso   1.00
Cl1316 Cl    0.67096   0.37037   0.77679   0.00000  Uiso   1.00
H1317  H     0.52078   0.31268   0.72807   0.00000  Uiso   1.00
H1318  H     0.54679   0.14563   0.73576   0.00000  Uiso   1.00
H1319  H     0.98310   0.30564   0.91062   0.00000  Uiso   1.00
H1320  H     0.92951   0.33511   0.90577   0.00000  Uiso   1.00
H1321  H     0.97166   0.41164   0.90530   0.00000  Uiso   1.00
H1322  H     0.98479   0.37848   0.96084   0.00000  Uiso   1.00
H1323  H     0.52447   0.38160   0.91183   0.00000  Uiso   1.00
H1324  H     0.96584   0.21942   0.89731   0.00000  Uiso   1.00
H1325  H     0.51594   0.20432   0.93436   0.00000  Uiso   1.00
H1326  H     0.94127   0.13557   0.89317   0.00000  Uiso   1.00
H1327  H     0.94681   0.15802   0.95603   0.00000  Uiso   1.00
H1328  H     0.58130   0.32066   0.74077   0.00000  Uiso   1.00
H1329  H     0.98994   0.12136   0.93277   0.00000  Uiso   1.00
H1330  H     0.64295   0.29718   0.92527   0.00000  Uiso   1.00
H1331  H     0.58804   0.32208   0.93232   0.00000  Uiso   1.00
H1332  H     0.62260   0.40011   0.93824   0.00000  Uiso   1.00
H1333  H     0.65164   0.36253   0.98161   0.00000  Uiso   1.00
H1334  H     0.67751   0.37753   0.92425   0.00000  Uiso   1.00
H1335  H     0.87398   0.14369   0.83595   0.00000  Uiso   1.00
H1336  H     0.91913   0.12519   0.79816   0.00000  Uiso   1.00
H1337  H     0.86576   0.09018   0.73623   0.00000  Uiso   1.00
H1338  H     0.85040   0.07001   0.79687   0.00000  Uiso   1.00
H1339  H     0.55409   0.38159   0.68494   0.00000  Uiso   1.00
H1340  H     0.81841   0.11467   0.76580   0.00000  Uiso   1.00
H1341  H     0.84418   0.30714   0.73824   0.00000  Uiso   1.00
H1342  H     0.89920   0.33160   0.72466   0.00000  Uiso   1.00
H1343  H     0.81757   0.38838   0.75273   0.00000  Uiso   1.00
H1344  H     0.87172   0.41053   0.73247   0.00000  Uiso   1.00
H1345  H     0.83427   0.37727   0.69025   0.00000  Uiso   1.00
H1346  H     0.61409   0.14700   0.79496   0.00000  Uiso   1.00
H1347  H     0.56269   0.12683   0.82240   0.00000  Uiso   1.00
H1348  H     0.60272   0.07646   0.87920   0.00000  Uiso   1.00
H1349  H     0.62222   0.06649   0.81720   0.00000  Uiso   1.00
H1350  H     0.51197   0.39789   0.72786   0.00000  Uiso   1.00
H1351  H     0.65678   0.10020   0.86260   0.00000  Uiso   1.00
H1352  H     0.74653   0.48616   0.73856   0.00000  Uiso   1.00
H1353  H     0.73727   0.04008   0.70519   0.00000  Uiso   1.00
H1354  H     0.66496   0.00956   0.66895   0.00000  Uiso   1.00
H1355  H     0.70674   0.46594   0.99342   0.00000  Uiso   1.00
H1356  H     0.66746   0.45876   0.70842   0.00000  Uiso   1.00
H1357  H     0.84655   0.47985   0.78831   0.00000  Uiso   1.00
H1358  H     0.86868   0.42753   0.81785   0.00000  Uiso   1.00
H1359  H     0.92163   0.47340   0.87155   0.00000  Uiso   1.00
H1360  H     0.92852   0.48849   0.80706   0.00000  Uiso   1.00
H1361  H     0.57149   0.40694   0.74479   0.00000  Uiso   1.00
H1362  H     0.89956   0.02706   0.84746   0.00000  Uiso   1.00
H1363  H     0.75597   0.49467   0.93617   0.00000  Uiso   1.00
H1364  H     0.76816   0.05058   0.96676   0.00000  Uiso   1.00
H1365  H     0.84140   0.02350   0.66671   0.00000  Uiso   1.00
H1366  H     0.79907   0.47981   0.68076   0.00000  Uiso   1.00
H1367  H     0.83514   0.47027   0.96376   0.00000  Uiso   1.00
H1368  H     0.66475   0.01314   0.87644   0.00000  Uiso   1.00
H1369  H     0.66960   0.45450   0.89744   0.00000  Uiso   1.00
H1370  H     0.58723   0.49281   0.83797   0.00000  Uiso   1.00
H1371  H     0.59156   0.48102   0.90411   0.00000  Uiso   1.00
H1372  H     0.51994   0.22710   0.73221   0.00000  Uiso   1.00
H1373  H     0.59322   0.43387   0.85930   0.00000  Uiso   1.00
H1374  H     0.96988   0.20746   0.69561   0.00000  Uiso   1.00
H1375  H     0.99843   0.12689   0.69652   0.00000  Uiso   1.00
H1376  H     0.54045   0.16706   0.67326   0.00000  Uiso   1.00
N1377  N     0.75000   0.12623   0.83333   0.00000  Uiso   1.00
N1378  N     0.75000   0.37376   0.83333   0.00000  Uiso   1.00
O1379  O     0.68453   0.28974   0.83334   0.00000  Uiso   1.00
O1380  O     0.97437   0.18368   0.76871   0.00000  Uiso   1.00
O1381  O     0.96849   0.33968   0.84335   0.00000  Uiso   1.00
O1382  O     0.51243   0.18005   0.86070   0.00000  Uiso   1.00
O1383  O     0.61653   0.33440   0.86370   0.00000  Uiso   1.00
O1384  O     0.88020   0.17925   0.76907   0.00000  Uiso   1.00
O1385  O     0.88115   0.33834   0.79881   0.00000  Uiso   1.00
O1386  O     0.60580   0.17049   0.86723   0.00000  Uiso   1.00
O1387  O     0.69637   0.02830   0.76396   0.00000  Uiso   1.00
O1388  O     0.83122   0.46938   0.86235   0.00000  Uiso   1.00
O1389  O     0.80636   0.03661   0.90675   0.00000  Uiso   1.00
O1390  O     0.81547   0.21026   0.83333   0.00000  Uiso   1.00
O1391  O     0.66888   0.46512   0.81929   0.00000  Uiso   1.00
O1392  O     0.81547   0.28974   0.83333   0.00000  Uiso   1.00
O1393  O     0.68453   0.21026   0.83334   0.00000  Uiso   1.00
O1394  O     0.75000   0.28973   0.76178   0.00000  Uiso   1.00
O1395  O     0.75000   0.21027   0.90489   0.00000  Uiso   1.00
O1396  O     0.75000   0.28973   0.90489   0.00000  Uiso   1.00
O1397  O     0.75000   0.21027   0.76178   0.00000  Uiso   1.00
O1398  O     0.53954   0.33830   0.79875   0.00000  Uiso   1.00
Zn1399 Zn    0.75000   0.30307   0.83333   0.00000  Uiso   1.00
Zn1400 Zn    0.75000   0.19693   0.83333   0.00000  Uiso   1.00
C1401  C     0.16392   0.74966   0.83773   0.00000  Uiso   1.00
C1402  C     0.21119   0.94605   0.82356   0.00000  Uiso   1.00
C1403  C     0.24973   0.74992   0.73961   0.00000  Uiso   1.00
C1404  C     0.25020   0.75009   0.92705   0.00000  Uiso   1.00
C1405  C     0.25121   0.52684   0.83569   0.00000  Uiso   1.00
C1406  C     0.25101   0.97319   0.83683   0.00000  Uiso   1.00
C1407  C     0.24989   0.74990   0.68845   0.00000  Uiso   1.00
C1408  C     0.25006   0.75014   0.97822   0.00000  Uiso   1.00
C1409  C     0.05215   0.79731   0.82151   0.00000  Uiso   1.00
C1410  C     0.45145   0.72055   0.78794   0.00000  Uiso   1.00
C1411  C     0.44935   0.79961   0.82171   0.00000  Uiso   1.00
C1412  C     0.33500   0.75068   0.82565   0.00000  Uiso   1.00
C1413  C     0.04029   0.71676   0.84693   0.00000  Uiso   1.00
C1414  C     0.09525   0.79477   0.84289   0.00000  Uiso   1.00
C1415  C     0.40454   0.71554   0.79272   0.00000  Uiso   1.00
C1416  C     0.40343   0.79779   0.81093   0.00000  Uiso   1.00
C1417  C     0.08737   0.71136   0.84998   0.00000  Uiso   1.00
C1418  C     0.11524   0.75102   0.84422   0.00000  Uiso   1.00
C1419  C     0.38148   0.75391   0.81028   0.00000  Uiso   1.00
C1420  C     0.02280   0.75814   0.82549   0.00000  Uiso   1.00
C1421  C     0.47450   0.76020   0.81027   0.00000  Uiso   1.00
C1422  C     0.04751   0.83504   0.74746   0.00000  Uiso   1.00
C1423  C     0.22556   0.60049   0.79804   0.00000  Uiso   1.00
C1424  C     0.04612   0.88344   0.72487   0.00000  Uiso   1.00
C1425  C     0.49554   0.69750   0.72508   0.00000  Uiso   1.00
C1426  C     0.02184   0.65673   0.70639   0.00000  Uiso   1.00
C1427  C     0.46548   0.83673   0.89554   0.00000  Uiso   1.00
C1428  C     0.48807   0.87985   0.91987   0.00000  Uiso   1.00
C1429  C     0.49094   0.69194   0.90454   0.00000  Uiso   1.00
C1430  C     0.46570   0.64903   0.92282   0.00000  Uiso   1.00
C1431  C     0.12162   0.82760   0.91604   0.00000  Uiso   1.00
C1432  C     0.14485   0.86978   0.94136   0.00000  Uiso   1.00
C1433  C     0.38411   0.63811   0.79714   0.00000  Uiso   1.00
C1434  C     0.28639   0.89836   0.85442   0.00000  Uiso   1.00
C1435  C     0.35278   0.60088   0.77253   0.00000  Uiso   1.00
C1436  C     0.36888   0.83632   0.74696   0.00000  Uiso   1.00
C1437  C     0.34673   0.88103   0.72984   0.00000  Uiso   1.00
C1438  C     0.09907   0.63573   0.83016   0.00000  Uiso   1.00
C1439  C     0.12166   0.59192   0.84842   0.00000  Uiso   1.00
C1440  C     0.22069   0.51088   0.72470   0.00000  Uiso   1.00
C1441  C     0.18793   0.98476   0.68822   0.00000  Uiso   1.00
C1442  C     0.36097   0.96466   0.82356   0.00000  Uiso   1.00
C1443  C     0.40541   0.99007   0.83827   0.00000  Uiso   1.00
C1444  C     0.28302   0.52063   0.94777   0.00000  Uiso   1.00
C1445  C     0.27595   0.60411   0.86891   0.00000  Uiso   1.00
C1446  C     0.31667   0.99722   0.98369   0.00000  Uiso   1.00
C1447  C     0.15469   0.97654   0.86721   0.00000  Uiso   1.00
C1448  C     0.10348   0.97077   0.86717   0.00000  Uiso   1.00
C1449  C     0.21403   0.89791   0.81441   0.00000  Uiso   1.00
C1450  C     0.22555   0.55129   0.79818   0.00000  Uiso   1.00
C1451  C     0.29029   0.94732   0.84937   0.00000  Uiso   1.00
C1452  C     0.27660   0.55514   0.87157   0.00000  Uiso   1.00
Cl1453 Cl    0.19335   0.62841   0.75090   0.00000  Uiso   1.00
Cl1454 Cl    0.32763   0.87045   0.89199   0.00000  Uiso   1.00
Cl1455 Cl    0.31103   0.63636   0.91217   0.00000  Uiso   1.00
Cl1456 Cl    0.17096   0.87037   0.77679   0.00000  Uiso   1.00
H1457  H     0.02078   0.81268   0.72807   0.00000  Uiso   1.00
H1458  H     0.04679   0.64563   0.73576   0.00000  Uiso   1.00
H1459  H     0.48310   0.80564   0.91062   0.00000  Uiso   1.00
H1460  H     0.42951   0.83511   0.90577   0.00000  Uiso   1.00
H1461  H     0.47166   0.91164   0.90530   0.00000  Uiso   1.00
H1462  H     0.48479   0.87848   0.96084   0.00000  Uiso   1.00
H1463  H     0.02447   0.88160   0.91183   0.00000  Uiso   1.00
H1464  H     0.46584   0.71942   0.89731   0.00000  Uiso   1.00
H1465  H     0.01594   0.70432   0.93436   0.00000  Uiso   1.00
H1466  H     0.44127   0.63557   0.89317   0.00000  Uiso   1.00
H1467  H     0.44681   0.65802   0.95603   0.00000  Uiso   1.00
H1468  H     0.08130   0.82066   0.74077   0.00000  Uiso   1.00
H1469  H     0.48994   0.62136   0.93277   0.00000  Uiso   1.00
H1470  H     0.14295   0.79718   0.92527   0.00000  Uiso   1.00
H1471  H     0.08804   0.82208   0.93232   0.00000  Uiso   1.00
H1472  H     0.12260   0.90011   0.93824   0.00000  Uiso   1.00
H1473  H     0.15164   0.86253   0.98161   0.00000  Uiso   1.00
H1474  H     0.17751   0.87753   0.92425   0.00000  Uiso   1.00
H1475  H     0.37398   0.64369   0.83595   0.00000  Uiso   1.00
H1476  H     0.41913   0.62519   0.79816   0.00000  Uiso   1.00
H1477  H     0.36576   0.59018   0.73623   0.00000  Uiso   1.00
H1478  H     0.35040   0.57001   0.79687   0.00000  Uiso   1.00
H1479  H     0.05409   0.88159   0.68494   0.00000  Uiso   1.00
H1480  H     0.31841   0.61467   0.76580   0.00000  Uiso   1.00
H1481  H     0.34418   0.80714   0.73824   0.00000  Uiso   1.00
H1482  H     0.39920   0.83160   0.72466   0.00000  Uiso   1.00
H1483  H     0.31757   0.88838   0.75273   0.00000  Uiso   1.00
H1484  H     0.37172   0.91053   0.73247   0.00000  Uiso   1.00
H1485  H     0.33427   0.87727   0.69025   0.00000  Uiso   1.00
H1486  H     0.11409   0.64700   0.79496   0.00000  Uiso   1.00
H1487  H     0.06269   0.62683   0.82240   0.00000  Uiso   1.00
H1488  H     0.10272   0.57646   0.87920   0.00000  Uiso   1.00
H1489  H     0.12222   0.56649   0.81720   0.00000  Uiso   1.00
H1490  H     0.01197   0.89789   0.72786   0.00000  Uiso   1.00
H1491  H     0.15678   0.60020   0.86260   0.00000  Uiso   1.00
H1492  H     0.24653   0.98616   0.73856   0.00000  Uiso   1.00
H1493  H     0.23727   0.54008   0.70519   0.00000  Uiso   1.00
H1494  H     0.16496   0.50956   0.66895   0.00000  Uiso   1.00
H1495  H     0.20674   0.96594   0.99342   0.00000  Uiso   1.00
H1496  H     0.16746   0.95876   0.70842   0.00000  Uiso   1.00
H1497  H     0.34655   0.97985   0.78831   0.00000  Uiso   1.00
H1498  H     0.36868   0.92753   0.81785   0.00000  Uiso   1.00
H1499  H     0.42163   0.97340   0.87155   0.00000  Uiso   1.00
H1500  H     0.42852   0.98849   0.80706   0.00000  Uiso   1.00
H1501  H     0.07149   0.90694   0.74479   0.00000  Uiso   1.00
H1502  H     0.39956   0.52706   0.84746   0.00000  Uiso   1.00
H1503  H     0.25597   0.99467   0.93617   0.00000  Uiso   1.00
H1504  H     0.26816   0.55058   0.96676   0.00000  Uiso   1.00
H1505  H     0.34140   0.52350   0.66671   0.00000  Uiso   1.00
H1506  H     0.29907   0.97981   0.68076   0.00000  Uiso   1.00
H1507  H     0.33514   0.97027   0.96376   0.00000  Uiso   1.00
H1508  H     0.16475   0.51314   0.87644   0.00000  Uiso   1.00
H1509  H     0.16960   0.95450   0.89744   0.00000  Uiso   1.00
H1510  H     0.08723   0.99281   0.83797   0.00000  Uiso   1.00
H1511  H     0.09156   0.98102   0.90411   0.00000  Uiso   1.00
H1512  H     0.01994   0.72710   0.73221   0.00000  Uiso   1.00
H1513  H     0.09322   0.93387   0.85930   0.00000  Uiso   1.00
H1514  H     0.46988   0.70746   0.69561   0.00000  Uiso   1.00
H1515  H     0.49843   0.62689   0.69652   0.00000  Uiso   1.00
H1516  H     0.04045   0.66706   0.67326   0.00000  Uiso   1.00
N1517  N     0.25000   0.62623   0.83333   0.00000  Uiso   1.00
N1518  N     0.25000   0.87376   0.83333   0.00000  Uiso   1.00
O1519  O     0.18453   0.78974   0.83334   0.00000  Uiso   1.00
O1520  O     0.47437   0.68368   0.76871   0.00000  Uiso   1.00
O1521  O     0.46849   0.83968   0.84335   0.00000  Uiso   1.00
O1522  O     0.01243   0.68005   0.86070   0.00000  Uiso   1.00
O1523  O     0.11653   0.83440   0.86370   0.00000  Uiso   1.00
O1524  O     0.38020   0.67925   0.76907   0.00000  Uiso   1.00
O1525  O     0.38115   0.83834   0.79881   0.00000  Uiso   1.00
O1526  O     0.10580   0.67049   0.86723   0.00000  Uiso   1.00
O1527  O     0.19637   0.52830   0.76396   0.00000  Uiso   1.00
O1528  O     0.33122   0.96938   0.86235   0.00000  Uiso   1.00
O1529  O     0.30636   0.53661   0.90675   0.00000  Uiso   1.00
O1530  O     0.31547   0.71026   0.83333   0.00000  Uiso   1.00
O1531  O     0.16888   0.96512   0.81929   0.00000  Uiso   1.00
O1532  O     0.31547   0.78974   0.83333   0.00000  Uiso   1.00
O1533  O     0.18453   0.71026   0.83334   0.00000  Uiso   1.00
O1534  O     0.25000   0.78973   0.76178   0.00000  Uiso   1.00
O1535  O     0.25000   0.71027   0.90489   0.00000  Uiso   1.00
O1536  O     0.25000   0.78973   0.90489   0.00000  Uiso   1.00
O1537  O     0.25000   0.71027   0.76178   0.00000  Uiso   1.00
O1538  O     0.03954   0.83830   0.79875   0.00000  Uiso   1.00
Zn1539 Zn    0.25000   0.80307   0.83333   0.00000  Uiso   1.00
Zn1540 Zn    0.25000   0.69693   0.83333   0.00000  Uiso   1.00
C1541  C     0.66392   0.74966   0.83773   0.00000  Uiso   1.00
C1542  C     0.71119   0.94605   0.82356   0.00000  Uiso   1.00
C1543  C     0.74973   0.74992   0.73961   0.00000  Uiso   1.00
C1544  C     0.75020   0.75009   0.92705   0.00000  Uiso   1.00
C1545  C     0.75121   0.52684   0.83569   0.00000  Uiso   1.00
C1546  C     0.75101   0.97319   0.83683   0.00000  Uiso   1.00
C1547  C     0.74989   0.74990   0.68845   0.00000  Uiso   1.00
C1548  C     0.75006   0.75014   0.97822   0.00000  Uiso   1.00
C1549  C     0.55215   0.79731   0.82151   0.00000  Uiso   1.00
C1550  C     0.95145   0.72055   0.78794   0.00000  Uiso   1.00
C1551  C     0.94935   0.79961   0.82171   0.00000  Uiso   1.00
C1552  C     0.83500   0.75068   0.82565   0.00000  Uiso   1.00
C1553  C     0.54029   0.71676   0.84693   0.00000  Uiso   1.00
C1554  C     0.59525   0.79477   0.84289   0.00000  Uiso   1.00
C1555  C     0.90454   0.71554   0.79272   0.00000  Uiso   1.00
C1556  C     0.90343   0.79779   0.81093   0.00000  Uiso   1.00
C1557  C     0.58737   0.71136   0.84998   0.00000  Uiso   1.00
C1558  C     0.61524   0.75102   0.84422   0.00000  Uiso   1.00
C1559  C     0.88148   0.75391   0.81028   0.00000  Uiso   1.00
C1560  C     0.52280   0.75814   0.82549   0.00000  Uiso   1.00
C1561  C     0.97450   0.76020   0.81027   0.00000  Uiso   1.00
C1562  C     0.54751   0.83504   0.74746   0.00000  Uiso   1.00
C1563  C     0.72556   0.60049   0.79804   0.00000  Uiso   1.00
C1564  C     0.54612   0.88344   0.72487   0.00000  Uiso   1.00
C1565  C     0.99554   0.69750   0.72508   0.00000  Uiso   1.00
C1566  C     0.52184   0.65673   0.70639   0.00000  Uiso   1.00
C1567  C     0.96548   0.83673   0.89554   0.00000  Uiso   1.00
C1568  C     0.98807   0.87985   0.91987   0.00000  Uiso   1.00
C1569  C     0.99094   0.69194   0.90454   0.00000  Uiso   1.00
C1570  C     0.96570   0.64903   0.92282   0.00000  Uiso   1.00
C1571  C     0.62162   0.82760   0.91604   0.00000  Uiso   1.00
C1572  C     0.64485   0.86978   0.94136   0.00000  Uiso   1.00
C1573  C     0.88411   0.63811   0.79714   0.00000  Uiso   1.00
C1574  C     0.78639   0.89836   0.85442   0.00000  Uiso   1.00
C1575  C     0.85278   0.60088   0.77253   0.00000  Uiso   1.00
C1576  C     0.86888   0.83632   0.74696   0.00000  Uiso   1.00
C1577  C     0.84673   0.88103   0.72984   0.00000  Uiso   1.00
C1578  C     0.59907   0.63573   0.83016   0.00000  Uiso   1.00
C1579  C     0.62166   0.59192   0.84842   0.00000  Uiso   1.00
C1580  C     0.72069   0.51088   0.72470   0.00000  Uiso   1.00
C1581  C     0.68793   0.98476   0.68822   0.00000  Uiso   1.00
C1582  C     0.86097   0.96466   0.82356   0.00000  Uiso   1.00
C1583  C     0.90541   0.99007   0.83827   0.00000  Uiso   1.00
C1584  C     0.78302   0.52063   0.94777   0.00000  Uiso   1.00
C1585  C     0.77595   0.60411   0.86891   0.00000  Uiso   1.00
C1586  C     0.81667   0.99722   0.98369   0.00000  Uiso   1.00
C1587  C     0.65469   0.97654   0.86721   0.00000  Uiso   1.00
C1588  C     0.60348   0.97077   0.86717   0.00000  Uiso   1.00
C1589  C     0.71403   0.89791   0.81441   0.00000  Uiso   1.00
C1590  C     0.72555   0.55129   0.79818   0.00000  Uiso   1.00
C1591  C     0.79029   0.94732   0.84937   0.00000  Uiso   1.00
C1592  C     0.77660   0.55514   0.87157   0.00000  Uiso   1.00
Cl1593 Cl    0.69335   0.62841   0.75090   0.00000  Uiso   1.00
Cl1594 Cl    0.82763   0.87045   0.89199   0.00000  Uiso   1.00
Cl1595 Cl    0.81103   0.63636   0.91217   0.00000  Uiso   1.00
Cl1596 Cl    0.67096   0.87037   0.77679   0.00000  Uiso   1.00
H1597  H     0.52078   0.81268   0.72807   0.00000  Uiso   1.00
H1598  H     0.54679   0.64563   0.73576   0.00000  Uiso   1.00
H1599  H     0.98310   0.80564   0.91062   0.00000  Uiso   1.00
H1600  H     0.92951   0.83511   0.90577   0.00000  Uiso   1.00
H1601  H     0.97166   0.91164   0.90530   0.00000  Uiso   1.00
H1602  H     0.98479   0.87848   0.96084   0.00000  Uiso   1.00
H1603  H     0.52447   0.88160   0.91183   0.00000  Uiso   1.00
H1604  H     0.96584   0.71942   0.89731   0.00000  Uiso   1.00
H1605  H     0.51594   0.70432   0.93436   0.00000  Uiso   1.00
H1606  H     0.94127   0.63557   0.89317   0.00000  Uiso   1.00
H1607  H     0.94681   0.65802   0.95603   0.00000  Uiso   1.00
H1608  H     0.58130   0.82066   0.74077   0.00000  Uiso   1.00
H1609  H     0.98994   0.62136   0.93277   0.00000  Uiso   1.00
H1610  H     0.64295   0.79718   0.92527   0.00000  Uiso   1.00
H1611  H     0.58804   0.82208   0.93232   0.00000  Uiso   1.00
H1612  H     0.62260   0.90011   0.93824   0.00000  Uiso   1.00
H1613  H     0.65164   0.86253   0.98161   0.00000  Uiso   1.00
H1614  H     0.67751   0.87753   0.92425   0.00000  Uiso   1.00
H1615  H     0.87398   0.64369   0.83595   0.00000  Uiso   1.00
H1616  H     0.91913   0.62519   0.79816   0.00000  Uiso   1.00
H1617  H     0.86576   0.59018   0.73623   0.00000  Uiso   1.00
H1618  H     0.85040   0.57001   0.79687   0.00000  Uiso   1.00
H1619  H     0.55409   0.88159   0.68494   0.00000  Uiso   1.00
H1620  H     0.81841   0.61467   0.76580   0.00000  Uiso   1.00
H1621  H     0.84418   0.80714   0.73824   0.00000  Uiso   1.00
H1622  H     0.89920   0.83160   0.72466   0.00000  Uiso   1.00
H1623  H     0.81757   0.88838   0.75273   0.00000  Uiso   1.00
H1624  H     0.87172   0.91053   0.73247   0.00000  Uiso   1.00
H1625  H     0.83427   0.87727   0.69025   0.00000  Uiso   1.00
H1626  H     0.61409   0.64700   0.79496   0.00000  Uiso   1.00
H1627  H     0.56269   0.62683   0.82240   0.00000  Uiso   1.00
H1628  H     0.60272   0.57646   0.87920   0.00000  Uiso   1.00
H1629  H     0.62222   0.56649   0.81720   0.00000  Uiso   1.00
H1630  H     0.51197   0.89789   0.72786   0.00000  Uiso   1.00
H1631  H     0.65678   0.60020   0.86260   0.00000  Uiso   1.00
H1632  H     0.74653   0.98616   0.73856   0.00000  Uiso   1.00
H1633  H     0.73727   0.54008   0.70519   0.00000  Uiso   1.00
H1634  H     0.66496   0.50956   0.66895   0.00000  Uiso   1.00
H1635  H     0.70674   0.96594   0.99342   0.00000  Uiso   1.00
H1636  H     0.66746   0.95876   0.70842   0.00000  Uiso   1.00
H1637  H     0.84655   0.97985   0.78831   0.00000  Uiso   1.00
H1638  H     0.86868   0.92753   0.81785   0.00000  Uiso   1.00
H1639  H     0.92163   0.97340   0.87155   0.00000  Uiso   1.00
H1640  H     0.92852   0.98849   0.80706   0.00000  Uiso   1.00
H1641  H     0.57149   0.90694   0.74479   0.00000  Uiso   1.00
H1642  H     0.89956   0.52706   0.84746   0.00000  Uiso   1.00
H1643  H     0.75597   0.99467   0.93617   0.00000  Uiso   1.00
H1644  H     0.76816   0.55058   0.96676   0.00000  Uiso   1.00
H1645  H     0.84140   0.52350   0.66671   0.00000  Uiso   1.00
H1646  H     0.79907   0.97981   0.68076   0.00000  Uiso   1.00
H1647  H     0.83514   0.97027   0.96376   0.00000  Uiso   1.00
H1648  H     0.66475   0.51314   0.87644   0.00000  Uiso   1.00
H1649  H     0.66960   0.95450   0.89744   0.00000  Uiso   1.00
H1650  H     0.58723   0.99281   0.83797   0.00000  Uiso   1.00
H1651  H     0.59156   0.98102   0.90411   0.00000  Uiso   1.00
H1652  H     0.51994   0.72710   0.73221   0.00000  Uiso   1.00
H1653  H     0.59322   0.93387   0.85930   0.00000  Uiso   1.00
H1654  H     0.96988   0.70746   0.69561   0.00000  Uiso   1.00
H1655  H     0.99843   0.62689   0.69652   0.00000  Uiso   1.00
H1656  H     0.54045   0.66706   0.67326   0.00000  Uiso   1.00
N1657  N     0.75000   0.62623   0.83333   0.00000  Uiso   1.00
N1658  N     0.75000   0.87376   0.83333   0.00000  Uiso   1.00
O1659  O     0.68453   0.78974   0.83334   0.00000  Uiso   1.00
O1660  O     0.97437   0.68368   0.76871   0.00000  Uiso   1.00
O1661  O     0.96849   0.83968   0.84335   0.00000  Uiso   1.00
O1662  O     0.51243   0.68005   0.86070   0.00000  Uiso   1.00
O1663  O     0.61653   0.83440   0.86370   0.00000  Uiso   1.00
O1664  O     0.88020   0.67925   0.76907   0.00000  Uiso   1.00
O1665  O     0.88115   0.83834   0.79881   0.00000  Uiso   1.00
O1666  O     0.60580   0.67049   0.86723   0.00000  Uiso   1.00
O1667  O     0.69637   0.52830   0.76396   0.00000  Uiso   1.00
O1668  O     0.83122   0.96938   0.86235   0.00000  Uiso   1.00
O1669  O     0.80636   0.53661   0.90675   0.00000  Uiso   1.00
O1670  O     0.81547   0.71026   0.83333   0.00000  Uiso   1.00
O1671  O     0.66888   0.96512   0.81929   0.00000  Uiso   1.00
O1672  O     0.81547   0.78974   0.83333   0.00000  Uiso   1.00
O1673  O     0.68453   0.71026   0.83334   0.00000  Uiso   1.00
O1674  O     0.75000   0.78973   0.76178   0.00000  Uiso   1.00
O1675  O     0.75000   0.71027   0.90489   0.00000  Uiso   1.00
O1676  O     0.75000   0.78973   0.90489   0.00000  Uiso   1.00
O1677  O     0.75000   0.71027   0.76178   0.00000  Uiso   1.00
O1678  O     0.53954   0.83830   0.79875   0.00000  Uiso   1.00
Zn1679 Zn    0.75000   0.80307   0.83333   0.00000  Uiso   1.00
Zn1680 Zn    0.75000   0.69693   0.83333   0.00000  Uiso   1.00
loop_
_geom_bond_atom_site_label_1
_geom_bond_atom_site_label_2
_geom_bond_distance
_geom_bond_site_symmetry_2
_ccdc_geom_bond_type
C1     O119    1.297   .     A
C1     O133    1.308   .     A
C1     C18     1.464   .     S
C2     C6      1.426   .     A
C2     O131    1.382   .     S
C2     C49     1.408   .     A
C3     C7      1.374   .     S
C3     O137    1.288   .     A
C3     O134    1.286   .     A
C4     C8      1.374   .     S
C4     O136    1.287   .     A
C4     O135    1.286   .     A
C5     C52     1.428   .     A
C5     C50     1.430   .     A
C5     C286    1.541   1_545 S
C6     C51     1.425   .     A
C6     C285    1.541   .     S
C7     C1128   1.170   1_554 S
C8     C567    1.170   .     S
C9     C14     1.378   .     A
C9     O138    1.381   .     S
C9     C20     1.411   .     A
C10    C21     1.425   .     A
C10    C15     1.406   .     A
C10    O120    1.385   .     S
C11    O121    1.381   .     S
C11    C21     1.413   .     A
C11    C16     1.377   .     A
C12    O130    1.305   .     A
C12    O132    1.297   .     A
C12    C19     1.459   .     S
C13    C20     1.422   .     A
C13    C17     1.407   .     A
C13    O122    1.385   .     S
C14    C18     1.404   .     A
C14    O123    1.387   .     S
C15    C19     1.404   .     A
C15    O124    1.384   .     S
C16    O125    1.387   .     S
C16    C19     1.402   .     A
C17    O126    1.381   .     S
C17    C18     1.403   .     A
C20    C161    1.472   1_455 S
C21    C160    1.472   .     S
C22    H57     1.112   .     S
C22    H68     1.116   .     S
C22    C24     1.521   .     S
C22    O138    1.412   .     S
C23    Cl53    1.757   .     S
C23    C50     1.413   .     A
C23    N117    1.365   .     A
C24    H101    1.111   .     S
C24    H79     1.110   .     S
C24    H90     1.111   .     S
C25    O120    1.410   .     S
C25    H114    1.113   .     S
C25    C166    1.521   .     S
C25    H252    1.111   .     S
C26    H58     1.107   .     S
C26    H116    1.108   .     S
C26    C165    1.521   1_455 S
C26    H255    1.110   1_455 S
C27    H60     1.114   .     S
C27    O121    1.411   .     S
C27    H59     1.114   .     S
C27    C28     1.520   .     S
C28    H61     1.110   .     S
C28    H62     1.110   .     S
C28    H203    1.111   .     S
C29    H64     1.110   .     S
C29    C30     1.521   .     S
C29    H205    1.113   .     S
C29    O262    1.411   .     S
C30    H67     1.110   .     S
C30    H66     1.109   .     S
C30    H69     1.110   .     S
C31    H70     1.114   .     S
C31    H71     1.115   .     S
C31    C32     1.517   .     S
C31    O123    1.421   .     S
C32    H72     1.108   .     S
C32    H74     1.110   .     S
C32    H73     1.111   .     S
C33    H76     1.111   .     S
C33    H75     1.111   .     S
C33    O124    1.409   .     S
C33    C35     1.522   .     S
C34    N118    1.369   .     A
C34    C51     1.416   .     A
C34    Cl54    1.758   .     S
C35    H80     1.110   .     S
C35    H78     1.107   .     S
C35    H77     1.111   .     S
C36    O125    1.421   .     S
C36    C37     1.521   .     S
C36    H82     1.116   .     S
C36    H81     1.114   .     S
C37    H85     1.111   .     S
C37    H84     1.110   .     S
C37    H83     1.110   .     S
C38    H86     1.111   .     S
C38    O126    1.409   .     S
C38    H87     1.111   .     S
C38    C39     1.513   .     S
C39    H88     1.111   .     S
C39    H91     1.109   .     S
C39    H89     1.110   .     S
C40    H93     1.108   .     S
C40    O127    1.404   .     S
C40    C321    1.523   1_545 S
C40    H372    1.110   1_545 S
C41    H96     1.111   .     S
C41    C320    1.523   .     S
C41    H374    1.111   .     S
C41    H1215   1.108   1_554 S
C42    H98     1.108   .     S
C42    O128    1.407   .     S
C42    H97     1.115   .     S
C42    C43     1.522   .     S
C43    H99     1.110   .     S
C43    H100    1.110   .     S
C43    H382    1.109   .     S
C44    H104    1.110   .     S
C44    O129    1.403   .     S
C44    C326    1.524   1_545 S
C44    H383    1.111   1_545 S
C45    C52     1.409   .     A
C45    N117    1.366   .     A
C45    Cl55    1.761   .     S
C46    H107    1.110   .     S
C46    C324    1.524   .     S
C46    H945    1.110   .     S
C46    H666    1.105   .     S
C47    C48     1.523   .     S
C47    H109    1.113   .     S
C47    O131    1.413   .     S
C47    H388    1.108   .     S
C48    H110    1.109   .     S
C48    H111    1.110   .     S
C48    H113    1.111   .     S
C49    N118    1.366   .     A
C49    Cl56    1.755   .     S
C50    O127    1.382   .     S
C51    O128    1.381   .     S
C52    O129    1.378   .     S
H63    C168    1.111   1_455 S
H65    C169    1.113   1_455 S
H92    C320    1.110   .     S
H94    C321    1.111   1_545 S
H95    C601    1.108   .     S
H102   C323    1.109   1_545 S
H103   C324    1.111   .     S
H105   C1446   1.110   1_544 S
H106   C1166   1.105   1_554 S
H108   C327    1.108   1_545 S
H112   C165    1.111   1_455 S
H115   C166    1.110   .     S
N117   Zn140   2.030   .     S
N118   Zn139   2.030   .     S
O119   Zn139   1.968   .     S
O122   C169    1.411   1_455 S
O130   Zn140   1.968   .     S
O132   Zn139   1.988   .     S
O133   Zn140   1.988   .     S
O134   Zn139   1.957   .     S
O135   Zn140   1.957   .     S
O136   Zn139   1.961   .     S
O137   Zn140   1.961   .     S
C141   O259    1.297   .     A
C141   O273    1.308   .     A
C141   C158    1.464   .     S
C142   C146    1.426   .     A
C142   O271    1.382   .     S
C142   C189    1.408   .     A
C143   C147    1.374   .     S
C143   O277    1.288   .     A
C143   O274    1.286   .     A
C144   C148    1.374   .     S
C144   O276    1.287   .     A
C144   O275    1.286   .     A
C145   C192    1.428   .     A
C145   C190    1.430   .     A
C145   C426    1.541   1_545 S
C146   C191    1.425   .     A
C146   C425    1.541   .     S
C147   C1268   1.170   1_554 S
C148   C707    1.170   .     S
C149   C154    1.378   .     A
C149   O278    1.381   .     S
C149   C160    1.411   .     A
C150   C161    1.425   .     A
C150   C155    1.406   .     A
C150   O260    1.385   .     S
C151   O261    1.381   .     S
C151   C161    1.413   .     A
C151   C156    1.377   .     A
C152   O270    1.305   .     A
C152   O272    1.297   .     A
C152   C159    1.459   .     S
C153   C160    1.422   .     A
C153   C157    1.407   .     A
C153   O262    1.385   .     S
C154   C158    1.404   .     A
C154   O263    1.387   .     S
C155   C159    1.404   .     A
C155   O264    1.384   .     S
C156   O265    1.387   .     S
C156   C159    1.402   .     A
C157   O266    1.381   .     S
C157   C158    1.403   .     A
C161   C20     1.472   1_655 S
C162   H197    1.112   .     S
C162   H208    1.116   .     S
C162   C164    1.521   .     S
C162   O278    1.412   .     S
C163   Cl193   1.757   .     S
C163   C190    1.413   .     A
C163   N257    1.365   .     A
C164   H241    1.111   .     S
C164   H219    1.110   .     S
C164   H230    1.111   .     S
C165   O260    1.410   .     S
C165   H254    1.113   .     S
C165   C26     1.521   1_655 S
C165   H112    1.111   1_655 S
C166   H198    1.107   .     S
C166   H256    1.108   .     S
C167   H200    1.114   .     S
C167   O261    1.411   .     S
C167   H199    1.114   .     S
C167   C168    1.520   .     S
C168   H201    1.110   .     S
C168   H202    1.110   .     S
C168   H63     1.111   1_655 S
C169   H204    1.110   .     S
C169   C170    1.521   .     S
C169   H65     1.113   1_655 S
C169   O122    1.411   1_655 S
C170   H207    1.110   .     S
C170   H206    1.109   .     S
C170   H209    1.110   .     S
C171   H210    1.114   .     S
C171   H211    1.115   .     S
C171   C172    1.517   .     S
C171   O263    1.421   .     S
C172   H212    1.108   .     S
C172   H214    1.110   .     S
C172   H213    1.111   .     S
C173   H216    1.111   .     S
C173   H215    1.111   .     S
C173   O264    1.409   .     S
C173   C175    1.522   .     S
C174   N258    1.369   .     A
C174   C191    1.416   .     A
C174   Cl194   1.758   .     S
C175   H220    1.110   .     S
C175   H218    1.107   .     S
C175   H217    1.111   .     S
C176   O265    1.421   .     S
C176   C177    1.521   .     S
C176   H222    1.116   .     S
C176   H221    1.114   .     S
C177   H225    1.111   .     S
C177   H224    1.110   .     S
C177   H223    1.110   .     S
C178   H226    1.111   .     S
C178   O266    1.409   .     S
C178   H227    1.111   .     S
C178   C179    1.513   .     S
C179   H228    1.111   .     S
C179   H231    1.109   .     S
C179   H229    1.110   .     S
C180   H233    1.108   .     S
C180   O267    1.404   .     S
C180   C461    1.523   1_545 S
C180   H512    1.110   1_545 S
C181   H236    1.111   .     S
C181   C460    1.523   .     S
C181   H514    1.111   .     S
C181   H1355   1.108   1_554 S
C182   H238    1.108   .     S
C182   O268    1.407   .     S
C182   H237    1.115   .     S
C182   C183    1.522   .     S
C183   H239    1.110   .     S
C183   H240    1.110   .     S
C183   H522    1.109   .     S
C184   H244    1.110   .     S
C184   O269    1.403   .     S
C184   C466    1.524   1_545 S
C184   H523    1.111   1_545 S
C185   C192    1.409   .     A
C185   N257    1.366   .     A
C185   Cl195   1.761   .     S
C186   H247    1.110   .     S
C186   C464    1.524   .     S
C186   H1085   1.110   .     S
C186   H806    1.105   .     S
C187   C188    1.523   .     S
C187   H249    1.113   .     S
C187   O271    1.413   .     S
C187   H528    1.108   .     S
C188   H250    1.109   .     S
C188   H251    1.110   .     S
C188   H253    1.111   .     S
C189   N258    1.366   .     A
C189   Cl196   1.755   .     S
C190   O267    1.382   .     S
C191   O268    1.381   .     S
C192   O269    1.378   .     S
H232   C460    1.110   .     S
H234   C461    1.111   1_545 S
H235   C741    1.108   .     S
H242   C463    1.109   1_545 S
H243   C464    1.111   .     S
H245   C1586   1.110   1_544 S
H246   C1306   1.105   1_554 S
H248   C467    1.108   1_545 S
H255   C26     1.110   1_655 S
N257   Zn280   2.030   .     S
N258   Zn279   2.030   .     S
O259   Zn279   1.968   .     S
O270   Zn280   1.968   .     S
O272   Zn279   1.988   .     S
O273   Zn280   1.988   .     S
O274   Zn279   1.957   .     S
O275   Zn280   1.957   .     S
O276   Zn279   1.961   .     S
O277   Zn280   1.961   .     S
C281   O399    1.297   .     A
C281   O413    1.308   .     A
C281   C298    1.464   .     S
C282   C286    1.426   .     A
C282   O411    1.382   .     S
C282   C329    1.408   .     A
C283   C287    1.374   .     S
C283   O417    1.288   .     A
C283   O414    1.286   .     A
C284   C288    1.374   .     S
C284   O416    1.287   .     A
C284   O415    1.286   .     A
C285   C332    1.428   .     A
C285   C330    1.430   .     A
C286   C331    1.425   .     A
C286   C5      1.541   1_565 S
C287   C1408   1.170   1_554 S
C288   C847    1.170   .     S
C289   C294    1.378   .     A
C289   O418    1.381   .     S
C289   C300    1.411   .     A
C290   C301    1.425   .     A
C290   C295    1.406   .     A
C290   O400    1.385   .     S
C291   O401    1.381   .     S
C291   C301    1.413   .     A
C291   C296    1.377   .     A
C292   O410    1.305   .     A
C292   O412    1.297   .     A
C292   C299    1.459   .     S
C293   C300    1.422   .     A
C293   C297    1.407   .     A
C293   O402    1.385   .     S
C294   C298    1.404   .     A
C294   O403    1.387   .     S
C295   C299    1.404   .     A
C295   O404    1.384   .     S
C296   O405    1.387   .     S
C296   C299    1.402   .     A
C297   O406    1.381   .     S
C297   C298    1.403   .     A
C300   C441    1.472   1_455 S
C301   C440    1.472   .     S
C302   H337    1.112   .     S
C302   H348    1.116   .     S
C302   C304    1.521   .     S
C302   O418    1.412   .     S
C303   Cl333   1.757   .     S
C303   C330    1.413   .     A
C303   N397    1.365   .     A
C304   H381    1.111   .     S
C304   H359    1.110   .     S
C304   H370    1.111   .     S
C305   O400    1.410   .     S
C305   H394    1.113   .     S
C305   C446    1.521   .     S
C305   H532    1.111   .     S
C306   H338    1.107   .     S
C306   H396    1.108   .     S
C306   C445    1.521   1_455 S
C306   H535    1.110   1_455 S
C307   H340    1.114   .     S
C307   O401    1.411   .     S
C307   H339    1.114   .     S
C307   C308    1.520   .     S
C308   H341    1.110   .     S
C308   H342    1.110   .     S
C308   H483    1.111   .     S
C309   H344    1.110   .     S
C309   C310    1.521   .     S
C309   H485    1.113   .     S
C309   O542    1.411   .     S
C310   H347    1.110   .     S
C310   H346    1.109   .     S
C310   H349    1.110   .     S
C311   H350    1.114   .     S
C311   H351    1.115   .     S
C311   C312    1.517   .     S
C311   O403    1.421   .     S
C312   H352    1.108   .     S
C312   H354    1.110   .     S
C312   H353    1.111   .     S
C313   H356    1.111   .     S
C313   H355    1.111   .     S
C313   O404    1.409   .     S
C313   C315    1.522   .     S
C314   N398    1.369   .     A
C314   C331    1.416   .     A
C314   Cl334   1.758   .     S
C315   H360    1.110   .     S
C315   H358    1.107   .     S
C315   H357    1.111   .     S
C316   O405    1.421   .     S
C316   C317    1.521   .     S
C316   H362    1.116   .     S
C316   H361    1.114   .     S
C317   H365    1.111   .     S
C317   H364    1.110   .     S
C317   H363    1.110   .     S
C318   H366    1.111   .     S
C318   O406    1.409   .     S
C318   H367    1.111   .     S
C318   C319    1.513   .     S
C319   H368    1.111   .     S
C319   H371    1.109   .     S
C319   H369    1.110   .     S
C320   H373    1.108   .     S
C320   O407    1.404   .     S
C321   H376    1.111   .     S
C321   C40     1.523   1_565 S
C321   H94     1.111   1_565 S
C321   H1495   1.108   1_554 S
C322   H378    1.108   .     S
C322   O408    1.407   .     S
C322   H377    1.115   .     S
C322   C323    1.522   .     S
C323   H379    1.110   .     S
C323   H380    1.110   .     S
C323   H102    1.109   1_565 S
C324   H384    1.110   .     S
C324   O409    1.403   .     S
C325   C332    1.409   .     A
C325   N397    1.366   .     A
C325   Cl335   1.761   .     S
C326   H387    1.110   .     S
C326   C44     1.524   1_565 S
C326   H665    1.110   1_565 S
C326   H946    1.105   .     S
C327   C328    1.523   .     S
C327   H389    1.113   .     S
C327   O411    1.413   .     S
C327   H108    1.108   1_565 S
C328   H390    1.109   .     S
C328   H391    1.110   .     S
C328   H393    1.111   .     S
C329   N398    1.366   .     A
C329   Cl336   1.755   .     S
C330   O407    1.382   .     S
C331   O408    1.381   .     S
C332   O409    1.378   .     S
H343   C448    1.111   1_455 S
H345   C449    1.113   1_455 S
H372   C40     1.110   1_565 S
H375   C881    1.108   .     S
H383   C44     1.111   1_565 S
H385   C1166   1.110   1_554 S
H386   C1446   1.105   1_554 S
H392   C445    1.111   1_455 S
H395   C446    1.110   .     S
N397   Zn420   2.030   .     S
N398   Zn419   2.030   .     S
O399   Zn419   1.968   .     S
O402   C449    1.411   1_455 S
O410   Zn420   1.968   .     S
O412   Zn419   1.988   .     S
O413   Zn420   1.988   .     S
O414   Zn419   1.957   .     S
O415   Zn420   1.957   .     S
O416   Zn419   1.961   .     S
O417   Zn420   1.961   .     S
C421   O539    1.297   .     A
C421   O553    1.308   .     A
C421   C438    1.464   .     S
C422   C426    1.426   .     A
C422   O551    1.382   .     S
C422   C469    1.408   .     A
C423   C427    1.374   .     S
C423   O557    1.288   .     A
C423   O554    1.286   .     A
C424   C428    1.374   .     S
C424   O556    1.287   .     A
C424   O555    1.286   .     A
C425   C472    1.428   .     A
C425   C470    1.430   .     A
C426   C471    1.425   .     A
C426   C145    1.541   1_565 S
C427   C1548   1.170   1_554 S
C428   C987    1.170   .     S
C429   C434    1.378   .     A
C429   O558    1.381   .     S
C429   C440    1.411   .     A
C430   C441    1.425   .     A
C430   C435    1.406   .     A
C430   O540    1.385   .     S
C431   O541    1.381   .     S
C431   C441    1.413   .     A
C431   C436    1.377   .     A
C432   O550    1.305   .     A
C432   O552    1.297   .     A
C432   C439    1.459   .     S
C433   C440    1.422   .     A
C433   C437    1.407   .     A
C433   O542    1.385   .     S
C434   C438    1.404   .     A
C434   O543    1.387   .     S
C435   C439    1.404   .     A
C435   O544    1.384   .     S
C436   O545    1.387   .     S
C436   C439    1.402   .     A
C437   O546    1.381   .     S
C437   C438    1.403   .     A
C441   C300    1.472   1_655 S
C442   H477    1.112   .     S
C442   H488    1.116   .     S
C442   C444    1.521   .     S
C442   O558    1.412   .     S
C443   Cl473   1.757   .     S
C443   C470    1.413   .     A
C443   N537    1.365   .     A
C444   H521    1.111   .     S
C444   H499    1.110   .     S
C444   H510    1.111   .     S
C445   O540    1.410   .     S
C445   H534    1.113   .     S
C445   C306    1.521   1_655 S
C445   H392    1.111   1_655 S
C446   H478    1.107   .     S
C446   H536    1.108   .     S
C447   H480    1.114   .     S
C447   O541    1.411   .     S
C447   H479    1.114   .     S
C447   C448    1.520   .     S
C448   H481    1.110   .     S
C448   H482    1.110   .     S
C448   H343    1.111   1_655 S
C449   H484    1.110   .     S
C449   C450    1.521   .     S
C449   H345    1.113   1_655 S
C449   O402    1.411   1_655 S
C450   H487    1.110   .     S
C450   H486    1.109   .     S
C450   H489    1.110   .     S
C451   H490    1.114   .     S
C451   H491    1.115   .     S
C451   C452    1.517   .     S
C451   O543    1.421   .     S
C452   H492    1.108   .     S
C452   H494    1.110   .     S
C452   H493    1.111   .     S
C453   H496    1.111   .     S
C453   H495    1.111   .     S
C453   O544    1.409   .     S
C453   C455    1.522   .     S
C454   N538    1.369   .     A
C454   C471    1.416   .     A
C454   Cl474   1.758   .     S
C455   H500    1.110   .     S
C455   H498    1.107   .     S
C455   H497    1.111   .     S
C456   O545    1.421   .     S
C456   C457    1.521   .     S
C456   H502    1.116   .     S
C456   H501    1.114   .     S
C457   H505    1.111   .     S
C457   H504    1.110   .     S
C457   H503    1.110   .     S
C458   H506    1.111   .     S
C458   O546    1.409   .     S
C458   H507    1.111   .     S
C458   C459    1.513   .     S
C459   H508    1.111   .     S
C459   H511    1.109   .     S
C459   H509    1.110   .     S
C460   H513    1.108   .     S
C460   O547    1.404   .     S
C461   H516    1.111   .     S
C461   C180    1.523   1_565 S
C461   H234    1.111   1_565 S
C461   H1635   1.108   1_554 S
C462   H518    1.108   .     S
C462   O548    1.407   .     S
C462   H517    1.115   .     S
C462   C463    1.522   .     S
C463   H519    1.110   .     S
C463   H520    1.110   .     S
C463   H242    1.109   1_565 S
C464   H524    1.110   .     S
C464   O549    1.403   .     S
C465   C472    1.409   .     A
C465   N537    1.366   .     A
C465   Cl475   1.761   .     S
C466   H527    1.110   .     S
C466   C184    1.524   1_565 S
C466   H805    1.110   1_565 S
C466   H1086   1.105   .     S
C467   C468    1.523   .     S
C467   H529    1.113   .     S
C467   O551    1.413   .     S
C467   H248    1.108   1_565 S
C468   H530    1.109   .     S
C468   H531    1.110   .     S
C468   H533    1.111   .     S
C469   N538    1.366   .     A
C469   Cl476   1.755   .     S
C470   O547    1.382   .     S
C471   O548    1.381   .     S
C472   O549    1.378   .     S
H512   C180    1.110   1_565 S
H515   C1021   1.108   .     S
H523   C184    1.111   1_565 S
H525   C1306   1.110   1_554 S
H526   C1586   1.105   1_554 S
H535   C306    1.110   1_655 S
N537   Zn560   2.030   .     S
N538   Zn559   2.030   .     S
O539   Zn559   1.968   .     S
O550   Zn560   1.968   .     S
O552   Zn559   1.988   .     S
O553   Zn560   1.988   .     S
O554   Zn559   1.957   .     S
O555   Zn560   1.957   .     S
O556   Zn559   1.961   .     S
O557   Zn560   1.961   .     S
C561   O679    1.297   .     A
C561   O693    1.308   .     A
C561   C578    1.464   .     S
C562   C566    1.426   .     A
C562   O691    1.382   .     S
C562   C609    1.408   .     A
C563   C567    1.374   .     S
C563   O697    1.288   .     A
C563   O694    1.286   .     A
C564   C568    1.374   .     S
C564   O696    1.287   .     A
C564   O695    1.286   .     A
C565   C612    1.428   .     A
C565   C610    1.430   .     A
C565   C846    1.541   1_545 S
C566   C611    1.425   .     A
C566   C845    1.541   .     S
C568   C1127   1.170   .     S
C569   C574    1.378   .     A
C569   O698    1.381   .     S
C569   C580    1.411   .     A
C570   C581    1.425   .     A
C570   C575    1.406   .     A
C570   O680    1.385   .     S
C571   O681    1.381   .     S
C571   C581    1.413   .     A
C571   C576    1.377   .     A
C572   O690    1.305   .     A
C572   O692    1.297   .     A
C572   C579    1.459   .     S
C573   C580    1.422   .     A
C573   C577    1.407   .     A
C573   O682    1.385   .     S
C574   C578    1.404   .     A
C574   O683    1.387   .     S
C575   C579    1.404   .     A
C575   O684    1.384   .     S
C576   O685    1.387   .     S
C576   C579    1.402   .     A
C577   O686    1.381   .     S
C577   C578    1.403   .     A
C580   C721    1.472   1_455 S
C581   C720    1.472   .     S
C582   H617    1.112   .     S
C582   H628    1.116   .     S
C582   C584    1.521   .     S
C582   O698    1.412   .     S
C583   Cl613   1.757   .     S
C583   C610    1.413   .     A
C583   N677    1.365   .     A
C584   H661    1.111   .     S
C584   H639    1.110   .     S
C584   H650    1.111   .     S
C585   O680    1.410   .     S
C585   H674    1.113   .     S
C585   C726    1.521   .     S
C585   H812    1.111   .     S
C586   H618    1.107   .     S
C586   H676    1.108   .     S
C586   C725    1.521   1_455 S
C586   H815    1.110   1_455 S
C587   H620    1.114   .     S
C587   O681    1.411   .     S
C587   H619    1.114   .     S
C587   C588    1.520   .     S
C588   H621    1.110   .     S
C588   H622    1.110   .     S
C588   H763    1.111   .     S
C589   H624    1.110   .     S
C589   C590    1.521   .     S
C589   H765    1.113   .     S
C589   O822    1.411   .     S
C590   H627    1.110   .     S
C590   H626    1.109   .     S
C590   H629    1.110   .     S
C591   H630    1.114   .     S
C591   H631    1.115   .     S
C591   C592    1.517   .     S
C591   O683    1.421   .     S
C592   H632    1.108   .     S
C592   H634    1.110   .     S
C592   H633    1.111   .     S
C593   H636    1.111   .     S
C593   H635    1.111   .     S
C593   O684    1.409   .     S
C593   C595    1.522   .     S
C594   N678    1.369   .     A
C594   C611    1.416   .     A
C594   Cl614   1.758   .     S
C595   H640    1.110   .     S
C595   H638    1.107   .     S
C595   H637    1.111   .     S
C596   O685    1.421   .     S
C596   C597    1.521   .     S
C596   H642    1.116   .     S
C596   H641    1.114   .     S
C597   H645    1.111   .     S
C597   H644    1.110   .     S
C597   H643    1.110   .     S
C598   H646    1.111   .     S
C598   O686    1.409   .     S
C598   H647    1.111   .     S
C598   C599    1.513   .     S
C599   H648    1.111   .     S
C599   H651    1.109   .     S
C599   H649    1.110   .     S
C600   H653    1.108   .     S
C600   O687    1.404   .     S
C600   C881    1.523   1_545 S
C600   H932    1.110   1_545 S
C601   H656    1.111   .     S
C601   C880    1.523   .     S
C601   H934    1.111   .     S
C602   H658    1.108   .     S
C602   O688    1.407   .     S
C602   H657    1.115   .     S
C602   C603    1.522   .     S
C603   H659    1.110   .     S
C603   H660    1.110   .     S
C603   H942    1.109   .     S
C604   H664    1.110   .     S
C604   O689    1.403   .     S
C604   C886    1.524   1_545 S
C604   H943    1.111   1_545 S
C605   C612    1.409   .     A
C605   N677    1.366   .     A
C605   Cl615   1.761   .     S
C606   H667    1.110   .     S
C606   C884    1.524   .     S
C606   H1505   1.110   .     S
C606   H1226   1.105   .     S
C607   C608    1.523   .     S
C607   H669    1.113   .     S
C607   O691    1.413   .     S
C607   H948    1.108   .     S
C608   H670    1.109   .     S
C608   H671    1.110   .     S
C608   H673    1.111   .     S
C609   N678    1.366   .     A
C609   Cl616   1.755   .     S
C610   O687    1.382   .     S
C611   O688    1.381   .     S
C612   O689    1.378   .     S
H623   C728    1.111   1_455 S
H625   C729    1.113   1_455 S
H652   C880    1.110   .     S
H654   C881    1.111   1_545 S
H655   C1161   1.108   .     S
H662   C883    1.109   1_545 S
H663   C884    1.111   .     S
H665   C326    1.110   1_545 S
H668   C887    1.108   1_545 S
H672   C725    1.111   1_455 S
H675   C726    1.110   .     S
N677   Zn700   2.030   .     S
N678   Zn699   2.030   .     S
O679   Zn699   1.968   .     S
O682   C729    1.411   1_455 S
O690   Zn700   1.968   .     S
O692   Zn699   1.988   .     S
O693   Zn700   1.988   .     S
O694   Zn699   1.957   .     S
O695   Zn700   1.957   .     S
O696   Zn699   1.961   .     S
O697   Zn700   1.961   .     S
C701   O819    1.297   .     A
C701   O833    1.308   .     A
C701   C718    1.464   .     S
C702   C706    1.426   .     A
C702   O831    1.382   .     S
C702   C749    1.408   .     A
C703   C707    1.374   .     S
C703   O837    1.288   .     A
C703   O834    1.286   .     A
C704   C708    1.374   .     S
C704   O836    1.287   .     A
C704   O835    1.286   .     A
C705   C752    1.428   .     A
C705   C750    1.430   .     A
C705   C986    1.541   1_545 S
C706   C751    1.425   .     A
C706   C985    1.541   .     S
C708   C1267   1.170   .     S
C709   C714    1.378   .     A
C709   O838    1.381   .     S
C709   C720    1.411   .     A
C710   C721    1.425   .     A
C710   C715    1.406   .     A
C710   O820    1.385   .     S
C711   O821    1.381   .     S
C711   C721    1.413   .     A
C711   C716    1.377   .     A
C712   O830    1.305   .     A
C712   O832    1.297   .     A
C712   C719    1.459   .     S
C713   C720    1.422   .     A
C713   C717    1.407   .     A
C713   O822    1.385   .     S
C714   C718    1.404   .     A
C714   O823    1.387   .     S
C715   C719    1.404   .     A
C715   O824    1.384   .     S
C716   O825    1.387   .     S
C716   C719    1.402   .     A
C717   O826    1.381   .     S
C717   C718    1.403   .     A
C721   C580    1.472   1_655 S
C722   H757    1.112   .     S
C722   H768    1.116   .     S
C722   C724    1.521   .     S
C722   O838    1.412   .     S
C723   Cl753   1.757   .     S
C723   C750    1.413   .     A
C723   N817    1.365   .     A
C724   H801    1.111   .     S
C724   H779    1.110   .     S
C724   H790    1.111   .     S
C725   O820    1.410   .     S
C725   H814    1.113   .     S
C725   C586    1.521   1_655 S
C725   H672    1.111   1_655 S
C726   H758    1.107   .     S
C726   H816    1.108   .     S
C727   H760    1.114   .     S
C727   O821    1.411   .     S
C727   H759    1.114   .     S
C727   C728    1.520   .     S
C728   H761    1.110   .     S
C728   H762    1.110   .     S
C728   H623    1.111   1_655 S
C729   H764    1.110   .     S
C729   C730    1.521   .     S
C729   H625    1.113   1_655 S
C729   O682    1.411   1_655 S
C730   H767    1.110   .     S
C730   H766    1.109   .     S
C730   H769    1.110   .     S
C731   H770    1.114   .     S
C731   H771    1.115   .     S
C731   C732    1.517   .     S
C731   O823    1.421   .     S
C732   H772    1.108   .     S
C732   H774    1.110   .     S
C732   H773    1.111   .     S
C733   H776    1.111   .     S
C733   H775    1.111   .     S
C733   O824    1.409   .     S
C733   C735    1.522   .     S
C734   N818    1.369   .     A
C734   C751    1.416   .     A
C734   Cl754   1.758   .     S
C735   H780    1.110   .     S
C735   H778    1.107   .     S
C735   H777    1.111   .     S
C736   O825    1.421   .     S
C736   C737    1.521   .     S
C736   H782    1.116   .     S
C736   H781    1.114   .     S
C737   H785    1.111   .     S
C737   H784    1.110   .     S
C737   H783    1.110   .     S
C738   H786    1.111   .     S
C738   O826    1.409   .     S
C738   H787    1.111   .     S
C738   C739    1.513   .     S
C739   H788    1.111   .     S
C739   H791    1.109   .     S
C739   H789    1.110   .     S
C740   H793    1.108   .     S
C740   O827    1.404   .     S
C740   C1021   1.523   1_545 S
C740   H1072   1.110   1_545 S
C741   H796    1.111   .     S
C741   C1020   1.523   .     S
C741   H1074   1.111   .     S
C742   H798    1.108   .     S
C742   O828    1.407   .     S
C742   H797    1.115   .     S
C742   C743    1.522   .     S
C743   H799    1.110   .     S
C743   H800    1.110   .     S
C743   H1082   1.109   .     S
C744   H804    1.110   .     S
C744   O829    1.403   .     S
C744   C1026   1.524   1_545 S
C744   H1083   1.111   1_545 S
C745   C752    1.409   .     A
C745   N817    1.366   .     A
C745   Cl755   1.761   .     S
C746   H807    1.110   .     S
C746   C1024   1.524   .     S
C746   H1645   1.110   .     S
C746   H1366   1.105   .     S
C747   C748    1.523   .     S
C747   H809    1.113   .     S
C747   O831    1.413   .     S
C747   H1088   1.108   .     S
C748   H810    1.109   .     S
C748   H811    1.110   .     S
C748   H813    1.111   .     S
C749   N818    1.366   .     A
C749   Cl756   1.755   .     S
C750   O827    1.382   .     S
C751   O828    1.381   .     S
C752   O829    1.378   .     S
H792   C1020   1.110   .     S
H794   C1021   1.111   1_545 S
H795   C1301   1.108   .     S
H802   C1023   1.109   1_545 S
H803   C1024   1.111   .     S
H805   C466    1.110   1_545 S
H808   C1027   1.108   1_545 S
H815   C586    1.110   1_655 S
N817   Zn840   2.030   .     S
N818   Zn839   2.030   .     S
O819   Zn839   1.968   .     S
O830   Zn840   1.968   .     S
O832   Zn839   1.988   .     S
O833   Zn840   1.988   .     S
O834   Zn839   1.957   .     S
O835   Zn840   1.957   .     S
O836   Zn839   1.961   .     S
O837   Zn840   1.961   .     S
C841   O959    1.297   .     A
C841   O973    1.308   .     A
C841   C858    1.464   .     S
C842   C846    1.426   .     A
C842   O971    1.382   .     S
C842   C889    1.408   .     A
C843   C847    1.374   .     S
C843   O977    1.288   .     A
C843   O974    1.286   .     A
C844   C848    1.374   .     S
C844   O976    1.287   .     A
C844   O975    1.286   .     A
C845   C892    1.428   .     A
C845   C890    1.430   .     A
C846   C891    1.425   .     A
C846   C565    1.541   1_565 S
C848   C1407   1.170   .     S
C849   C854    1.378   .     A
C849   O978    1.381   .     S
C849   C860    1.411   .     A
C850   C861    1.425   .     A
C850   C855    1.406   .     A
C850   O960    1.385   .     S
C851   O961    1.381   .     S
C851   C861    1.413   .     A
C851   C856    1.377   .     A
C852   O970    1.305   .     A
C852   O972    1.297   .     A
C852   C859    1.459   .     S
C853   C860    1.422   .     A
C853   C857    1.407   .     A
C853   O962    1.385   .     S
C854   C858    1.404   .     A
C854   O963    1.387   .     S
C855   C859    1.404   .     A
C855   O964    1.384   .     S
C856   O965    1.387   .     S
C856   C859    1.402   .     A
C857   O966    1.381   .     S
C857   C858    1.403   .     A
C860   C1001   1.472   1_455 S
C861   C1000   1.472   .     S
C862   H897    1.112   .     S
C862   H908    1.116   .     S
C862   C864    1.521   .     S
C862   O978    1.412   .     S
C863   Cl893   1.757   .     S
C863   C890    1.413   .     A
C863   N957    1.365   .     A
C864   H941    1.111   .     S
C864   H919    1.110   .     S
C864   H930    1.111   .     S
C865   O960    1.410   .     S
C865   H954    1.113   .     S
C865   C1006   1.521   .     S
C865   H1092   1.111   .     S
C866   H898    1.107   .     S
C866   H956    1.108   .     S
C866   C1005   1.521   1_455 S
C866   H1095   1.110   1_455 S
C867   H900    1.114   .     S
C867   O961    1.411   .     S
C867   H899    1.114   .     S
C867   C868    1.520   .     S
C868   H901    1.110   .     S
C868   H902    1.110   .     S
C868   H1043   1.111   .     S
C869   H904    1.110   .     S
C869   C870    1.521   .     S
C869   H1045   1.113   .     S
C869   O1102   1.411   .     S
C870   H907    1.110   .     S
C870   H906    1.109   .     S
C870   H909    1.110   .     S
C871   H910    1.114   .     S
C871   H911    1.115   .     S
C871   C872    1.517   .     S
C871   O963    1.421   .     S
C872   H912    1.108   .     S
C872   H914    1.110   .     S
C872   H913    1.111   .     S
C873   H916    1.111   .     S
C873   H915    1.111   .     S
C873   O964    1.409   .     S
C873   C875    1.522   .     S
C874   N958    1.369   .     A
C874   C891    1.416   .     A
C874   Cl894   1.758   .     S
C875   H920    1.110   .     S
C875   H918    1.107   .     S
C875   H917    1.111   .     S
C876   O965    1.421   .     S
C876   C877    1.521   .     S
C876   H922    1.116   .     S
C876   H921    1.114   .     S
C877   H925    1.111   .     S
C877   H924    1.110   .     S
C877   H923    1.110   .     S
C878   H926    1.111   .     S
C878   O966    1.409   .     S
C878   H927    1.111   .     S
C878   C879    1.513   .     S
C879   H928    1.111   .     S
C879   H931    1.109   .     S
C879   H929    1.110   .     S
C880   H933    1.108   .     S
C880   O967    1.404   .     S
C881   H936    1.111   .     S
C881   C600    1.523   1_565 S
C881   H654    1.111   1_565 S
C882   H938    1.108   .     S
C882   O968    1.407   .     S
C882   H937    1.115   .     S
C882   C883    1.522   .     S
C883   H939    1.110   .     S
C883   H940    1.110   .     S
C883   H662    1.109   1_565 S
C884   H944    1.110   .     S
C884   O969    1.403   .     S
C885   C892    1.409   .     A
C885   N957    1.366   .     A
C885   Cl895   1.761   .     S
C886   H947    1.110   .     S
C886   C604    1.524   1_565 S
C886   H1225   1.110   1_565 S
C886   H1506   1.105   .     S
C887   C888    1.523   .     S
C887   H949    1.113   .     S
C887   O971    1.413   .     S
C887   H668    1.108   1_565 S
C888   H950    1.109   .     S
C888   H951    1.110   .     S
C888   H953    1.111   .     S
C889   N958    1.366   .     A
C889   Cl896   1.755   .     S
C890   O967    1.382   .     S
C891   O968    1.381   .     S
C892   O969    1.378   .     S
H903   C1008   1.111   1_455 S
H905   C1009   1.113   1_455 S
H932   C600    1.110   1_565 S
H935   C1441   1.108   .     S
H943   C604    1.111   1_565 S
H952   C1005   1.111   1_455 S
H955   C1006   1.110   .     S
N957   Zn980   2.030   .     S
N958   Zn979   2.030   .     S
O959   Zn979   1.968   .     S
O962   C1009   1.411   1_455 S
O970   Zn980   1.968   .     S
O972   Zn979   1.988   .     S
O973   Zn980   1.988   .     S
O974   Zn979   1.957   .     S
O975   Zn980   1.957   .     S
O976   Zn979   1.961   .     S
O977   Zn980   1.961   .     S
C981   O1099   1.297   .     A
C981   O1113   1.308   .     A
C981   C998    1.464   .     S
C982   C986    1.426   .     A
C982   O1111   1.382   .     S
C982   C1029   1.408   .     A
C983   C987    1.374   .     S
C983   O1117   1.288   .     A
C983   O1114   1.286   .     A
C984   C988    1.374   .     S
C984   O1116   1.287   .     A
C984   O1115   1.286   .     A
C985   C1032   1.428   .     A
C985   C1030   1.430   .     A
C986   C1031   1.425   .     A
C986   C705    1.541   1_565 S
C988   C1547   1.170   .     S
C989   C994    1.378   .     A
C989   O1118   1.381   .     S
C989   C1000   1.411   .     A
C990   C1001   1.425   .     A
C990   C995    1.406   .     A
C990   O1100   1.385   .     S
C991   O1101   1.381   .     S
C991   C1001   1.413   .     A
C991   C996    1.377   .     A
C992   O1110   1.305   .     A
C992   O1112   1.297   .     A
C992   C999    1.459   .     S
C993   C1000   1.422   .     A
C993   C997    1.407   .     A
C993   O1102   1.385   .     S
C994   C998    1.404   .     A
C994   O1103   1.387   .     S
C995   C999    1.404   .     A
C995   O1104   1.384   .     S
C996   O1105   1.387   .     S
C996   C999    1.402   .     A
C997   O1106   1.381   .     S
C997   C998    1.403   .     A
C1001  C860    1.472   1_655 S
C1002  H1037   1.112   .     S
C1002  H1048   1.116   .     S
C1002  C1004   1.521   .     S
C1002  O1118   1.412   .     S
C1003  Cl1033  1.757   .     S
C1003  C1030   1.413   .     A
C1003  N1097   1.365   .     A
C1004  H1081   1.111   .     S
C1004  H1059   1.110   .     S
C1004  H1070   1.111   .     S
C1005  O1100   1.410   .     S
C1005  H1094   1.113   .     S
C1005  C866    1.521   1_655 S
C1005  H952    1.111   1_655 S
C1006  H1038   1.107   .     S
C1006  H1096   1.108   .     S
C1007  H1040   1.114   .     S
C1007  O1101   1.411   .     S
C1007  H1039   1.114   .     S
C1007  C1008   1.520   .     S
C1008  H1041   1.110   .     S
C1008  H1042   1.110   .     S
C1008  H903    1.111   1_655 S
C1009  H1044   1.110   .     S
C1009  C1010   1.521   .     S
C1009  H905    1.113   1_655 S
C1009  O962    1.411   1_655 S
C1010  H1047   1.110   .     S
C1010  H1046   1.109   .     S
C1010  H1049   1.110   .     S
C1011  H1050   1.114   .     S
C1011  H1051   1.115   .     S
C1011  C1012   1.517   .     S
C1011  O1103   1.421   .     S
C1012  H1052   1.108   .     S
C1012  H1054   1.110   .     S
C1012  H1053   1.111   .     S
C1013  H1056   1.111   .     S
C1013  H1055   1.111   .     S
C1013  O1104   1.409   .     S
C1013  C1015   1.522   .     S
C1014  N1098   1.369   .     A
C1014  C1031   1.416   .     A
C1014  Cl1034  1.758   .     S
C1015  H1060   1.110   .     S
C1015  H1058   1.107   .     S
C1015  H1057   1.111   .     S
C1016  O1105   1.421   .     S
C1016  C1017   1.521   .     S
C1016  H1062   1.116   .     S
C1016  H1061   1.114   .     S
C1017  H1065   1.111   .     S
C1017  H1064   1.110   .     S
C1017  H1063   1.110   .     S
C1018  H1066   1.111   .     S
C1018  O1106   1.409   .     S
C1018  H1067   1.111   .     S
C1018  C1019   1.513   .     S
C1019  H1068   1.111   .     S
C1019  H1071   1.109   .     S
C1019  H1069   1.110   .     S
C1020  H1073   1.108   .     S
C1020  O1107   1.404   .     S
C1021  H1076   1.111   .     S
C1021  C740    1.523   1_565 S
C1021  H794    1.111   1_565 S
C1022  H1078   1.108   .     S
C1022  O1108   1.407   .     S
C1022  H1077   1.115   .     S
C1022  C1023   1.522   .     S
C1023  H1079   1.110   .     S
C1023  H1080   1.110   .     S
C1023  H802    1.109   1_565 S
C1024  H1084   1.110   .     S
C1024  O1109   1.403   .     S
C1025  C1032   1.409   .     A
C1025  N1097   1.366   .     A
C1025  Cl1035  1.761   .     S
C1026  H1087   1.110   .     S
C1026  C744    1.524   1_565 S
C1026  H1365   1.110   1_565 S
C1026  H1646   1.105   .     S
C1027  C1028   1.523   .     S
C1027  H1089   1.113   .     S
C1027  O1111   1.413   .     S
C1027  H808    1.108   1_565 S
C1028  H1090   1.109   .     S
C1028  H1091   1.110   .     S
C1028  H1093   1.111   .     S
C1029  N1098   1.366   .     A
C1029  Cl1036  1.755   .     S
C1030  O1107   1.382   .     S
C1031  O1108   1.381   .     S
C1032  O1109   1.378   .     S
H1072  C740    1.110   1_565 S
H1075  C1581   1.108   .     S
H1083  C744    1.111   1_565 S
H1095  C866    1.110   1_655 S
N1097  Zn1120  2.030   .     S
N1098  Zn1119  2.030   .     S
O1099  Zn1119  1.968   .     S
O1110  Zn1120  1.968   .     S
O1112  Zn1119  1.988   .     S
O1113  Zn1120  1.988   .     S
O1114  Zn1119  1.957   .     S
O1115  Zn1120  1.957   .     S
O1116  Zn1119  1.961   .     S
O1117  Zn1120  1.961   .     S
C1121  O1239   1.297   .     A
C1121  O1253   1.308   .     A
C1121  C1138   1.464   .     S
C1122  C1126   1.426   .     A
C1122  O1251   1.382   .     S
C1122  C1169   1.408   .     A
C1123  C1127   1.374   .     S
C1123  O1257   1.288   .     A
C1123  O1254   1.286   .     A
C1124  C1128   1.374   .     S
C1124  O1256   1.287   .     A
C1124  O1255   1.286   .     A
C1125  C1172   1.428   .     A
C1125  C1170   1.430   .     A
C1125  C1406   1.541   1_545 S
C1126  C1171   1.425   .     A
C1126  C1405   1.541   .     S
C1128  C7      1.170   1_556 S
C1129  C1134   1.378   .     A
C1129  O1258   1.381   .     S
C1129  C1140   1.411   .     A
C1130  C1141   1.425   .     A
C1130  C1135   1.406   .     A
C1130  O1240   1.385   .     S
C1131  O1241   1.381   .     S
C1131  C1141   1.413   .     A
C1131  C1136   1.377   .     A
C1132  O1250   1.305   .     A
C1132  O1252   1.297   .     A
C1132  C1139   1.459   .     S
C1133  C1140   1.422   .     A
C1133  C1137   1.407   .     A
C1133  O1242   1.385   .     S
C1134  C1138   1.404   .     A
C1134  O1243   1.387   .     S
C1135  C1139   1.404   .     A
C1135  O1244   1.384   .     S
C1136  O1245   1.387   .     S
C1136  C1139   1.402   .     A
C1137  O1246   1.381   .     S
C1137  C1138   1.403   .     A
C1140  C1281   1.472   1_455 S
C1141  C1280   1.472   .     S
C1142  H1177   1.112   .     S
C1142  H1188   1.116   .     S
C1142  C1144   1.521   .     S
C1142  O1258   1.412   .     S
C1143  Cl1173  1.757   .     S
C1143  C1170   1.413   .     A
C1143  N1237   1.365   .     A
C1144  H1221   1.111   .     S
C1144  H1199   1.110   .     S
C1144  H1210   1.111   .     S
C1145  O1240   1.410   .     S
C1145  H1234   1.113   .     S
C1145  C1286   1.521   .     S
C1145  H1372   1.111   .     S
C1146  H1178   1.107   .     S
C1146  H1236   1.108   .     S
C1146  C1285   1.521   1_455 S
C1146  H1375   1.110   1_455 S
C1147  H1180   1.114   .     S
C1147  O1241   1.411   .     S
C1147  H1179   1.114   .     S
C1147  C1148   1.520   .     S
C1148  H1181   1.110   .     S
C1148  H1182   1.110   .     S
C1148  H1323   1.111   .     S
C1149  H1184   1.110   .     S
C1149  C1150   1.521   .     S
C1149  H1325   1.113   .     S
C1149  O1382   1.411   .     S
C1150  H1187   1.110   .     S
C1150  H1186   1.109   .     S
C1150  H1189   1.110   .     S
C1151  H1190   1.114   .     S
C1151  H1191   1.115   .     S
C1151  C1152   1.517   .     S
C1151  O1243   1.421   .     S
C1152  H1192   1.108   .     S
C1152  H1194   1.110   .     S
C1152  H1193   1.111   .     S
C1153  H1196   1.111   .     S
C1153  H1195   1.111   .     S
C1153  O1244   1.409   .     S
C1153  C1155   1.522   .     S
C1154  N1238   1.369   .     A
C1154  C1171   1.416   .     A
C1154  Cl1174  1.758   .     S
C1155  H1200   1.110   .     S
C1155  H1198   1.107   .     S
C1155  H1197   1.111   .     S
C1156  O1245   1.421   .     S
C1156  C1157   1.521   .     S
C1156  H1202   1.116   .     S
C1156  H1201   1.114   .     S
C1157  H1205   1.111   .     S
C1157  H1204   1.110   .     S
C1157  H1203   1.110   .     S
C1158  H1206   1.111   .     S
C1158  O1246   1.409   .     S
C1158  H1207   1.111   .     S
C1158  C1159   1.513   .     S
C1159  H1208   1.111   .     S
C1159  H1211   1.109   .     S
C1159  H1209   1.110   .     S
C1160  H1213   1.108   .     S
C1160  O1247   1.404   .     S
C1160  C1441   1.523   1_545 S
C1160  H1492   1.110   1_545 S
C1161  H1216   1.111   .     S
C1161  C1440   1.523   .     S
C1161  H1494   1.111   .     S
C1162  H1218   1.108   .     S
C1162  O1248   1.407   .     S
C1162  H1217   1.115   .     S
C1162  C1163   1.522   .     S
C1163  H1219   1.110   .     S
C1163  H1220   1.110   .     S
C1163  H1502   1.109   .     S
C1164  H1224   1.110   .     S
C1164  O1249   1.403   .     S
C1164  C1446   1.524   1_545 S
C1164  H1503   1.111   1_545 S
C1165  C1172   1.409   .     A
C1165  N1237   1.366   .     A
C1165  Cl1175  1.761   .     S
C1166  H1227   1.110   .     S
C1166  C1444   1.524   .     S
C1166  H385    1.110   1_556 S
C1166  H106    1.105   1_556 S
C1167  C1168   1.523   .     S
C1167  H1229   1.113   .     S
C1167  O1251   1.413   .     S
C1167  H1508   1.108   .     S
C1168  H1230   1.109   .     S
C1168  H1231   1.110   .     S
C1168  H1233   1.111   .     S
C1169  N1238   1.366   .     A
C1169  Cl1176  1.755   .     S
C1170  O1247   1.382   .     S
C1171  O1248   1.381   .     S
C1172  O1249   1.378   .     S
H1183  C1288   1.111   1_455 S
H1185  C1289   1.113   1_455 S
H1212  C1440   1.110   .     S
H1214  C1441   1.111   1_545 S
H1215  C41     1.108   1_556 S
H1222  C1443   1.109   1_545 S
H1223  C1444   1.111   .     S
H1225  C886    1.110   1_545 S
H1228  C1447   1.108   1_545 S
H1232  C1285   1.111   1_455 S
H1235  C1286   1.110   .     S
N1237  Zn1260  2.030   .     S
N1238  Zn1259  2.030   .     S
O1239  Zn1259  1.968   .     S
O1242  C1289   1.411   1_455 S
O1250  Zn1260  1.968   .     S
O1252  Zn1259  1.988   .     S
O1253  Zn1260  1.988   .     S
O1254  Zn1259  1.957   .     S
O1255  Zn1260  1.957   .     S
O1256  Zn1259  1.961   .     S
O1257  Zn1260  1.961   .     S
C1261  O1379   1.297   .     A
C1261  O1393   1.308   .     A
C1261  C1278   1.464   .     S
C1262  C1266   1.426   .     A
C1262  O1391   1.382   .     S
C1262  C1309   1.408   .     A
C1263  C1267   1.374   .     S
C1263  O1397   1.288   .     A
C1263  O1394   1.286   .     A
C1264  C1268   1.374   .     S
C1264  O1396   1.287   .     A
C1264  O1395   1.286   .     A
C1265  C1312   1.428   .     A
C1265  C1310   1.430   .     A
C1265  C1546   1.541   1_545 S
C1266  C1311   1.425   .     A
C1266  C1545   1.541   .     S
C1268  C147    1.170   1_556 S
C1269  C1274   1.378   .     A
C1269  O1398   1.381   .     S
C1269  C1280   1.411   .     A
C1270  C1281   1.425   .     A
C1270  C1275   1.406   .     A
C1270  O1380   1.385   .     S
C1271  O1381   1.381   .     S
C1271  C1281   1.413   .     A
C1271  C1276   1.377   .     A
C1272  O1390   1.305   .     A
C1272  O1392   1.297   .     A
C1272  C1279   1.459   .     S
C1273  C1280   1.422   .     A
C1273  C1277   1.407   .     A
C1273  O1382   1.385   .     S
C1274  C1278   1.404   .     A
C1274  O1383   1.387   .     S
C1275  C1279   1.404   .     A
C1275  O1384   1.384   .     S
C1276  O1385   1.387   .     S
C1276  C1279   1.402   .     A
C1277  O1386   1.381   .     S
C1277  C1278   1.403   .     A
C1281  C1140   1.472   1_655 S
C1282  H1317   1.112   .     S
C1282  H1328   1.116   .     S
C1282  C1284   1.521   .     S
C1282  O1398   1.412   .     S
C1283  Cl1313  1.757   .     S
C1283  C1310   1.413   .     A
C1283  N1377   1.365   .     A
C1284  H1361   1.111   .     S
C1284  H1339   1.110   .     S
C1284  H1350   1.111   .     S
C1285  O1380   1.410   .     S
C1285  H1374   1.113   .     S
C1285  C1146   1.521   1_655 S
C1285  H1232   1.111   1_655 S
C1286  H1318   1.107   .     S
C1286  H1376   1.108   .     S
C1287  H1320   1.114   .     S
C1287  O1381   1.411   .     S
C1287  H1319   1.114   .     S
C1287  C1288   1.520   .     S
C1288  H1321   1.110   .     S
C1288  H1322   1.110   .     S
C1288  H1183   1.111   1_655 S
C1289  H1324   1.110   .     S
C1289  C1290   1.521   .     S
C1289  H1185   1.113   1_655 S
C1289  O1242   1.411   1_655 S
C1290  H1327   1.110   .     S
C1290  H1326   1.109   .     S
C1290  H1329   1.110   .     S
C1291  H1330   1.114   .     S
C1291  H1331   1.115   .     S
C1291  C1292   1.517   .     S
C1291  O1383   1.421   .     S
C1292  H1332   1.108   .     S
C1292  H1334   1.110   .     S
C1292  H1333   1.111   .     S
C1293  H1336   1.111   .     S
C1293  H1335   1.111   .     S
C1293  O1384   1.409   .     S
C1293  C1295   1.522   .     S
C1294  N1378   1.369   .     A
C1294  C1311   1.416   .     A
C1294  Cl1314  1.758   .     S
C1295  H1340   1.110   .     S
C1295  H1338   1.107   .     S
C1295  H1337   1.111   .     S
C1296  O1385   1.421   .     S
C1296  C1297   1.521   .     S
C1296  H1342   1.116   .     S
C1296  H1341   1.114   .     S
C1297  H1345   1.111   .     S
C1297  H1344   1.110   .     S
C1297  H1343   1.110   .     S
C1298  H1346   1.111   .     S
C1298  O1386   1.409   .     S
C1298  H1347   1.111   .     S
C1298  C1299   1.513   .     S
C1299  H1348   1.111   .     S
C1299  H1351   1.109   .     S
C1299  H1349   1.110   .     S
C1300  H1353   1.108   .     S
C1300  O1387   1.404   .     S
C1300  C1581   1.523   1_545 S
C1300  H1632   1.110   1_545 S
C1301  H1356   1.111   .     S
C1301  C1580   1.523   .     S
C1301  H1634   1.111   .     S
C1302  H1358   1.108   .     S
C1302  O1388   1.407   .     S
C1302  H1357   1.115   .     S
C1302  C1303   1.522   .     S
C1303  H1359   1.110   .     S
C1303  H1360   1.110   .     S
C1303  H1642   1.109   .     S
C1304  H1364   1.110   .     S
C1304  O1389   1.403   .     S
C1304  C1586   1.524   1_545 S
C1304  H1643   1.111   1_545 S
C1305  C1312   1.409   .     A
C1305  N1377   1.366   .     A
C1305  Cl1315  1.761   .     S
C1306  H1367   1.110   .     S
C1306  C1584   1.524   .     S
C1306  H525    1.110   1_556 S
C1306  H246    1.105   1_556 S
C1307  C1308   1.523   .     S
C1307  H1369   1.113   .     S
C1307  O1391   1.413   .     S
C1307  H1648   1.108   .     S
C1308  H1370   1.109   .     S
C1308  H1371   1.110   .     S
C1308  H1373   1.111   .     S
C1309  N1378   1.366   .     A
C1309  Cl1316  1.755   .     S
C1310  O1387   1.382   .     S
C1311  O1388   1.381   .     S
C1312  O1389   1.378   .     S
H1352  C1580   1.110   .     S
H1354  C1581   1.111   1_545 S
H1355  C181    1.108   1_556 S
H1362  C1583   1.109   1_545 S
H1363  C1584   1.111   .     S
H1365  C1026   1.110   1_545 S
H1368  C1587   1.108   1_545 S
H1375  C1146   1.110   1_655 S
N1377  Zn1400  2.030   .     S
N1378  Zn1399  2.030   .     S
O1379  Zn1399  1.968   .     S
O1390  Zn1400  1.968   .     S
O1392  Zn1399  1.988   .     S
O1393  Zn1400  1.988   .     S
O1394  Zn1399  1.957   .     S
O1395  Zn1400  1.957   .     S
O1396  Zn1399  1.961   .     S
O1397  Zn1400  1.961   .     S
C1401  O1519   1.297   .     A
C1401  O1533   1.308   .     A
C1401  C1418   1.464   .     S
C1402  C1406   1.426   .     A
C1402  O1531   1.382   .     S
C1402  C1449   1.408   .     A
C1403  C1407   1.374   .     S
C1403  O1537   1.288   .     A
C1403  O1534   1.286   .     A
C1404  C1408   1.374   .     S
C1404  O1536   1.287   .     A
C1404  O1535   1.286   .     A
C1405  C1452   1.428   .     A
C1405  C1450   1.430   .     A
C1406  C1451   1.425   .     A
C1406  C1125   1.541   1_565 S
C1408  C287    1.170   1_556 S
C1409  C1414   1.378   .     A
C1409  O1538   1.381   .     S
C1409  C1420   1.411   .     A
C1410  C1421   1.425   .     A
C1410  C1415   1.406   .     A
C1410  O1520   1.385   .     S
C1411  O1521   1.381   .     S
C1411  C1421   1.413   .     A
C1411  C1416   1.377   .     A
C1412  O1530   1.305   .     A
C1412  O1532   1.297   .     A
C1412  C1419   1.459   .     S
C1413  C1420   1.422   .     A
C1413  C1417   1.407   .     A
C1413  O1522   1.385   .     S
C1414  C1418   1.404   .     A
C1414  O1523   1.387   .     S
C1415  C1419   1.404   .     A
C1415  O1524   1.384   .     S
C1416  O1525   1.387   .     S
C1416  C1419   1.402   .     A
C1417  O1526   1.381   .     S
C1417  C1418   1.403   .     A
C1420  C1561   1.472   1_455 S
C1421  C1560   1.472   .     S
C1422  H1457   1.112   .     S
C1422  H1468   1.116   .     S
C1422  C1424   1.521   .     S
C1422  O1538   1.412   .     S
C1423  Cl1453  1.757   .     S
C1423  C1450   1.413   .     A
C1423  N1517   1.365   .     A
C1424  H1501   1.111   .     S
C1424  H1479   1.110   .     S
C1424  H1490   1.111   .     S
C1425  O1520   1.410   .     S
C1425  H1514   1.113   .     S
C1425  C1566   1.521   .     S
C1425  H1652   1.111   .     S
C1426  H1458   1.107   .     S
C1426  H1516   1.108   .     S
C1426  C1565   1.521   1_455 S
C1426  H1655   1.110   1_455 S
C1427  H1460   1.114   .     S
C1427  O1521   1.411   .     S
C1427  H1459   1.114   .     S
C1427  C1428   1.520   .     S
C1428  H1461   1.110   .     S
C1428  H1462   1.110   .     S
C1428  H1603   1.111   .     S
C1429  H1464   1.110   .     S
C1429  C1430   1.521   .     S
C1429  H1605   1.113   .     S
C1429  O1662   1.411   .     S
C1430  H1467   1.110   .     S
C1430  H1466   1.109   .     S
C1430  H1469   1.110   .     S
C1431  H1470   1.114   .     S
C1431  H1471   1.115   .     S
C1431  C1432   1.517   .     S
C1431  O1523   1.421   .     S
C1432  H1472   1.108   .     S
C1432  H1474   1.110   .     S
C1432  H1473   1.111   .     S
C1433  H1476   1.111   .     S
C1433  H1475   1.111   .     S
C1433  O1524   1.409   .     S
C1433  C1435   1.522   .     S
C1434  N1518   1.369   .     A
C1434  C1451   1.416   .     A
C1434  Cl1454  1.758   .     S
C1435  H1480   1.110   .     S
C1435  H1478   1.107   .     S
C1435  H1477   1.111   .     S
C1436  O1525   1.421   .     S
C1436  C1437   1.521   .     S
C1436  H1482   1.116   .     S
C1436  H1481   1.114   .     S
C1437  H1485   1.111   .     S
C1437  H1484   1.110   .     S
C1437  H1483   1.110   .     S
C1438  H1486   1.111   .     S
C1438  O1526   1.409   .     S
C1438  H1487   1.111   .     S
C1438  C1439   1.513   .     S
C1439  H1488   1.111   .     S
C1439  H1491   1.109   .     S
C1439  H1489   1.110   .     S
C1440  H1493   1.108   .     S
C1440  O1527   1.404   .     S
C1441  H1496   1.111   .     S
C1441  C1160   1.523   1_565 S
C1441  H1214   1.111   1_565 S
C1442  H1498   1.108   .     S
C1442  O1528   1.407   .     S
C1442  H1497   1.115   .     S
C1442  C1443   1.522   .     S
C1443  H1499   1.110   .     S
C1443  H1500   1.110   .     S
C1443  H1222   1.109   1_565 S
C1444  H1504   1.110   .     S
C1444  O1529   1.403   .     S
C1445  C1452   1.409   .     A
C1445  N1517   1.366   .     A
C1445  Cl1455  1.761   .     S
C1446  H1507   1.110   .     S
C1446  C1164   1.524   1_565 S
C1446  H105    1.110   1_566 S
C1446  H386    1.105   1_556 S
C1447  C1448   1.523   .     S
C1447  H1509   1.113   .     S
C1447  O1531   1.413   .     S
C1447  H1228   1.108   1_565 S
C1448  H1510   1.109   .     S
C1448  H1511   1.110   .     S
C1448  H1513   1.111   .     S
C1449  N1518   1.366   .     A
C1449  Cl1456  1.755   .     S
C1450  O1527   1.382   .     S
C1451  O1528   1.381   .     S
C1452  O1529   1.378   .     S
H1463  C1568   1.111   1_455 S
H1465  C1569   1.113   1_455 S
H1492  C1160   1.110   1_565 S
H1495  C321    1.108   1_556 S
H1503  C1164   1.111   1_565 S
H1512  C1565   1.111   1_455 S
H1515  C1566   1.110   .     S
N1517  Zn1540  2.030   .     S
N1518  Zn1539  2.030   .     S
O1519  Zn1539  1.968   .     S
O1522  C1569   1.411   1_455 S
O1530  Zn1540  1.968   .     S
O1532  Zn1539  1.988   .     S
O1533  Zn1540  1.988   .     S
O1534  Zn1539  1.957   .     S
O1535  Zn1540  1.957   .     S
O1536  Zn1539  1.961   .     S
O1537  Zn1540  1.961   .     S
C1541  O1659   1.297   .     A
C1541  O1673   1.308   .     A
C1541  C1558   1.464   .     S
C1542  C1546   1.426   .     A
C1542  O1671   1.382   .     S
C1542  C1589   1.408   .     A
C1543  C1547   1.374   .     S
C1543  O1677   1.288   .     A
C1543  O1674   1.286   .     A
C1544  C1548   1.374   .     S
C1544  O1676   1.287   .     A
C1544  O1675   1.286   .     A
C1545  C1592   1.428   .     A
C1545  C1590   1.430   .     A
C1546  C1591   1.425   .     A
C1546  C1265   1.541   1_565 S
C1548  C427    1.170   1_556 S
C1549  C1554   1.378   .     A
C1549  O1678   1.381   .     S
C1549  C1560   1.411   .     A
C1550  C1561   1.425   .     A
C1550  C1555   1.406   .     A
C1550  O1660   1.385   .     S
C1551  O1661   1.381   .     S
C1551  C1561   1.413   .     A
C1551  C1556   1.377   .     A
C1552  O1670   1.305   .     A
C1552  O1672   1.297   .     A
C1552  C1559   1.459   .     S
C1553  C1560   1.422   .     A
C1553  C1557   1.407   .     A
C1553  O1662   1.385   .     S
C1554  C1558   1.404   .     A
C1554  O1663   1.387   .     S
C1555  C1559   1.404   .     A
C1555  O1664   1.384   .     S
C1556  O1665   1.387   .     S
C1556  C1559   1.402   .     A
C1557  O1666   1.381   .     S
C1557  C1558   1.403   .     A
C1561  C1420   1.472   1_655 S
C1562  H1597   1.112   .     S
C1562  H1608   1.116   .     S
C1562  C1564   1.521   .     S
C1562  O1678   1.412   .     S
C1563  Cl1593  1.757   .     S
C1563  C1590   1.413   .     A
C1563  N1657   1.365   .     A
C1564  H1641   1.111   .     S
C1564  H1619   1.110   .     S
C1564  H1630   1.111   .     S
C1565  O1660   1.410   .     S
C1565  H1654   1.113   .     S
C1565  C1426   1.521   1_655 S
C1565  H1512   1.111   1_655 S
C1566  H1598   1.107   .     S
C1566  H1656   1.108   .     S
C1567  H1600   1.114   .     S
C1567  O1661   1.411   .     S
C1567  H1599   1.114   .     S
C1567  C1568   1.520   .     S
C1568  H1601   1.110   .     S
C1568  H1602   1.110   .     S
C1568  H1463   1.111   1_655 S
C1569  H1604   1.110   .     S
C1569  C1570   1.521   .     S
C1569  H1465   1.113   1_655 S
C1569  O1522   1.411   1_655 S
C1570  H1607   1.110   .     S
C1570  H1606   1.109   .     S
C1570  H1609   1.110   .     S
C1571  H1610   1.114   .     S
C1571  H1611   1.115   .     S
C1571  C1572   1.517   .     S
C1571  O1663   1.421   .     S
C1572  H1612   1.108   .     S
C1572  H1614   1.110   .     S
C1572  H1613   1.111   .     S
C1573  H1616   1.111   .     S
C1573  H1615   1.111   .     S
C1573  O1664   1.409   .     S
C1573  C1575   1.522   .     S
C1574  N1658   1.369   .     A
C1574  C1591   1.416   .     A
C1574  Cl1594  1.758   .     S
C1575  H1620   1.110   .     S
C1575  H1618   1.107   .     S
C1575  H1617   1.111   .     S
C1576  O1665   1.421   .     S
C1576  C1577   1.521   .     S
C1576  H1622   1.116   .     S
C1576  H1621   1.114   .     S
C1577  H1625   1.111   .     S
C1577  H1624   1.110   .     S
C1577  H1623   1.110   .     S
C1578  H1626   1.111   .     S
C1578  O1666   1.409   .     S
C1578  H1627   1.111   .     S
C1578  C1579   1.513   .     S
C1579  H1628   1.111   .     S
C1579  H1631   1.109   .     S
C1579  H1629   1.110   .     S
C1580  H1633   1.108   .     S
C1580  O1667   1.404   .     S
C1581  H1636   1.111   .     S
C1581  C1300   1.523   1_565 S
C1581  H1354   1.111   1_565 S
C1582  H1638   1.108   .     S
C1582  O1668   1.407   .     S
C1582  H1637   1.115   .     S
C1582  C1583   1.522   .     S
C1583  H1639   1.110   .     S
C1583  H1640   1.110   .     S
C1583  H1362   1.109   1_565 S
C1584  H1644   1.110   .     S
C1584  O1669   1.403   .     S
C1585  C1592   1.409   .     A
C1585  N1657   1.366   .     A
C1585  Cl1595  1.761   .     S
C1586  H1647   1.110   .     S
C1586  C1304   1.524   1_565 S
C1586  H245    1.110   1_566 S
C1586  H526    1.105   1_556 S
C1587  C1588   1.523   .     S
C1587  H1649   1.113   .     S
C1587  O1671   1.413   .     S
C1587  H1368   1.108   1_565 S
C1588  H1650   1.109   .     S
C1588  H1651   1.110   .     S
C1588  H1653   1.111   .     S
C1589  N1658   1.366   .     A
C1589  Cl1596  1.755   .     S
C1590  O1667   1.382   .     S
C1591  O1668   1.381   .     S
C1592  O1669   1.378   .     S
H1632  C1300   1.110   1_565 S
H1635  C461    1.108   1_556 S
H1643  C1304   1.111   1_565 S
H1655  C1426   1.110   1_655 S
N1657  Zn1680  2.030   .     S
N1658  Zn1679  2.030   .     S
O1659  Zn1679  1.968   .     S
O1670  Zn1680  1.968   .     S
O1672  Zn1679  1.988   .     S
O1673  Zn1680  1.988   .     S
O1674  Zn1679  1.957   .     S
O1675  Zn1680  1.957   .     S
O1676  Zn1679  1.961   .     S
O1677  Zn1680  1.961   .     S
