data_str_m3_o5_o17_pcu_sym.20
_audit_creation_date              2020-01-03
_audit_creation_method            'Materials Studio'
_symmetry_space_group_name_H-M    'P1'
_symmetry_Int_Tables_number       1
_symmetry_cell_setting            triclinic
loop_
_symmetry_equiv_pos_as_xyz
  x,y,z
_cell_length_a                    29.8684
_cell_length_b                    26.8683
_cell_length_c                    24.2267
_cell_angle_alpha                 90.4808
_cell_angle_beta                  89.9978
_cell_angle_gamma                 89.9968
loop_
_atom_site_label
_atom_site_type_symbol
_atom_site_fract_x
_atom_site_fract_y
_atom_site_fract_z
_atom_site_U_iso_or_equiv
_atom_site_adp_type
_atom_site_occupancy
O1     O     0.25000   0.09512   0.21228   0.00000  Uiso   1.00
O2     O     0.25000   0.23822   0.12105   0.00000  Uiso   1.00
O3     O     0.25000   0.23822   0.21228   0.00000  Uiso   1.00
O4     O     0.25000   0.09512   0.12105   0.00000  Uiso   1.00
H5     H     0.45911   0.04131   0.15511   0.00000  Uiso   1.00
H6     H     0.04023   0.29117   0.19009   0.00000  Uiso   1.00
H7     H     0.45911   0.29202   0.17818   0.00000  Uiso   1.00
H8     H     0.04023   0.04215   0.14321   0.00000  Uiso   1.00
C9     C     0.25003   0.07261   0.16652   0.00000  Uiso   1.00
C10    C     0.25003   0.26073   0.16681   0.00000  Uiso   1.00
O11    O     0.18393   0.16667   0.21230   0.00000  Uiso   1.00
O12    O     0.31608   0.16667   0.12104   0.00000  Uiso   1.00
O13    O     0.31608   0.16667   0.21230   0.00000  Uiso   1.00
O14    O     0.18393   0.16667   0.12104   0.00000  Uiso   1.00
C15    C     0.16317   0.16666   0.16667   0.00000  Uiso   1.00
C16    C     0.33680   0.16667   0.16667   0.00000  Uiso   1.00
Zn17   Zn    0.25000   0.16667   0.22759   0.00000  Uiso   1.00
Zn18   Zn    0.25000   0.16667   0.10574   0.00000  Uiso   1.00
N19    N     0.25000   0.16667   0.02455   0.00000  Uiso   1.00
N20    N     0.25000   0.16667   0.30879   0.00000  Uiso   1.00
C21    C     0.40749   0.21167   0.15906   0.00000  Uiso   1.00
C22    C     0.09252   0.12407   0.14784   0.00000  Uiso   1.00
C23    C     0.40749   0.12167   0.17424   0.00000  Uiso   1.00
C24    C     0.09252   0.20924   0.18547   0.00000  Uiso   1.00
C25    C     0.38450   0.16667   0.16666   0.00000  Uiso   1.00
C26    C     0.11542   0.16665   0.16666   0.00000  Uiso   1.00
C27    C     0.45347   0.12112   0.16528   0.00000  Uiso   1.00
C28    C     0.04640   0.21130   0.17787   0.00000  Uiso   1.00
C29    C     0.45347   0.21222   0.16801   0.00000  Uiso   1.00
C30    C     0.04640   0.12203   0.15542   0.00000  Uiso   1.00
C31    C     0.47673   0.16667   0.16664   0.00000  Uiso   1.00
C32    C     0.02322   0.16666   0.16664   0.00000  Uiso   1.00
C33    C     0.47675   0.07636   0.15759   0.00000  Uiso   1.00
C34    C     0.02292   0.25637   0.18252   0.00000  Uiso   1.00
C35    C     0.47675   0.25697   0.17570   0.00000  Uiso   1.00
C36    C     0.02292   0.07696   0.15077   0.00000  Uiso   1.00
C37    C     0.25006   0.02170   0.16646   0.00000  Uiso   1.00
C38    C     0.25006   0.31163   0.16688   0.00000  Uiso   1.00
O39    O     0.38546   0.25488   0.14382   0.00000  Uiso   1.00
C40    C     0.37943   0.25476   0.08557   0.00000  Uiso   1.00
H41    H     0.35335   0.28285   0.07587   0.00000  Uiso   1.00
H42    H     0.36674   0.21855   0.06953   0.00000  Uiso   1.00
C43    C     0.42243   0.26840   0.05420   0.00000  Uiso   1.00
H44    H     0.43348   0.30626   0.06675   0.00000  Uiso   1.00
H45    H     0.44966   0.24182   0.06391   0.00000  Uiso   1.00
C46    C     0.41507   0.26607   0.32517   0.00000  Uiso   1.00
H47    H     0.40644   0.22752   0.31206   0.00000  Uiso   1.00
H48    H     0.44632   0.27712   0.30367   0.00000  Uiso   1.00
H49    H     0.38758   0.29143   0.31278   0.00000  Uiso   1.00
O50    O     0.11527   0.08359   0.12560   0.00000  Uiso   1.00
C51    C     0.12161   0.09073   0.06804   0.00000  Uiso   1.00
H52    H     0.15171   0.06907   0.05559   0.00000  Uiso   1.00
H53    H     0.12849   0.13020   0.05706   0.00000  Uiso   1.00
C54    C     0.08145   0.07203   0.03420   0.00000  Uiso   1.00
H55    H     0.07380   0.03294   0.04533   0.00000  Uiso   1.00
H56    H     0.05162   0.09535   0.04335   0.00000  Uiso   1.00
C57    C     0.09076   0.07487   0.30562   0.00000  Uiso   1.00
H58    H     0.09821   0.11383   0.29359   0.00000  Uiso   1.00
H59    H     0.06083   0.06207   0.28228   0.00000  Uiso   1.00
H60    H     0.11960   0.05070   0.29435   0.00000  Uiso   1.00
O61    O     0.38547   0.07847   0.18951   0.00000  Uiso   1.00
C62    C     0.37945   0.07860   0.24776   0.00000  Uiso   1.00
H63    H     0.35336   0.05053   0.25748   0.00000  Uiso   1.00
H64    H     0.36679   0.11482   0.26380   0.00000  Uiso   1.00
C65    C     0.42245   0.06493   0.27910   0.00000  Uiso   1.00
H66    H     0.43348   0.02705   0.26656   0.00000  Uiso   1.00
H67    H     0.44969   0.09148   0.26938   0.00000  Uiso   1.00
C68    C     0.41512   0.06726   0.00814   0.00000  Uiso   1.00
H69    H     0.40651   0.10583   0.02125   0.00000  Uiso   1.00
H70    H     0.44636   0.05619   0.02962   0.00000  Uiso   1.00
H71    H     0.38761   0.04193   0.02055   0.00000  Uiso   1.00
O72    O     0.11526   0.24970   0.20777   0.00000  Uiso   1.00
C73    C     0.12155   0.24250   0.26533   0.00000  Uiso   1.00
H74    H     0.15172   0.26402   0.27780   0.00000  Uiso   1.00
H75    H     0.12830   0.20300   0.27629   0.00000  Uiso   1.00
C76    C     0.08144   0.26137   0.29915   0.00000  Uiso   1.00
H77    H     0.07398   0.30051   0.28809   0.00000  Uiso   1.00
H78    H     0.05152   0.23824   0.28991   0.00000  Uiso   1.00
C79    C     0.09067   0.25836   0.02773   0.00000  Uiso   1.00
H80    H     0.09780   0.21932   0.03972   0.00000  Uiso   1.00
H81    H     0.06083   0.27143   0.05106   0.00000  Uiso   1.00
H82    H     0.11968   0.28223   0.03909   0.00000  Uiso   1.00
O83    O     0.75000   0.09512   0.21228   0.00000  Uiso   1.00
O84    O     0.75000   0.23822   0.12105   0.00000  Uiso   1.00
O85    O     0.75000   0.23822   0.21228   0.00000  Uiso   1.00
O86    O     0.75000   0.09512   0.12105   0.00000  Uiso   1.00
H87    H     0.95911   0.04131   0.15511   0.00000  Uiso   1.00
H88    H     0.54023   0.29117   0.19009   0.00000  Uiso   1.00
H89    H     0.95911   0.29202   0.17818   0.00000  Uiso   1.00
H90    H     0.54023   0.04215   0.14321   0.00000  Uiso   1.00
C91    C     0.75003   0.07261   0.16652   0.00000  Uiso   1.00
C92    C     0.75003   0.26073   0.16681   0.00000  Uiso   1.00
O93    O     0.68393   0.16667   0.21230   0.00000  Uiso   1.00
O94    O     0.81608   0.16667   0.12104   0.00000  Uiso   1.00
O95    O     0.81608   0.16667   0.21230   0.00000  Uiso   1.00
O96    O     0.68393   0.16667   0.12104   0.00000  Uiso   1.00
C97    C     0.66317   0.16666   0.16667   0.00000  Uiso   1.00
C98    C     0.83680   0.16667   0.16667   0.00000  Uiso   1.00
Zn99   Zn    0.75000   0.16667   0.22759   0.00000  Uiso   1.00
Zn100  Zn    0.75000   0.16667   0.10574   0.00000  Uiso   1.00
N101   N     0.75000   0.16667   0.02455   0.00000  Uiso   1.00
N102   N     0.75000   0.16667   0.30879   0.00000  Uiso   1.00
C103   C     0.90749   0.21167   0.15906   0.00000  Uiso   1.00
C104   C     0.59252   0.12407   0.14784   0.00000  Uiso   1.00
C105   C     0.90749   0.12167   0.17424   0.00000  Uiso   1.00
C106   C     0.59252   0.20924   0.18547   0.00000  Uiso   1.00
C107   C     0.88450   0.16667   0.16666   0.00000  Uiso   1.00
C108   C     0.61542   0.16665   0.16666   0.00000  Uiso   1.00
C109   C     0.95347   0.12112   0.16528   0.00000  Uiso   1.00
C110   C     0.54640   0.21130   0.17787   0.00000  Uiso   1.00
C111   C     0.95347   0.21222   0.16801   0.00000  Uiso   1.00
C112   C     0.54640   0.12203   0.15542   0.00000  Uiso   1.00
C113   C     0.97673   0.16667   0.16664   0.00000  Uiso   1.00
C114   C     0.52322   0.16666   0.16664   0.00000  Uiso   1.00
C115   C     0.97675   0.07636   0.15759   0.00000  Uiso   1.00
C116   C     0.52292   0.25637   0.18252   0.00000  Uiso   1.00
C117   C     0.97675   0.25697   0.17570   0.00000  Uiso   1.00
C118   C     0.52292   0.07696   0.15077   0.00000  Uiso   1.00
C119   C     0.75006   0.02170   0.16646   0.00000  Uiso   1.00
C120   C     0.75006   0.31163   0.16688   0.00000  Uiso   1.00
O121   O     0.88546   0.25488   0.14382   0.00000  Uiso   1.00
C122   C     0.87943   0.25476   0.08557   0.00000  Uiso   1.00
H123   H     0.85335   0.28285   0.07587   0.00000  Uiso   1.00
H124   H     0.86674   0.21855   0.06953   0.00000  Uiso   1.00
C125   C     0.92243   0.26840   0.05420   0.00000  Uiso   1.00
H126   H     0.93348   0.30626   0.06675   0.00000  Uiso   1.00
H127   H     0.94966   0.24182   0.06391   0.00000  Uiso   1.00
C128   C     0.91507   0.26607   0.32517   0.00000  Uiso   1.00
H129   H     0.90644   0.22752   0.31206   0.00000  Uiso   1.00
H130   H     0.94632   0.27712   0.30367   0.00000  Uiso   1.00
H131   H     0.88758   0.29143   0.31278   0.00000  Uiso   1.00
O132   O     0.61527   0.08359   0.12560   0.00000  Uiso   1.00
C133   C     0.62161   0.09073   0.06804   0.00000  Uiso   1.00
H134   H     0.65171   0.06907   0.05559   0.00000  Uiso   1.00
H135   H     0.62849   0.13020   0.05706   0.00000  Uiso   1.00
C136   C     0.58145   0.07203   0.03420   0.00000  Uiso   1.00
H137   H     0.57380   0.03294   0.04533   0.00000  Uiso   1.00
H138   H     0.55162   0.09535   0.04335   0.00000  Uiso   1.00
C139   C     0.59076   0.07487   0.30562   0.00000  Uiso   1.00
H140   H     0.59821   0.11383   0.29359   0.00000  Uiso   1.00
H141   H     0.56083   0.06207   0.28228   0.00000  Uiso   1.00
H142   H     0.61960   0.05070   0.29435   0.00000  Uiso   1.00
O143   O     0.88547   0.07847   0.18951   0.00000  Uiso   1.00
C144   C     0.87945   0.07860   0.24776   0.00000  Uiso   1.00
H145   H     0.85336   0.05053   0.25748   0.00000  Uiso   1.00
H146   H     0.86679   0.11482   0.26380   0.00000  Uiso   1.00
C147   C     0.92245   0.06493   0.27910   0.00000  Uiso   1.00
H148   H     0.93348   0.02705   0.26656   0.00000  Uiso   1.00
H149   H     0.94969   0.09148   0.26938   0.00000  Uiso   1.00
C150   C     0.91512   0.06726   0.00814   0.00000  Uiso   1.00
H151   H     0.90651   0.10583   0.02125   0.00000  Uiso   1.00
H152   H     0.94636   0.05619   0.02962   0.00000  Uiso   1.00
H153   H     0.88761   0.04193   0.02055   0.00000  Uiso   1.00
O154   O     0.61526   0.24970   0.20777   0.00000  Uiso   1.00
C155   C     0.62155   0.24250   0.26533   0.00000  Uiso   1.00
H156   H     0.65172   0.26402   0.27780   0.00000  Uiso   1.00
H157   H     0.62830   0.20300   0.27629   0.00000  Uiso   1.00
C158   C     0.58144   0.26137   0.29915   0.00000  Uiso   1.00
H159   H     0.57398   0.30051   0.28809   0.00000  Uiso   1.00
H160   H     0.55152   0.23824   0.28991   0.00000  Uiso   1.00
C161   C     0.59067   0.25836   0.02773   0.00000  Uiso   1.00
H162   H     0.59780   0.21932   0.03972   0.00000  Uiso   1.00
H163   H     0.56083   0.27143   0.05106   0.00000  Uiso   1.00
H164   H     0.61968   0.28223   0.03909   0.00000  Uiso   1.00
O165   O     0.25000   0.42845   0.21228   0.00000  Uiso   1.00
O166   O     0.25000   0.57155   0.12105   0.00000  Uiso   1.00
O167   O     0.25000   0.57155   0.21228   0.00000  Uiso   1.00
O168   O     0.25000   0.42845   0.12105   0.00000  Uiso   1.00
H169   H     0.45911   0.37465   0.15511   0.00000  Uiso   1.00
H170   H     0.04023   0.62450   0.19009   0.00000  Uiso   1.00
H171   H     0.45911   0.62536   0.17818   0.00000  Uiso   1.00
H172   H     0.04023   0.37549   0.14321   0.00000  Uiso   1.00
C173   C     0.25003   0.40594   0.16652   0.00000  Uiso   1.00
C174   C     0.25003   0.59406   0.16681   0.00000  Uiso   1.00
O175   O     0.18393   0.50000   0.21230   0.00000  Uiso   1.00
O176   O     0.31608   0.50000   0.12104   0.00000  Uiso   1.00
O177   O     0.31608   0.50000   0.21230   0.00000  Uiso   1.00
O178   O     0.18393   0.50000   0.12104   0.00000  Uiso   1.00
C179   C     0.16317   0.49999   0.16667   0.00000  Uiso   1.00
C180   C     0.33680   0.50000   0.16667   0.00000  Uiso   1.00
Zn181  Zn    0.25000   0.50000   0.22759   0.00000  Uiso   1.00
Zn182  Zn    0.25000   0.50000   0.10574   0.00000  Uiso   1.00
N183   N     0.25000   0.50000   0.02455   0.00000  Uiso   1.00
N184   N     0.25000   0.50000   0.30879   0.00000  Uiso   1.00
C185   C     0.40749   0.54500   0.15906   0.00000  Uiso   1.00
C186   C     0.09252   0.45741   0.14784   0.00000  Uiso   1.00
C187   C     0.40749   0.45500   0.17424   0.00000  Uiso   1.00
C188   C     0.09252   0.54257   0.18547   0.00000  Uiso   1.00
C189   C     0.38450   0.50001   0.16666   0.00000  Uiso   1.00
C190   C     0.11542   0.49999   0.16666   0.00000  Uiso   1.00
C191   C     0.45347   0.45445   0.16528   0.00000  Uiso   1.00
C192   C     0.04640   0.54463   0.17787   0.00000  Uiso   1.00
C193   C     0.45347   0.54555   0.16801   0.00000  Uiso   1.00
C194   C     0.04640   0.45536   0.15542   0.00000  Uiso   1.00
C195   C     0.47673   0.50000   0.16664   0.00000  Uiso   1.00
C196   C     0.02322   0.50000   0.16664   0.00000  Uiso   1.00
C197   C     0.47675   0.40970   0.15759   0.00000  Uiso   1.00
C198   C     0.02292   0.58970   0.18252   0.00000  Uiso   1.00
C199   C     0.47675   0.59030   0.17570   0.00000  Uiso   1.00
C200   C     0.02292   0.41029   0.15077   0.00000  Uiso   1.00
C201   C     0.25006   0.35504   0.16646   0.00000  Uiso   1.00
C202   C     0.25006   0.64496   0.16688   0.00000  Uiso   1.00
O203   O     0.38546   0.58821   0.14382   0.00000  Uiso   1.00
C204   C     0.37943   0.58810   0.08557   0.00000  Uiso   1.00
H205   H     0.35335   0.61618   0.07587   0.00000  Uiso   1.00
H206   H     0.36674   0.55188   0.06953   0.00000  Uiso   1.00
C207   C     0.42243   0.60173   0.05420   0.00000  Uiso   1.00
H208   H     0.43348   0.63960   0.06675   0.00000  Uiso   1.00
H209   H     0.44966   0.57515   0.06391   0.00000  Uiso   1.00
C210   C     0.41507   0.59941   0.32517   0.00000  Uiso   1.00
H211   H     0.40644   0.56085   0.31206   0.00000  Uiso   1.00
H212   H     0.44632   0.61045   0.30367   0.00000  Uiso   1.00
H213   H     0.38758   0.62476   0.31278   0.00000  Uiso   1.00
O214   O     0.11527   0.41692   0.12560   0.00000  Uiso   1.00
C215   C     0.12161   0.42407   0.06804   0.00000  Uiso   1.00
H216   H     0.15171   0.40241   0.05559   0.00000  Uiso   1.00
H217   H     0.12849   0.46354   0.05706   0.00000  Uiso   1.00
C218   C     0.08145   0.40536   0.03420   0.00000  Uiso   1.00
H219   H     0.07380   0.36627   0.04533   0.00000  Uiso   1.00
H220   H     0.05162   0.42868   0.04335   0.00000  Uiso   1.00
C221   C     0.09076   0.40821   0.30562   0.00000  Uiso   1.00
H222   H     0.09821   0.44717   0.29359   0.00000  Uiso   1.00
H223   H     0.06083   0.39541   0.28228   0.00000  Uiso   1.00
H224   H     0.11960   0.38404   0.29435   0.00000  Uiso   1.00
O225   O     0.38547   0.41180   0.18951   0.00000  Uiso   1.00
C226   C     0.37945   0.41193   0.24776   0.00000  Uiso   1.00
H227   H     0.35336   0.38387   0.25748   0.00000  Uiso   1.00
H228   H     0.36679   0.44816   0.26380   0.00000  Uiso   1.00
C229   C     0.42245   0.39826   0.27910   0.00000  Uiso   1.00
H230   H     0.43348   0.36038   0.26656   0.00000  Uiso   1.00
H231   H     0.44969   0.42482   0.26938   0.00000  Uiso   1.00
C232   C     0.41512   0.40059   0.00814   0.00000  Uiso   1.00
H233   H     0.40651   0.43916   0.02125   0.00000  Uiso   1.00
H234   H     0.44636   0.38952   0.02962   0.00000  Uiso   1.00
H235   H     0.38761   0.37527   0.02055   0.00000  Uiso   1.00
O236   O     0.11526   0.58303   0.20777   0.00000  Uiso   1.00
C237   C     0.12155   0.57583   0.26533   0.00000  Uiso   1.00
H238   H     0.15172   0.59735   0.27780   0.00000  Uiso   1.00
H239   H     0.12830   0.53633   0.27629   0.00000  Uiso   1.00
C240   C     0.08144   0.59470   0.29915   0.00000  Uiso   1.00
H241   H     0.07398   0.63384   0.28809   0.00000  Uiso   1.00
H242   H     0.05152   0.57157   0.28991   0.00000  Uiso   1.00
C243   C     0.09067   0.59170   0.02773   0.00000  Uiso   1.00
H244   H     0.09780   0.55266   0.03972   0.00000  Uiso   1.00
H245   H     0.06083   0.60476   0.05106   0.00000  Uiso   1.00
H246   H     0.11968   0.61556   0.03909   0.00000  Uiso   1.00
O247   O     0.75000   0.42845   0.21228   0.00000  Uiso   1.00
O248   O     0.75000   0.57155   0.12105   0.00000  Uiso   1.00
O249   O     0.75000   0.57155   0.21228   0.00000  Uiso   1.00
O250   O     0.75000   0.42845   0.12105   0.00000  Uiso   1.00
H251   H     0.95911   0.37465   0.15511   0.00000  Uiso   1.00
H252   H     0.54023   0.62450   0.19009   0.00000  Uiso   1.00
H253   H     0.95911   0.62536   0.17818   0.00000  Uiso   1.00
H254   H     0.54023   0.37549   0.14321   0.00000  Uiso   1.00
C255   C     0.75003   0.40594   0.16652   0.00000  Uiso   1.00
C256   C     0.75003   0.59406   0.16681   0.00000  Uiso   1.00
O257   O     0.68393   0.50000   0.21230   0.00000  Uiso   1.00
O258   O     0.81608   0.50000   0.12104   0.00000  Uiso   1.00
O259   O     0.81608   0.50000   0.21230   0.00000  Uiso   1.00
O260   O     0.68393   0.50000   0.12104   0.00000  Uiso   1.00
C261   C     0.66317   0.49999   0.16667   0.00000  Uiso   1.00
C262   C     0.83680   0.50000   0.16667   0.00000  Uiso   1.00
Zn263  Zn    0.75000   0.50000   0.22759   0.00000  Uiso   1.00
Zn264  Zn    0.75000   0.50000   0.10574   0.00000  Uiso   1.00
N265   N     0.75000   0.50000   0.02455   0.00000  Uiso   1.00
N266   N     0.75000   0.50000   0.30879   0.00000  Uiso   1.00
C267   C     0.90749   0.54500   0.15906   0.00000  Uiso   1.00
C268   C     0.59252   0.45741   0.14784   0.00000  Uiso   1.00
C269   C     0.90749   0.45500   0.17424   0.00000  Uiso   1.00
C270   C     0.59252   0.54257   0.18547   0.00000  Uiso   1.00
C271   C     0.88450   0.50001   0.16666   0.00000  Uiso   1.00
C272   C     0.61542   0.49999   0.16666   0.00000  Uiso   1.00
C273   C     0.95347   0.45445   0.16528   0.00000  Uiso   1.00
C274   C     0.54640   0.54463   0.17787   0.00000  Uiso   1.00
C275   C     0.95347   0.54555   0.16801   0.00000  Uiso   1.00
C276   C     0.54640   0.45536   0.15542   0.00000  Uiso   1.00
C277   C     0.97673   0.50000   0.16664   0.00000  Uiso   1.00
C278   C     0.52322   0.50000   0.16664   0.00000  Uiso   1.00
C279   C     0.97675   0.40970   0.15759   0.00000  Uiso   1.00
C280   C     0.52292   0.58970   0.18252   0.00000  Uiso   1.00
C281   C     0.97675   0.59030   0.17570   0.00000  Uiso   1.00
C282   C     0.52292   0.41029   0.15077   0.00000  Uiso   1.00
C283   C     0.75006   0.35504   0.16646   0.00000  Uiso   1.00
C284   C     0.75006   0.64496   0.16688   0.00000  Uiso   1.00
O285   O     0.88546   0.58821   0.14382   0.00000  Uiso   1.00
C286   C     0.87943   0.58810   0.08557   0.00000  Uiso   1.00
H287   H     0.85335   0.61618   0.07587   0.00000  Uiso   1.00
H288   H     0.86674   0.55188   0.06953   0.00000  Uiso   1.00
C289   C     0.92243   0.60173   0.05420   0.00000  Uiso   1.00
H290   H     0.93348   0.63960   0.06675   0.00000  Uiso   1.00
H291   H     0.94966   0.57515   0.06391   0.00000  Uiso   1.00
C292   C     0.91507   0.59941   0.32517   0.00000  Uiso   1.00
H293   H     0.90644   0.56085   0.31206   0.00000  Uiso   1.00
H294   H     0.94632   0.61045   0.30367   0.00000  Uiso   1.00
H295   H     0.88758   0.62476   0.31278   0.00000  Uiso   1.00
O296   O     0.61527   0.41692   0.12560   0.00000  Uiso   1.00
C297   C     0.62161   0.42407   0.06804   0.00000  Uiso   1.00
H298   H     0.65171   0.40241   0.05559   0.00000  Uiso   1.00
H299   H     0.62849   0.46354   0.05706   0.00000  Uiso   1.00
C300   C     0.58145   0.40536   0.03420   0.00000  Uiso   1.00
H301   H     0.57380   0.36627   0.04533   0.00000  Uiso   1.00
H302   H     0.55162   0.42868   0.04335   0.00000  Uiso   1.00
C303   C     0.59076   0.40821   0.30562   0.00000  Uiso   1.00
H304   H     0.59821   0.44717   0.29359   0.00000  Uiso   1.00
H305   H     0.56083   0.39541   0.28228   0.00000  Uiso   1.00
H306   H     0.61960   0.38404   0.29435   0.00000  Uiso   1.00
O307   O     0.88547   0.41180   0.18951   0.00000  Uiso   1.00
C308   C     0.87945   0.41193   0.24776   0.00000  Uiso   1.00
H309   H     0.85336   0.38387   0.25748   0.00000  Uiso   1.00
H310   H     0.86679   0.44816   0.26380   0.00000  Uiso   1.00
C311   C     0.92245   0.39826   0.27910   0.00000  Uiso   1.00
H312   H     0.93348   0.36038   0.26656   0.00000  Uiso   1.00
H313   H     0.94969   0.42482   0.26938   0.00000  Uiso   1.00
C314   C     0.91512   0.40059   0.00814   0.00000  Uiso   1.00
H315   H     0.90651   0.43916   0.02125   0.00000  Uiso   1.00
H316   H     0.94636   0.38952   0.02962   0.00000  Uiso   1.00
H317   H     0.88761   0.37527   0.02055   0.00000  Uiso   1.00
O318   O     0.61526   0.58303   0.20777   0.00000  Uiso   1.00
C319   C     0.62155   0.57583   0.26533   0.00000  Uiso   1.00
H320   H     0.65172   0.59735   0.27780   0.00000  Uiso   1.00
H321   H     0.62830   0.53633   0.27629   0.00000  Uiso   1.00
C322   C     0.58144   0.59470   0.29915   0.00000  Uiso   1.00
H323   H     0.57398   0.63384   0.28809   0.00000  Uiso   1.00
H324   H     0.55152   0.57157   0.28991   0.00000  Uiso   1.00
C325   C     0.59067   0.59170   0.02773   0.00000  Uiso   1.00
H326   H     0.59780   0.55266   0.03972   0.00000  Uiso   1.00
H327   H     0.56083   0.60476   0.05106   0.00000  Uiso   1.00
H328   H     0.61968   0.61556   0.03909   0.00000  Uiso   1.00
O329   O     0.25000   0.76178   0.21228   0.00000  Uiso   1.00
O330   O     0.25000   0.90488   0.12105   0.00000  Uiso   1.00
O331   O     0.25000   0.90488   0.21228   0.00000  Uiso   1.00
O332   O     0.25000   0.76178   0.12105   0.00000  Uiso   1.00
H333   H     0.45911   0.70798   0.15511   0.00000  Uiso   1.00
H334   H     0.04023   0.95783   0.19009   0.00000  Uiso   1.00
H335   H     0.45911   0.95869   0.17818   0.00000  Uiso   1.00
H336   H     0.04023   0.70882   0.14321   0.00000  Uiso   1.00
C337   C     0.25003   0.73928   0.16652   0.00000  Uiso   1.00
C338   C     0.25003   0.92739   0.16681   0.00000  Uiso   1.00
O339   O     0.18393   0.83333   0.21230   0.00000  Uiso   1.00
O340   O     0.31608   0.83333   0.12104   0.00000  Uiso   1.00
O341   O     0.31608   0.83333   0.21230   0.00000  Uiso   1.00
O342   O     0.18393   0.83333   0.12104   0.00000  Uiso   1.00
C343   C     0.16317   0.83332   0.16667   0.00000  Uiso   1.00
C344   C     0.33680   0.83334   0.16667   0.00000  Uiso   1.00
Zn345  Zn    0.25000   0.83333   0.22759   0.00000  Uiso   1.00
Zn346  Zn    0.25000   0.83333   0.10574   0.00000  Uiso   1.00
N347   N     0.25000   0.83333   0.02455   0.00000  Uiso   1.00
N348   N     0.25000   0.83333   0.30879   0.00000  Uiso   1.00
C349   C     0.40749   0.87834   0.15906   0.00000  Uiso   1.00
C350   C     0.09252   0.79074   0.14784   0.00000  Uiso   1.00
C351   C     0.40749   0.78834   0.17424   0.00000  Uiso   1.00
C352   C     0.09252   0.87591   0.18547   0.00000  Uiso   1.00
C353   C     0.38450   0.83334   0.16666   0.00000  Uiso   1.00
C354   C     0.11542   0.83332   0.16666   0.00000  Uiso   1.00
C355   C     0.45347   0.78779   0.16528   0.00000  Uiso   1.00
C356   C     0.04640   0.87796   0.17787   0.00000  Uiso   1.00
C357   C     0.45347   0.87888   0.16801   0.00000  Uiso   1.00
C358   C     0.04640   0.78869   0.15542   0.00000  Uiso   1.00
C359   C     0.47673   0.83333   0.16664   0.00000  Uiso   1.00
C360   C     0.02322   0.83333   0.16664   0.00000  Uiso   1.00
C361   C     0.47675   0.74303   0.15759   0.00000  Uiso   1.00
C362   C     0.02292   0.92303   0.18252   0.00000  Uiso   1.00
C363   C     0.47675   0.92364   0.17570   0.00000  Uiso   1.00
C364   C     0.02292   0.74363   0.15077   0.00000  Uiso   1.00
C365   C     0.25006   0.68837   0.16646   0.00000  Uiso   1.00
C366   C     0.25006   0.97830   0.16688   0.00000  Uiso   1.00
O367   O     0.38546   0.92155   0.14382   0.00000  Uiso   1.00
C368   C     0.37943   0.92143   0.08557   0.00000  Uiso   1.00
H369   H     0.35335   0.94952   0.07587   0.00000  Uiso   1.00
H370   H     0.36674   0.88522   0.06953   0.00000  Uiso   1.00
C371   C     0.42243   0.93506   0.05420   0.00000  Uiso   1.00
H372   H     0.43348   0.97293   0.06675   0.00000  Uiso   1.00
H373   H     0.44966   0.90848   0.06391   0.00000  Uiso   1.00
C374   C     0.41507   0.93274   0.32517   0.00000  Uiso   1.00
H375   H     0.40644   0.89418   0.31206   0.00000  Uiso   1.00
H376   H     0.44632   0.94379   0.30367   0.00000  Uiso   1.00
H377   H     0.38758   0.95810   0.31278   0.00000  Uiso   1.00
O378   O     0.11527   0.75026   0.12560   0.00000  Uiso   1.00
C379   C     0.12161   0.75740   0.06804   0.00000  Uiso   1.00
H380   H     0.15171   0.73574   0.05559   0.00000  Uiso   1.00
H381   H     0.12849   0.79687   0.05706   0.00000  Uiso   1.00
C382   C     0.08145   0.73869   0.03420   0.00000  Uiso   1.00
H383   H     0.07380   0.69961   0.04533   0.00000  Uiso   1.00
H384   H     0.05162   0.76201   0.04335   0.00000  Uiso   1.00
C385   C     0.09076   0.74154   0.30562   0.00000  Uiso   1.00
H386   H     0.09821   0.78050   0.29359   0.00000  Uiso   1.00
H387   H     0.06083   0.72874   0.28228   0.00000  Uiso   1.00
H388   H     0.11960   0.71737   0.29435   0.00000  Uiso   1.00
O389   O     0.38547   0.74513   0.18951   0.00000  Uiso   1.00
C390   C     0.37945   0.74526   0.24776   0.00000  Uiso   1.00
H391   H     0.35336   0.71720   0.25748   0.00000  Uiso   1.00
H392   H     0.36679   0.78149   0.26380   0.00000  Uiso   1.00
C393   C     0.42245   0.73159   0.27910   0.00000  Uiso   1.00
H394   H     0.43348   0.69372   0.26656   0.00000  Uiso   1.00
H395   H     0.44969   0.75815   0.26938   0.00000  Uiso   1.00
C396   C     0.41512   0.73393   0.00814   0.00000  Uiso   1.00
H397   H     0.40651   0.77249   0.02125   0.00000  Uiso   1.00
H398   H     0.44636   0.72285   0.02962   0.00000  Uiso   1.00
H399   H     0.38761   0.70860   0.02055   0.00000  Uiso   1.00
O400   O     0.11526   0.91636   0.20777   0.00000  Uiso   1.00
C401   C     0.12155   0.90916   0.26533   0.00000  Uiso   1.00
H402   H     0.15172   0.93069   0.27780   0.00000  Uiso   1.00
H403   H     0.12830   0.86966   0.27629   0.00000  Uiso   1.00
C404   C     0.08144   0.92803   0.29915   0.00000  Uiso   1.00
H405   H     0.07398   0.96717   0.28809   0.00000  Uiso   1.00
H406   H     0.05152   0.90491   0.28991   0.00000  Uiso   1.00
C407   C     0.09067   0.92503   0.02773   0.00000  Uiso   1.00
H408   H     0.09780   0.88599   0.03972   0.00000  Uiso   1.00
H409   H     0.06083   0.93809   0.05106   0.00000  Uiso   1.00
H410   H     0.11968   0.94889   0.03909   0.00000  Uiso   1.00
O411   O     0.75000   0.76178   0.21228   0.00000  Uiso   1.00
O412   O     0.75000   0.90488   0.12105   0.00000  Uiso   1.00
O413   O     0.75000   0.90488   0.21228   0.00000  Uiso   1.00
O414   O     0.75000   0.76178   0.12105   0.00000  Uiso   1.00
H415   H     0.95911   0.70798   0.15511   0.00000  Uiso   1.00
H416   H     0.54023   0.95783   0.19009   0.00000  Uiso   1.00
H417   H     0.95911   0.95869   0.17818   0.00000  Uiso   1.00
H418   H     0.54023   0.70882   0.14321   0.00000  Uiso   1.00
C419   C     0.75003   0.73928   0.16652   0.00000  Uiso   1.00
C420   C     0.75003   0.92739   0.16681   0.00000  Uiso   1.00
O421   O     0.68393   0.83333   0.21230   0.00000  Uiso   1.00
O422   O     0.81608   0.83333   0.12104   0.00000  Uiso   1.00
O423   O     0.81608   0.83333   0.21230   0.00000  Uiso   1.00
O424   O     0.68393   0.83333   0.12104   0.00000  Uiso   1.00
C425   C     0.66317   0.83332   0.16667   0.00000  Uiso   1.00
C426   C     0.83680   0.83334   0.16667   0.00000  Uiso   1.00
Zn427  Zn    0.75000   0.83333   0.22759   0.00000  Uiso   1.00
Zn428  Zn    0.75000   0.83333   0.10574   0.00000  Uiso   1.00
N429   N     0.75000   0.83333   0.02455   0.00000  Uiso   1.00
N430   N     0.75000   0.83333   0.30879   0.00000  Uiso   1.00
C431   C     0.90749   0.87834   0.15906   0.00000  Uiso   1.00
C432   C     0.59252   0.79074   0.14784   0.00000  Uiso   1.00
C433   C     0.90749   0.78834   0.17424   0.00000  Uiso   1.00
C434   C     0.59252   0.87591   0.18547   0.00000  Uiso   1.00
C435   C     0.88450   0.83334   0.16666   0.00000  Uiso   1.00
C436   C     0.61542   0.83332   0.16666   0.00000  Uiso   1.00
C437   C     0.95347   0.78779   0.16528   0.00000  Uiso   1.00
C438   C     0.54640   0.87796   0.17787   0.00000  Uiso   1.00
C439   C     0.95347   0.87888   0.16801   0.00000  Uiso   1.00
C440   C     0.54640   0.78869   0.15542   0.00000  Uiso   1.00
C441   C     0.97673   0.83333   0.16664   0.00000  Uiso   1.00
C442   C     0.52322   0.83333   0.16664   0.00000  Uiso   1.00
C443   C     0.97675   0.74303   0.15759   0.00000  Uiso   1.00
C444   C     0.52292   0.92303   0.18252   0.00000  Uiso   1.00
C445   C     0.97675   0.92364   0.17570   0.00000  Uiso   1.00
C446   C     0.52292   0.74363   0.15077   0.00000  Uiso   1.00
C447   C     0.75006   0.68837   0.16646   0.00000  Uiso   1.00
C448   C     0.75006   0.97830   0.16688   0.00000  Uiso   1.00
O449   O     0.88546   0.92155   0.14382   0.00000  Uiso   1.00
C450   C     0.87943   0.92143   0.08557   0.00000  Uiso   1.00
H451   H     0.85335   0.94952   0.07587   0.00000  Uiso   1.00
H452   H     0.86674   0.88522   0.06953   0.00000  Uiso   1.00
C453   C     0.92243   0.93506   0.05420   0.00000  Uiso   1.00
H454   H     0.93348   0.97293   0.06675   0.00000  Uiso   1.00
H455   H     0.94966   0.90848   0.06391   0.00000  Uiso   1.00
C456   C     0.91507   0.93274   0.32517   0.00000  Uiso   1.00
H457   H     0.90644   0.89418   0.31206   0.00000  Uiso   1.00
H458   H     0.94632   0.94379   0.30367   0.00000  Uiso   1.00
H459   H     0.88758   0.95810   0.31278   0.00000  Uiso   1.00
O460   O     0.61527   0.75026   0.12560   0.00000  Uiso   1.00
C461   C     0.62161   0.75740   0.06804   0.00000  Uiso   1.00
H462   H     0.65171   0.73574   0.05559   0.00000  Uiso   1.00
H463   H     0.62849   0.79687   0.05706   0.00000  Uiso   1.00
C464   C     0.58145   0.73869   0.03420   0.00000  Uiso   1.00
H465   H     0.57380   0.69961   0.04533   0.00000  Uiso   1.00
H466   H     0.55162   0.76201   0.04335   0.00000  Uiso   1.00
C467   C     0.59076   0.74154   0.30562   0.00000  Uiso   1.00
H468   H     0.59821   0.78050   0.29359   0.00000  Uiso   1.00
H469   H     0.56083   0.72874   0.28228   0.00000  Uiso   1.00
H470   H     0.61960   0.71737   0.29435   0.00000  Uiso   1.00
O471   O     0.88547   0.74513   0.18951   0.00000  Uiso   1.00
C472   C     0.87945   0.74526   0.24776   0.00000  Uiso   1.00
H473   H     0.85336   0.71720   0.25748   0.00000  Uiso   1.00
H474   H     0.86679   0.78149   0.26380   0.00000  Uiso   1.00
C475   C     0.92245   0.73159   0.27910   0.00000  Uiso   1.00
H476   H     0.93348   0.69372   0.26656   0.00000  Uiso   1.00
H477   H     0.94969   0.75815   0.26938   0.00000  Uiso   1.00
C478   C     0.91512   0.73393   0.00814   0.00000  Uiso   1.00
H479   H     0.90651   0.77249   0.02125   0.00000  Uiso   1.00
H480   H     0.94636   0.72285   0.02962   0.00000  Uiso   1.00
H481   H     0.88761   0.70860   0.02055   0.00000  Uiso   1.00
O482   O     0.61526   0.91636   0.20777   0.00000  Uiso   1.00
C483   C     0.62155   0.90916   0.26533   0.00000  Uiso   1.00
H484   H     0.65172   0.93069   0.27780   0.00000  Uiso   1.00
H485   H     0.62830   0.86966   0.27629   0.00000  Uiso   1.00
C486   C     0.58144   0.92803   0.29915   0.00000  Uiso   1.00
H487   H     0.57398   0.96717   0.28809   0.00000  Uiso   1.00
H488   H     0.55152   0.90491   0.28991   0.00000  Uiso   1.00
C489   C     0.59067   0.92503   0.02773   0.00000  Uiso   1.00
H490   H     0.59780   0.88599   0.03972   0.00000  Uiso   1.00
H491   H     0.56083   0.93809   0.05106   0.00000  Uiso   1.00
H492   H     0.61968   0.94889   0.03909   0.00000  Uiso   1.00
O493   O     0.25000   0.09512   0.54562   0.00000  Uiso   1.00
O494   O     0.25000   0.23822   0.45438   0.00000  Uiso   1.00
O495   O     0.25000   0.23822   0.54562   0.00000  Uiso   1.00
O496   O     0.25000   0.09512   0.45438   0.00000  Uiso   1.00
H497   H     0.45911   0.04131   0.48845   0.00000  Uiso   1.00
H498   H     0.04023   0.29117   0.52342   0.00000  Uiso   1.00
H499   H     0.45911   0.29202   0.51152   0.00000  Uiso   1.00
H500   H     0.04023   0.04215   0.47655   0.00000  Uiso   1.00
C501   C     0.25003   0.07261   0.49985   0.00000  Uiso   1.00
C502   C     0.25003   0.26073   0.50015   0.00000  Uiso   1.00
O503   O     0.18393   0.16667   0.54563   0.00000  Uiso   1.00
O504   O     0.31608   0.16667   0.45437   0.00000  Uiso   1.00
O505   O     0.31608   0.16667   0.54563   0.00000  Uiso   1.00
O506   O     0.18393   0.16667   0.45437   0.00000  Uiso   1.00
C507   C     0.16317   0.16666   0.50000   0.00000  Uiso   1.00
C508   C     0.33680   0.16667   0.50000   0.00000  Uiso   1.00
Zn509  Zn    0.25000   0.16667   0.56093   0.00000  Uiso   1.00
Zn510  Zn    0.25000   0.16667   0.43907   0.00000  Uiso   1.00
N511   N     0.25000   0.16667   0.35788   0.00000  Uiso   1.00
N512   N     0.25000   0.16667   0.64212   0.00000  Uiso   1.00
C513   C     0.40749   0.21167   0.49240   0.00000  Uiso   1.00
C514   C     0.09252   0.12407   0.48117   0.00000  Uiso   1.00
C515   C     0.40749   0.12167   0.50758   0.00000  Uiso   1.00
C516   C     0.09252   0.20924   0.51880   0.00000  Uiso   1.00
C517   C     0.38450   0.16667   0.49999   0.00000  Uiso   1.00
C518   C     0.11542   0.16665   0.49999   0.00000  Uiso   1.00
C519   C     0.45347   0.12112   0.49861   0.00000  Uiso   1.00
C520   C     0.04640   0.21130   0.51121   0.00000  Uiso   1.00
C521   C     0.45347   0.21222   0.50135   0.00000  Uiso   1.00
C522   C     0.04640   0.12203   0.48875   0.00000  Uiso   1.00
C523   C     0.47673   0.16667   0.49997   0.00000  Uiso   1.00
C524   C     0.02322   0.16666   0.49997   0.00000  Uiso   1.00
C525   C     0.47675   0.07636   0.49092   0.00000  Uiso   1.00
C526   C     0.02292   0.25637   0.51586   0.00000  Uiso   1.00
C527   C     0.47675   0.25697   0.50903   0.00000  Uiso   1.00
C528   C     0.02292   0.07696   0.48410   0.00000  Uiso   1.00
C529   C     0.25006   0.02170   0.49979   0.00000  Uiso   1.00
C530   C     0.25006   0.31163   0.50021   0.00000  Uiso   1.00
O531   O     0.38546   0.25488   0.47715   0.00000  Uiso   1.00
C532   C     0.37943   0.25476   0.41890   0.00000  Uiso   1.00
H533   H     0.35335   0.28285   0.40920   0.00000  Uiso   1.00
H534   H     0.36674   0.21855   0.40286   0.00000  Uiso   1.00
C535   C     0.42243   0.26840   0.38754   0.00000  Uiso   1.00
H536   H     0.43348   0.30626   0.40008   0.00000  Uiso   1.00
H537   H     0.44966   0.24182   0.39724   0.00000  Uiso   1.00
C538   C     0.41507   0.26607   0.65850   0.00000  Uiso   1.00
H539   H     0.40644   0.22752   0.64539   0.00000  Uiso   1.00
H540   H     0.44632   0.27712   0.63700   0.00000  Uiso   1.00
H541   H     0.38758   0.29143   0.64611   0.00000  Uiso   1.00
O542   O     0.11527   0.08359   0.45893   0.00000  Uiso   1.00
C543   C     0.12161   0.09073   0.40138   0.00000  Uiso   1.00
H544   H     0.15171   0.06907   0.38892   0.00000  Uiso   1.00
H545   H     0.12849   0.13020   0.39039   0.00000  Uiso   1.00
C546   C     0.08145   0.07203   0.36753   0.00000  Uiso   1.00
H547   H     0.07380   0.03294   0.37866   0.00000  Uiso   1.00
H548   H     0.05162   0.09535   0.37668   0.00000  Uiso   1.00
C549   C     0.09076   0.07487   0.63896   0.00000  Uiso   1.00
H550   H     0.09821   0.11383   0.62692   0.00000  Uiso   1.00
H551   H     0.06083   0.06207   0.61561   0.00000  Uiso   1.00
H552   H     0.11960   0.05070   0.62768   0.00000  Uiso   1.00
O553   O     0.38547   0.07847   0.52285   0.00000  Uiso   1.00
C554   C     0.37945   0.07860   0.58110   0.00000  Uiso   1.00
H555   H     0.35336   0.05053   0.59081   0.00000  Uiso   1.00
H556   H     0.36679   0.11482   0.59714   0.00000  Uiso   1.00
C557   C     0.42245   0.06493   0.61244   0.00000  Uiso   1.00
H558   H     0.43348   0.02705   0.59989   0.00000  Uiso   1.00
H559   H     0.44969   0.09148   0.60271   0.00000  Uiso   1.00
C560   C     0.41512   0.06726   0.34147   0.00000  Uiso   1.00
H561   H     0.40651   0.10583   0.35459   0.00000  Uiso   1.00
H562   H     0.44636   0.05619   0.36296   0.00000  Uiso   1.00
H563   H     0.38761   0.04193   0.35388   0.00000  Uiso   1.00
O564   O     0.11526   0.24970   0.54111   0.00000  Uiso   1.00
C565   C     0.12155   0.24250   0.59866   0.00000  Uiso   1.00
H566   H     0.15172   0.26402   0.61114   0.00000  Uiso   1.00
H567   H     0.12830   0.20300   0.60963   0.00000  Uiso   1.00
C568   C     0.08144   0.26137   0.63249   0.00000  Uiso   1.00
H569   H     0.07398   0.30051   0.62143   0.00000  Uiso   1.00
H570   H     0.05152   0.23824   0.62324   0.00000  Uiso   1.00
C571   C     0.09067   0.25836   0.36107   0.00000  Uiso   1.00
H572   H     0.09780   0.21932   0.37305   0.00000  Uiso   1.00
H573   H     0.06083   0.27143   0.38440   0.00000  Uiso   1.00
H574   H     0.11968   0.28223   0.37242   0.00000  Uiso   1.00
O575   O     0.75000   0.09512   0.54562   0.00000  Uiso   1.00
O576   O     0.75000   0.23822   0.45438   0.00000  Uiso   1.00
O577   O     0.75000   0.23822   0.54562   0.00000  Uiso   1.00
O578   O     0.75000   0.09512   0.45438   0.00000  Uiso   1.00
H579   H     0.95911   0.04131   0.48845   0.00000  Uiso   1.00
H580   H     0.54023   0.29117   0.52342   0.00000  Uiso   1.00
H581   H     0.95911   0.29202   0.51152   0.00000  Uiso   1.00
H582   H     0.54023   0.04215   0.47655   0.00000  Uiso   1.00
C583   C     0.75003   0.07261   0.49985   0.00000  Uiso   1.00
C584   C     0.75003   0.26073   0.50015   0.00000  Uiso   1.00
O585   O     0.68393   0.16667   0.54563   0.00000  Uiso   1.00
O586   O     0.81608   0.16667   0.45437   0.00000  Uiso   1.00
O587   O     0.81608   0.16667   0.54563   0.00000  Uiso   1.00
O588   O     0.68393   0.16667   0.45437   0.00000  Uiso   1.00
C589   C     0.66317   0.16666   0.50000   0.00000  Uiso   1.00
C590   C     0.83680   0.16667   0.50000   0.00000  Uiso   1.00
Zn591  Zn    0.75000   0.16667   0.56093   0.00000  Uiso   1.00
Zn592  Zn    0.75000   0.16667   0.43907   0.00000  Uiso   1.00
N593   N     0.75000   0.16667   0.35788   0.00000  Uiso   1.00
N594   N     0.75000   0.16667   0.64212   0.00000  Uiso   1.00
C595   C     0.90749   0.21167   0.49240   0.00000  Uiso   1.00
C596   C     0.59252   0.12407   0.48117   0.00000  Uiso   1.00
C597   C     0.90749   0.12167   0.50758   0.00000  Uiso   1.00
C598   C     0.59252   0.20924   0.51880   0.00000  Uiso   1.00
C599   C     0.88450   0.16667   0.49999   0.00000  Uiso   1.00
C600   C     0.61542   0.16665   0.49999   0.00000  Uiso   1.00
C601   C     0.95347   0.12112   0.49861   0.00000  Uiso   1.00
C602   C     0.54640   0.21130   0.51121   0.00000  Uiso   1.00
C603   C     0.95347   0.21222   0.50135   0.00000  Uiso   1.00
C604   C     0.54640   0.12203   0.48875   0.00000  Uiso   1.00
C605   C     0.97673   0.16667   0.49997   0.00000  Uiso   1.00
C606   C     0.52322   0.16666   0.49997   0.00000  Uiso   1.00
C607   C     0.97675   0.07636   0.49092   0.00000  Uiso   1.00
C608   C     0.52292   0.25637   0.51586   0.00000  Uiso   1.00
C609   C     0.97675   0.25697   0.50903   0.00000  Uiso   1.00
C610   C     0.52292   0.07696   0.48410   0.00000  Uiso   1.00
C611   C     0.75006   0.02170   0.49979   0.00000  Uiso   1.00
C612   C     0.75006   0.31163   0.50021   0.00000  Uiso   1.00
O613   O     0.88546   0.25488   0.47715   0.00000  Uiso   1.00
C614   C     0.87943   0.25476   0.41890   0.00000  Uiso   1.00
H615   H     0.85335   0.28285   0.40920   0.00000  Uiso   1.00
H616   H     0.86674   0.21855   0.40286   0.00000  Uiso   1.00
C617   C     0.92243   0.26840   0.38754   0.00000  Uiso   1.00
H618   H     0.93348   0.30626   0.40008   0.00000  Uiso   1.00
H619   H     0.94966   0.24182   0.39724   0.00000  Uiso   1.00
C620   C     0.91507   0.26607   0.65850   0.00000  Uiso   1.00
H621   H     0.90644   0.22752   0.64539   0.00000  Uiso   1.00
H622   H     0.94632   0.27712   0.63700   0.00000  Uiso   1.00
H623   H     0.88758   0.29143   0.64611   0.00000  Uiso   1.00
O624   O     0.61527   0.08359   0.45893   0.00000  Uiso   1.00
C625   C     0.62161   0.09073   0.40138   0.00000  Uiso   1.00
H626   H     0.65171   0.06907   0.38892   0.00000  Uiso   1.00
H627   H     0.62849   0.13020   0.39039   0.00000  Uiso   1.00
C628   C     0.58145   0.07203   0.36753   0.00000  Uiso   1.00
H629   H     0.57380   0.03294   0.37866   0.00000  Uiso   1.00
H630   H     0.55162   0.09535   0.37668   0.00000  Uiso   1.00
C631   C     0.59076   0.07487   0.63896   0.00000  Uiso   1.00
H632   H     0.59821   0.11383   0.62692   0.00000  Uiso   1.00
H633   H     0.56083   0.06207   0.61561   0.00000  Uiso   1.00
H634   H     0.61960   0.05070   0.62768   0.00000  Uiso   1.00
O635   O     0.88547   0.07847   0.52285   0.00000  Uiso   1.00
C636   C     0.87945   0.07860   0.58110   0.00000  Uiso   1.00
H637   H     0.85336   0.05053   0.59081   0.00000  Uiso   1.00
H638   H     0.86679   0.11482   0.59714   0.00000  Uiso   1.00
C639   C     0.92245   0.06493   0.61244   0.00000  Uiso   1.00
H640   H     0.93348   0.02705   0.59989   0.00000  Uiso   1.00
H641   H     0.94969   0.09148   0.60271   0.00000  Uiso   1.00
C642   C     0.91512   0.06726   0.34147   0.00000  Uiso   1.00
H643   H     0.90651   0.10583   0.35459   0.00000  Uiso   1.00
H644   H     0.94636   0.05619   0.36296   0.00000  Uiso   1.00
H645   H     0.88761   0.04193   0.35388   0.00000  Uiso   1.00
O646   O     0.61526   0.24970   0.54111   0.00000  Uiso   1.00
C647   C     0.62155   0.24250   0.59866   0.00000  Uiso   1.00
H648   H     0.65172   0.26402   0.61114   0.00000  Uiso   1.00
H649   H     0.62830   0.20300   0.60963   0.00000  Uiso   1.00
C650   C     0.58144   0.26137   0.63249   0.00000  Uiso   1.00
H651   H     0.57398   0.30051   0.62143   0.00000  Uiso   1.00
H652   H     0.55152   0.23824   0.62324   0.00000  Uiso   1.00
C653   C     0.59067   0.25836   0.36107   0.00000  Uiso   1.00
H654   H     0.59780   0.21932   0.37305   0.00000  Uiso   1.00
H655   H     0.56083   0.27143   0.38440   0.00000  Uiso   1.00
H656   H     0.61968   0.28223   0.37242   0.00000  Uiso   1.00
O657   O     0.25000   0.42845   0.54562   0.00000  Uiso   1.00
O658   O     0.25000   0.57155   0.45438   0.00000  Uiso   1.00
O659   O     0.25000   0.57155   0.54562   0.00000  Uiso   1.00
O660   O     0.25000   0.42845   0.45438   0.00000  Uiso   1.00
H661   H     0.45911   0.37465   0.48845   0.00000  Uiso   1.00
H662   H     0.04023   0.62450   0.52342   0.00000  Uiso   1.00
H663   H     0.45911   0.62536   0.51152   0.00000  Uiso   1.00
H664   H     0.04023   0.37549   0.47655   0.00000  Uiso   1.00
C665   C     0.25003   0.40594   0.49985   0.00000  Uiso   1.00
C666   C     0.25003   0.59406   0.50015   0.00000  Uiso   1.00
O667   O     0.18393   0.50000   0.54563   0.00000  Uiso   1.00
O668   O     0.31608   0.50000   0.45437   0.00000  Uiso   1.00
O669   O     0.31608   0.50000   0.54563   0.00000  Uiso   1.00
O670   O     0.18393   0.50000   0.45437   0.00000  Uiso   1.00
C671   C     0.16317   0.49999   0.50000   0.00000  Uiso   1.00
C672   C     0.33680   0.50000   0.50000   0.00000  Uiso   1.00
Zn673  Zn    0.25000   0.50000   0.56093   0.00000  Uiso   1.00
Zn674  Zn    0.25000   0.50000   0.43907   0.00000  Uiso   1.00
N675   N     0.25000   0.50000   0.35788   0.00000  Uiso   1.00
N676   N     0.25000   0.50000   0.64212   0.00000  Uiso   1.00
C677   C     0.40749   0.54500   0.49240   0.00000  Uiso   1.00
C678   C     0.09252   0.45741   0.48117   0.00000  Uiso   1.00
C679   C     0.40749   0.45500   0.50758   0.00000  Uiso   1.00
C680   C     0.09252   0.54257   0.51880   0.00000  Uiso   1.00
C681   C     0.38450   0.50001   0.49999   0.00000  Uiso   1.00
C682   C     0.11542   0.49999   0.49999   0.00000  Uiso   1.00
C683   C     0.45347   0.45445   0.49861   0.00000  Uiso   1.00
C684   C     0.04640   0.54463   0.51121   0.00000  Uiso   1.00
C685   C     0.45347   0.54555   0.50135   0.00000  Uiso   1.00
C686   C     0.04640   0.45536   0.48875   0.00000  Uiso   1.00
C687   C     0.47673   0.50000   0.49997   0.00000  Uiso   1.00
C688   C     0.02322   0.50000   0.49997   0.00000  Uiso   1.00
C689   C     0.47675   0.40970   0.49092   0.00000  Uiso   1.00
C690   C     0.02292   0.58970   0.51586   0.00000  Uiso   1.00
C691   C     0.47675   0.59030   0.50903   0.00000  Uiso   1.00
C692   C     0.02292   0.41029   0.48410   0.00000  Uiso   1.00
C693   C     0.25006   0.35504   0.49979   0.00000  Uiso   1.00
C694   C     0.25006   0.64496   0.50021   0.00000  Uiso   1.00
O695   O     0.38546   0.58821   0.47715   0.00000  Uiso   1.00
C696   C     0.37943   0.58810   0.41890   0.00000  Uiso   1.00
H697   H     0.35335   0.61618   0.40920   0.00000  Uiso   1.00
H698   H     0.36674   0.55188   0.40286   0.00000  Uiso   1.00
C699   C     0.42243   0.60173   0.38754   0.00000  Uiso   1.00
H700   H     0.43348   0.63960   0.40008   0.00000  Uiso   1.00
H701   H     0.44966   0.57515   0.39724   0.00000  Uiso   1.00
C702   C     0.41507   0.59941   0.65850   0.00000  Uiso   1.00
H703   H     0.40644   0.56085   0.64539   0.00000  Uiso   1.00
H704   H     0.44632   0.61045   0.63700   0.00000  Uiso   1.00
H705   H     0.38758   0.62476   0.64611   0.00000  Uiso   1.00
O706   O     0.11527   0.41692   0.45893   0.00000  Uiso   1.00
C707   C     0.12161   0.42407   0.40138   0.00000  Uiso   1.00
H708   H     0.15171   0.40241   0.38892   0.00000  Uiso   1.00
H709   H     0.12849   0.46354   0.39039   0.00000  Uiso   1.00
C710   C     0.08145   0.40536   0.36753   0.00000  Uiso   1.00
H711   H     0.07380   0.36627   0.37866   0.00000  Uiso   1.00
H712   H     0.05162   0.42868   0.37668   0.00000  Uiso   1.00
C713   C     0.09076   0.40821   0.63896   0.00000  Uiso   1.00
H714   H     0.09821   0.44717   0.62692   0.00000  Uiso   1.00
H715   H     0.06083   0.39541   0.61561   0.00000  Uiso   1.00
H716   H     0.11960   0.38404   0.62768   0.00000  Uiso   1.00
O717   O     0.38547   0.41180   0.52285   0.00000  Uiso   1.00
C718   C     0.37945   0.41193   0.58110   0.00000  Uiso   1.00
H719   H     0.35336   0.38387   0.59081   0.00000  Uiso   1.00
H720   H     0.36679   0.44816   0.59714   0.00000  Uiso   1.00
C721   C     0.42245   0.39826   0.61244   0.00000  Uiso   1.00
H722   H     0.43348   0.36038   0.59989   0.00000  Uiso   1.00
H723   H     0.44969   0.42482   0.60271   0.00000  Uiso   1.00
C724   C     0.41512   0.40059   0.34147   0.00000  Uiso   1.00
H725   H     0.40651   0.43916   0.35459   0.00000  Uiso   1.00
H726   H     0.44636   0.38952   0.36296   0.00000  Uiso   1.00
H727   H     0.38761   0.37527   0.35388   0.00000  Uiso   1.00
O728   O     0.11526   0.58303   0.54111   0.00000  Uiso   1.00
C729   C     0.12155   0.57583   0.59866   0.00000  Uiso   1.00
H730   H     0.15172   0.59735   0.61114   0.00000  Uiso   1.00
H731   H     0.12830   0.53633   0.60963   0.00000  Uiso   1.00
C732   C     0.08144   0.59470   0.63249   0.00000  Uiso   1.00
H733   H     0.07398   0.63384   0.62143   0.00000  Uiso   1.00
H734   H     0.05152   0.57157   0.62324   0.00000  Uiso   1.00
C735   C     0.09067   0.59170   0.36107   0.00000  Uiso   1.00
H736   H     0.09780   0.55266   0.37305   0.00000  Uiso   1.00
H737   H     0.06083   0.60476   0.38440   0.00000  Uiso   1.00
H738   H     0.11968   0.61556   0.37242   0.00000  Uiso   1.00
O739   O     0.75000   0.42845   0.54562   0.00000  Uiso   1.00
O740   O     0.75000   0.57155   0.45438   0.00000  Uiso   1.00
O741   O     0.75000   0.57155   0.54562   0.00000  Uiso   1.00
O742   O     0.75000   0.42845   0.45438   0.00000  Uiso   1.00
H743   H     0.95911   0.37465   0.48845   0.00000  Uiso   1.00
H744   H     0.54023   0.62450   0.52342   0.00000  Uiso   1.00
H745   H     0.95911   0.62536   0.51152   0.00000  Uiso   1.00
H746   H     0.54023   0.37549   0.47655   0.00000  Uiso   1.00
C747   C     0.75003   0.40594   0.49985   0.00000  Uiso   1.00
C748   C     0.75003   0.59406   0.50015   0.00000  Uiso   1.00
O749   O     0.68393   0.50000   0.54563   0.00000  Uiso   1.00
O750   O     0.81608   0.50000   0.45437   0.00000  Uiso   1.00
O751   O     0.81608   0.50000   0.54563   0.00000  Uiso   1.00
O752   O     0.68393   0.50000   0.45437   0.00000  Uiso   1.00
C753   C     0.66317   0.49999   0.50000   0.00000  Uiso   1.00
C754   C     0.83680   0.50000   0.50000   0.00000  Uiso   1.00
Zn755  Zn    0.75000   0.50000   0.56093   0.00000  Uiso   1.00
Zn756  Zn    0.75000   0.50000   0.43907   0.00000  Uiso   1.00
N757   N     0.75000   0.50000   0.35788   0.00000  Uiso   1.00
N758   N     0.75000   0.50000   0.64212   0.00000  Uiso   1.00
C759   C     0.90749   0.54500   0.49240   0.00000  Uiso   1.00
C760   C     0.59252   0.45741   0.48117   0.00000  Uiso   1.00
C761   C     0.90749   0.45500   0.50758   0.00000  Uiso   1.00
C762   C     0.59252   0.54257   0.51880   0.00000  Uiso   1.00
C763   C     0.88450   0.50001   0.49999   0.00000  Uiso   1.00
C764   C     0.61542   0.49999   0.49999   0.00000  Uiso   1.00
C765   C     0.95347   0.45445   0.49861   0.00000  Uiso   1.00
C766   C     0.54640   0.54463   0.51121   0.00000  Uiso   1.00
C767   C     0.95347   0.54555   0.50135   0.00000  Uiso   1.00
C768   C     0.54640   0.45536   0.48875   0.00000  Uiso   1.00
C769   C     0.97673   0.50000   0.49997   0.00000  Uiso   1.00
C770   C     0.52322   0.50000   0.49997   0.00000  Uiso   1.00
C771   C     0.97675   0.40970   0.49092   0.00000  Uiso   1.00
C772   C     0.52292   0.58970   0.51586   0.00000  Uiso   1.00
C773   C     0.97675   0.59030   0.50903   0.00000  Uiso   1.00
C774   C     0.52292   0.41029   0.48410   0.00000  Uiso   1.00
C775   C     0.75006   0.35504   0.49979   0.00000  Uiso   1.00
C776   C     0.75006   0.64496   0.50021   0.00000  Uiso   1.00
O777   O     0.88546   0.58821   0.47715   0.00000  Uiso   1.00
C778   C     0.87943   0.58810   0.41890   0.00000  Uiso   1.00
H779   H     0.85335   0.61618   0.40920   0.00000  Uiso   1.00
H780   H     0.86674   0.55188   0.40286   0.00000  Uiso   1.00
C781   C     0.92243   0.60173   0.38754   0.00000  Uiso   1.00
H782   H     0.93348   0.63960   0.40008   0.00000  Uiso   1.00
H783   H     0.94966   0.57515   0.39724   0.00000  Uiso   1.00
C784   C     0.91507   0.59941   0.65850   0.00000  Uiso   1.00
H785   H     0.90644   0.56085   0.64539   0.00000  Uiso   1.00
H786   H     0.94632   0.61045   0.63700   0.00000  Uiso   1.00
H787   H     0.88758   0.62476   0.64611   0.00000  Uiso   1.00
O788   O     0.61527   0.41692   0.45893   0.00000  Uiso   1.00
C789   C     0.62161   0.42407   0.40138   0.00000  Uiso   1.00
H790   H     0.65171   0.40241   0.38892   0.00000  Uiso   1.00
H791   H     0.62849   0.46354   0.39039   0.00000  Uiso   1.00
C792   C     0.58145   0.40536   0.36753   0.00000  Uiso   1.00
H793   H     0.57380   0.36627   0.37866   0.00000  Uiso   1.00
H794   H     0.55162   0.42868   0.37668   0.00000  Uiso   1.00
C795   C     0.59076   0.40821   0.63896   0.00000  Uiso   1.00
H796   H     0.59821   0.44717   0.62692   0.00000  Uiso   1.00
H797   H     0.56083   0.39541   0.61561   0.00000  Uiso   1.00
H798   H     0.61960   0.38404   0.62768   0.00000  Uiso   1.00
O799   O     0.88547   0.41180   0.52285   0.00000  Uiso   1.00
C800   C     0.87945   0.41193   0.58110   0.00000  Uiso   1.00
H801   H     0.85336   0.38387   0.59081   0.00000  Uiso   1.00
H802   H     0.86679   0.44816   0.59714   0.00000  Uiso   1.00
C803   C     0.92245   0.39826   0.61244   0.00000  Uiso   1.00
H804   H     0.93348   0.36038   0.59989   0.00000  Uiso   1.00
H805   H     0.94969   0.42482   0.60271   0.00000  Uiso   1.00
C806   C     0.91512   0.40059   0.34147   0.00000  Uiso   1.00
H807   H     0.90651   0.43916   0.35459   0.00000  Uiso   1.00
H808   H     0.94636   0.38952   0.36296   0.00000  Uiso   1.00
H809   H     0.88761   0.37527   0.35388   0.00000  Uiso   1.00
O810   O     0.61526   0.58303   0.54111   0.00000  Uiso   1.00
C811   C     0.62155   0.57583   0.59866   0.00000  Uiso   1.00
H812   H     0.65172   0.59735   0.61114   0.00000  Uiso   1.00
H813   H     0.62830   0.53633   0.60963   0.00000  Uiso   1.00
C814   C     0.58144   0.59470   0.63249   0.00000  Uiso   1.00
H815   H     0.57398   0.63384   0.62143   0.00000  Uiso   1.00
H816   H     0.55152   0.57157   0.62324   0.00000  Uiso   1.00
C817   C     0.59067   0.59170   0.36107   0.00000  Uiso   1.00
H818   H     0.59780   0.55266   0.37305   0.00000  Uiso   1.00
H819   H     0.56083   0.60476   0.38440   0.00000  Uiso   1.00
H820   H     0.61968   0.61556   0.37242   0.00000  Uiso   1.00
O821   O     0.25000   0.76178   0.54562   0.00000  Uiso   1.00
O822   O     0.25000   0.90488   0.45438   0.00000  Uiso   1.00
O823   O     0.25000   0.90488   0.54562   0.00000  Uiso   1.00
O824   O     0.25000   0.76178   0.45438   0.00000  Uiso   1.00
H825   H     0.45911   0.70798   0.48845   0.00000  Uiso   1.00
H826   H     0.04023   0.95783   0.52342   0.00000  Uiso   1.00
H827   H     0.45911   0.95869   0.51152   0.00000  Uiso   1.00
H828   H     0.04023   0.70882   0.47655   0.00000  Uiso   1.00
C829   C     0.25003   0.73928   0.49985   0.00000  Uiso   1.00
C830   C     0.25003   0.92739   0.50015   0.00000  Uiso   1.00
O831   O     0.18393   0.83333   0.54563   0.00000  Uiso   1.00
O832   O     0.31608   0.83333   0.45437   0.00000  Uiso   1.00
O833   O     0.31608   0.83333   0.54563   0.00000  Uiso   1.00
O834   O     0.18393   0.83333   0.45437   0.00000  Uiso   1.00
C835   C     0.16317   0.83332   0.50000   0.00000  Uiso   1.00
C836   C     0.33680   0.83334   0.50000   0.00000  Uiso   1.00
Zn837  Zn    0.25000   0.83333   0.56093   0.00000  Uiso   1.00
Zn838  Zn    0.25000   0.83333   0.43907   0.00000  Uiso   1.00
N839   N     0.25000   0.83333   0.35788   0.00000  Uiso   1.00
N840   N     0.25000   0.83333   0.64212   0.00000  Uiso   1.00
C841   C     0.40749   0.87834   0.49240   0.00000  Uiso   1.00
C842   C     0.09252   0.79074   0.48117   0.00000  Uiso   1.00
C843   C     0.40749   0.78834   0.50758   0.00000  Uiso   1.00
C844   C     0.09252   0.87591   0.51880   0.00000  Uiso   1.00
C845   C     0.38450   0.83334   0.49999   0.00000  Uiso   1.00
C846   C     0.11542   0.83332   0.49999   0.00000  Uiso   1.00
C847   C     0.45347   0.78779   0.49861   0.00000  Uiso   1.00
C848   C     0.04640   0.87796   0.51121   0.00000  Uiso   1.00
C849   C     0.45347   0.87888   0.50135   0.00000  Uiso   1.00
C850   C     0.04640   0.78869   0.48875   0.00000  Uiso   1.00
C851   C     0.47673   0.83333   0.49997   0.00000  Uiso   1.00
C852   C     0.02322   0.83333   0.49997   0.00000  Uiso   1.00
C853   C     0.47675   0.74303   0.49092   0.00000  Uiso   1.00
C854   C     0.02292   0.92303   0.51586   0.00000  Uiso   1.00
C855   C     0.47675   0.92364   0.50903   0.00000  Uiso   1.00
C856   C     0.02292   0.74363   0.48410   0.00000  Uiso   1.00
C857   C     0.25006   0.68837   0.49979   0.00000  Uiso   1.00
C858   C     0.25006   0.97830   0.50021   0.00000  Uiso   1.00
O859   O     0.38546   0.92155   0.47715   0.00000  Uiso   1.00
C860   C     0.37943   0.92143   0.41890   0.00000  Uiso   1.00
H861   H     0.35335   0.94952   0.40920   0.00000  Uiso   1.00
H862   H     0.36674   0.88522   0.40286   0.00000  Uiso   1.00
C863   C     0.42243   0.93506   0.38754   0.00000  Uiso   1.00
H864   H     0.43348   0.97293   0.40008   0.00000  Uiso   1.00
H865   H     0.44966   0.90848   0.39724   0.00000  Uiso   1.00
C866   C     0.41507   0.93274   0.65850   0.00000  Uiso   1.00
H867   H     0.40644   0.89418   0.64539   0.00000  Uiso   1.00
H868   H     0.44632   0.94379   0.63700   0.00000  Uiso   1.00
H869   H     0.38758   0.95810   0.64611   0.00000  Uiso   1.00
O870   O     0.11527   0.75026   0.45893   0.00000  Uiso   1.00
C871   C     0.12161   0.75740   0.40138   0.00000  Uiso   1.00
H872   H     0.15171   0.73574   0.38892   0.00000  Uiso   1.00
H873   H     0.12849   0.79687   0.39039   0.00000  Uiso   1.00
C874   C     0.08145   0.73869   0.36753   0.00000  Uiso   1.00
H875   H     0.07380   0.69961   0.37866   0.00000  Uiso   1.00
H876   H     0.05162   0.76201   0.37668   0.00000  Uiso   1.00
C877   C     0.09076   0.74154   0.63896   0.00000  Uiso   1.00
H878   H     0.09821   0.78050   0.62692   0.00000  Uiso   1.00
H879   H     0.06083   0.72874   0.61561   0.00000  Uiso   1.00
H880   H     0.11960   0.71737   0.62768   0.00000  Uiso   1.00
O881   O     0.38547   0.74513   0.52285   0.00000  Uiso   1.00
C882   C     0.37945   0.74526   0.58110   0.00000  Uiso   1.00
H883   H     0.35336   0.71720   0.59081   0.00000  Uiso   1.00
H884   H     0.36679   0.78149   0.59714   0.00000  Uiso   1.00
C885   C     0.42245   0.73159   0.61244   0.00000  Uiso   1.00
H886   H     0.43348   0.69372   0.59989   0.00000  Uiso   1.00
H887   H     0.44969   0.75815   0.60271   0.00000  Uiso   1.00
C888   C     0.41512   0.73393   0.34147   0.00000  Uiso   1.00
H889   H     0.40651   0.77249   0.35459   0.00000  Uiso   1.00
H890   H     0.44636   0.72285   0.36296   0.00000  Uiso   1.00
H891   H     0.38761   0.70860   0.35388   0.00000  Uiso   1.00
O892   O     0.11526   0.91636   0.54111   0.00000  Uiso   1.00
C893   C     0.12155   0.90916   0.59866   0.00000  Uiso   1.00
H894   H     0.15172   0.93069   0.61114   0.00000  Uiso   1.00
H895   H     0.12830   0.86966   0.60963   0.00000  Uiso   1.00
C896   C     0.08144   0.92803   0.63249   0.00000  Uiso   1.00
H897   H     0.07398   0.96717   0.62143   0.00000  Uiso   1.00
H898   H     0.05152   0.90491   0.62324   0.00000  Uiso   1.00
C899   C     0.09067   0.92503   0.36107   0.00000  Uiso   1.00
H900   H     0.09780   0.88599   0.37305   0.00000  Uiso   1.00
H901   H     0.06083   0.93809   0.38440   0.00000  Uiso   1.00
H902   H     0.11968   0.94889   0.37242   0.00000  Uiso   1.00
O903   O     0.75000   0.76178   0.54562   0.00000  Uiso   1.00
O904   O     0.75000   0.90488   0.45438   0.00000  Uiso   1.00
O905   O     0.75000   0.90488   0.54562   0.00000  Uiso   1.00
O906   O     0.75000   0.76178   0.45438   0.00000  Uiso   1.00
H907   H     0.95911   0.70798   0.48845   0.00000  Uiso   1.00
H908   H     0.54023   0.95783   0.52342   0.00000  Uiso   1.00
H909   H     0.95911   0.95869   0.51152   0.00000  Uiso   1.00
H910   H     0.54023   0.70882   0.47655   0.00000  Uiso   1.00
C911   C     0.75003   0.73928   0.49985   0.00000  Uiso   1.00
C912   C     0.75003   0.92739   0.50015   0.00000  Uiso   1.00
O913   O     0.68393   0.83333   0.54563   0.00000  Uiso   1.00
O914   O     0.81608   0.83333   0.45437   0.00000  Uiso   1.00
O915   O     0.81608   0.83333   0.54563   0.00000  Uiso   1.00
O916   O     0.68393   0.83333   0.45437   0.00000  Uiso   1.00
C917   C     0.66317   0.83332   0.50000   0.00000  Uiso   1.00
C918   C     0.83680   0.83334   0.50000   0.00000  Uiso   1.00
Zn919  Zn    0.75000   0.83333   0.56093   0.00000  Uiso   1.00
Zn920  Zn    0.75000   0.83333   0.43907   0.00000  Uiso   1.00
N921   N     0.75000   0.83333   0.35788   0.00000  Uiso   1.00
N922   N     0.75000   0.83333   0.64212   0.00000  Uiso   1.00
C923   C     0.90749   0.87834   0.49240   0.00000  Uiso   1.00
C924   C     0.59252   0.79074   0.48117   0.00000  Uiso   1.00
C925   C     0.90749   0.78834   0.50758   0.00000  Uiso   1.00
C926   C     0.59252   0.87591   0.51880   0.00000  Uiso   1.00
C927   C     0.88450   0.83334   0.49999   0.00000  Uiso   1.00
C928   C     0.61542   0.83332   0.49999   0.00000  Uiso   1.00
C929   C     0.95347   0.78779   0.49861   0.00000  Uiso   1.00
C930   C     0.54640   0.87796   0.51121   0.00000  Uiso   1.00
C931   C     0.95347   0.87888   0.50135   0.00000  Uiso   1.00
C932   C     0.54640   0.78869   0.48875   0.00000  Uiso   1.00
C933   C     0.97673   0.83333   0.49997   0.00000  Uiso   1.00
C934   C     0.52322   0.83333   0.49997   0.00000  Uiso   1.00
C935   C     0.97675   0.74303   0.49092   0.00000  Uiso   1.00
C936   C     0.52292   0.92303   0.51586   0.00000  Uiso   1.00
C937   C     0.97675   0.92364   0.50903   0.00000  Uiso   1.00
C938   C     0.52292   0.74363   0.48410   0.00000  Uiso   1.00
C939   C     0.75006   0.68837   0.49979   0.00000  Uiso   1.00
C940   C     0.75006   0.97830   0.50021   0.00000  Uiso   1.00
O941   O     0.88546   0.92155   0.47715   0.00000  Uiso   1.00
C942   C     0.87943   0.92143   0.41890   0.00000  Uiso   1.00
H943   H     0.85335   0.94952   0.40920   0.00000  Uiso   1.00
H944   H     0.86674   0.88522   0.40286   0.00000  Uiso   1.00
C945   C     0.92243   0.93506   0.38754   0.00000  Uiso   1.00
H946   H     0.93348   0.97293   0.40008   0.00000  Uiso   1.00
H947   H     0.94966   0.90848   0.39724   0.00000  Uiso   1.00
C948   C     0.91507   0.93274   0.65850   0.00000  Uiso   1.00
H949   H     0.90644   0.89418   0.64539   0.00000  Uiso   1.00
H950   H     0.94632   0.94379   0.63700   0.00000  Uiso   1.00
H951   H     0.88758   0.95810   0.64611   0.00000  Uiso   1.00
O952   O     0.61527   0.75026   0.45893   0.00000  Uiso   1.00
C953   C     0.62161   0.75740   0.40138   0.00000  Uiso   1.00
H954   H     0.65171   0.73574   0.38892   0.00000  Uiso   1.00
H955   H     0.62849   0.79687   0.39039   0.00000  Uiso   1.00
C956   C     0.58145   0.73869   0.36753   0.00000  Uiso   1.00
H957   H     0.57380   0.69961   0.37866   0.00000  Uiso   1.00
H958   H     0.55162   0.76201   0.37668   0.00000  Uiso   1.00
C959   C     0.59076   0.74154   0.63896   0.00000  Uiso   1.00
H960   H     0.59821   0.78050   0.62692   0.00000  Uiso   1.00
H961   H     0.56083   0.72874   0.61561   0.00000  Uiso   1.00
H962   H     0.61960   0.71737   0.62768   0.00000  Uiso   1.00
O963   O     0.88547   0.74513   0.52285   0.00000  Uiso   1.00
C964   C     0.87945   0.74526   0.58110   0.00000  Uiso   1.00
H965   H     0.85336   0.71720   0.59081   0.00000  Uiso   1.00
H966   H     0.86679   0.78149   0.59714   0.00000  Uiso   1.00
C967   C     0.92245   0.73159   0.61244   0.00000  Uiso   1.00
H968   H     0.93348   0.69372   0.59989   0.00000  Uiso   1.00
H969   H     0.94969   0.75815   0.60271   0.00000  Uiso   1.00
C970   C     0.91512   0.73393   0.34147   0.00000  Uiso   1.00
H971   H     0.90651   0.77249   0.35459   0.00000  Uiso   1.00
H972   H     0.94636   0.72285   0.36296   0.00000  Uiso   1.00
H973   H     0.88761   0.70860   0.35388   0.00000  Uiso   1.00
O974   O     0.61526   0.91636   0.54111   0.00000  Uiso   1.00
C975   C     0.62155   0.90916   0.59866   0.00000  Uiso   1.00
H976   H     0.65172   0.93069   0.61114   0.00000  Uiso   1.00
H977   H     0.62830   0.86966   0.60963   0.00000  Uiso   1.00
C978   C     0.58144   0.92803   0.63249   0.00000  Uiso   1.00
H979   H     0.57398   0.96717   0.62143   0.00000  Uiso   1.00
H980   H     0.55152   0.90491   0.62324   0.00000  Uiso   1.00
C981   C     0.59067   0.92503   0.36107   0.00000  Uiso   1.00
H982   H     0.59780   0.88599   0.37305   0.00000  Uiso   1.00
H983   H     0.56083   0.93809   0.38440   0.00000  Uiso   1.00
H984   H     0.61968   0.94889   0.37242   0.00000  Uiso   1.00
O985   O     0.25000   0.09512   0.87895   0.00000  Uiso   1.00
O986   O     0.25000   0.23822   0.78772   0.00000  Uiso   1.00
O987   O     0.25000   0.23822   0.87895   0.00000  Uiso   1.00
O988   O     0.25000   0.09512   0.78772   0.00000  Uiso   1.00
H989   H     0.45911   0.04131   0.82178   0.00000  Uiso   1.00
H990   H     0.04023   0.29117   0.85675   0.00000  Uiso   1.00
H991   H     0.45911   0.29202   0.84485   0.00000  Uiso   1.00
H992   H     0.04023   0.04215   0.80988   0.00000  Uiso   1.00
C993   C     0.25003   0.07261   0.83319   0.00000  Uiso   1.00
C994   C     0.25003   0.26073   0.83348   0.00000  Uiso   1.00
O995   O     0.18393   0.16667   0.87896   0.00000  Uiso   1.00
O996   O     0.31608   0.16667   0.78770   0.00000  Uiso   1.00
O997   O     0.31608   0.16667   0.87896   0.00000  Uiso   1.00
O998   O     0.18393   0.16667   0.78770   0.00000  Uiso   1.00
C999   C     0.16317   0.16666   0.83333   0.00000  Uiso   1.00
C1000  C     0.33680   0.16667   0.83333   0.00000  Uiso   1.00
Zn1001 Zn    0.25000   0.16667   0.89426   0.00000  Uiso   1.00
Zn1002 Zn    0.25000   0.16667   0.77241   0.00000  Uiso   1.00
N1003  N     0.25000   0.16667   0.69121   0.00000  Uiso   1.00
N1004  N     0.25000   0.16667   0.97545   0.00000  Uiso   1.00
C1005  C     0.40749   0.21167   0.82573   0.00000  Uiso   1.00
C1006  C     0.09252   0.12407   0.81451   0.00000  Uiso   1.00
C1007  C     0.40749   0.12167   0.84091   0.00000  Uiso   1.00
C1008  C     0.09252   0.20924   0.85213   0.00000  Uiso   1.00
C1009  C     0.38450   0.16667   0.83333   0.00000  Uiso   1.00
C1010  C     0.11542   0.16665   0.83333   0.00000  Uiso   1.00
C1011  C     0.45347   0.12112   0.83194   0.00000  Uiso   1.00
C1012  C     0.04640   0.21130   0.84454   0.00000  Uiso   1.00
C1013  C     0.45347   0.21222   0.83468   0.00000  Uiso   1.00
C1014  C     0.04640   0.12203   0.82208   0.00000  Uiso   1.00
C1015  C     0.47673   0.16667   0.83331   0.00000  Uiso   1.00
C1016  C     0.02322   0.16666   0.83331   0.00000  Uiso   1.00
C1017  C     0.47675   0.07636   0.82426   0.00000  Uiso   1.00
C1018  C     0.02292   0.25637   0.84919   0.00000  Uiso   1.00
C1019  C     0.47675   0.25697   0.84237   0.00000  Uiso   1.00
C1020  C     0.02292   0.07696   0.81743   0.00000  Uiso   1.00
C1021  C     0.25006   0.02170   0.83312   0.00000  Uiso   1.00
C1022  C     0.25006   0.31163   0.83354   0.00000  Uiso   1.00
O1023  O     0.38546   0.25488   0.81048   0.00000  Uiso   1.00
C1024  C     0.37943   0.25476   0.75223   0.00000  Uiso   1.00
H1025  H     0.35335   0.28285   0.74253   0.00000  Uiso   1.00
H1026  H     0.36674   0.21855   0.73620   0.00000  Uiso   1.00
C1027  C     0.42243   0.26840   0.72087   0.00000  Uiso   1.00
H1028  H     0.43348   0.30626   0.73341   0.00000  Uiso   1.00
H1029  H     0.44966   0.24182   0.73057   0.00000  Uiso   1.00
C1030  C     0.41507   0.26607   0.99184   0.00000  Uiso   1.00
H1031  H     0.40644   0.22752   0.97873   0.00000  Uiso   1.00
H1032  H     0.44632   0.27712   0.97034   0.00000  Uiso   1.00
H1033  H     0.38758   0.29143   0.97944   0.00000  Uiso   1.00
O1034  O     0.11527   0.08359   0.79226   0.00000  Uiso   1.00
C1035  C     0.12161   0.09073   0.73471   0.00000  Uiso   1.00
H1036  H     0.15171   0.06907   0.72226   0.00000  Uiso   1.00
H1037  H     0.12849   0.13020   0.72373   0.00000  Uiso   1.00
C1038  C     0.08145   0.07203   0.70086   0.00000  Uiso   1.00
H1039  H     0.07380   0.03294   0.71199   0.00000  Uiso   1.00
H1040  H     0.05162   0.09535   0.71002   0.00000  Uiso   1.00
C1041  C     0.09076   0.07487   0.97229   0.00000  Uiso   1.00
H1042  H     0.09821   0.11383   0.96025   0.00000  Uiso   1.00
H1043  H     0.06083   0.06207   0.94894   0.00000  Uiso   1.00
H1044  H     0.11960   0.05070   0.96102   0.00000  Uiso   1.00
O1045  O     0.38547   0.07847   0.85618   0.00000  Uiso   1.00
C1046  C     0.37945   0.07860   0.91443   0.00000  Uiso   1.00
H1047  H     0.35336   0.05053   0.92415   0.00000  Uiso   1.00
H1048  H     0.36679   0.11482   0.93047   0.00000  Uiso   1.00
C1049  C     0.42245   0.06493   0.94577   0.00000  Uiso   1.00
H1050  H     0.43348   0.02705   0.93322   0.00000  Uiso   1.00
H1051  H     0.44969   0.09148   0.93605   0.00000  Uiso   1.00
C1052  C     0.41512   0.06726   0.67481   0.00000  Uiso   1.00
H1053  H     0.40651   0.10583   0.68792   0.00000  Uiso   1.00
H1054  H     0.44636   0.05619   0.69629   0.00000  Uiso   1.00
H1055  H     0.38761   0.04193   0.68722   0.00000  Uiso   1.00
O1056  O     0.11526   0.24970   0.87444   0.00000  Uiso   1.00
C1057  C     0.12155   0.24250   0.93199   0.00000  Uiso   1.00
H1058  H     0.15172   0.26402   0.94447   0.00000  Uiso   1.00
H1059  H     0.12830   0.20300   0.94296   0.00000  Uiso   1.00
C1060  C     0.08144   0.26137   0.96582   0.00000  Uiso   1.00
H1061  H     0.07398   0.30051   0.95476   0.00000  Uiso   1.00
H1062  H     0.05152   0.23824   0.95658   0.00000  Uiso   1.00
C1063  C     0.09067   0.25836   0.69440   0.00000  Uiso   1.00
H1064  H     0.09780   0.21932   0.70638   0.00000  Uiso   1.00
H1065  H     0.06083   0.27143   0.71773   0.00000  Uiso   1.00
H1066  H     0.11968   0.28223   0.70575   0.00000  Uiso   1.00
O1067  O     0.75000   0.09512   0.87895   0.00000  Uiso   1.00
O1068  O     0.75000   0.23822   0.78772   0.00000  Uiso   1.00
O1069  O     0.75000   0.23822   0.87895   0.00000  Uiso   1.00
O1070  O     0.75000   0.09512   0.78772   0.00000  Uiso   1.00
H1071  H     0.95911   0.04131   0.82178   0.00000  Uiso   1.00
H1072  H     0.54023   0.29117   0.85675   0.00000  Uiso   1.00
H1073  H     0.95911   0.29202   0.84485   0.00000  Uiso   1.00
H1074  H     0.54023   0.04215   0.80988   0.00000  Uiso   1.00
C1075  C     0.75003   0.07261   0.83319   0.00000  Uiso   1.00
C1076  C     0.75003   0.26073   0.83348   0.00000  Uiso   1.00
O1077  O     0.68393   0.16667   0.87896   0.00000  Uiso   1.00
O1078  O     0.81608   0.16667   0.78770   0.00000  Uiso   1.00
O1079  O     0.81608   0.16667   0.87896   0.00000  Uiso   1.00
O1080  O     0.68393   0.16667   0.78770   0.00000  Uiso   1.00
C1081  C     0.66317   0.16666   0.83333   0.00000  Uiso   1.00
C1082  C     0.83680   0.16667   0.83333   0.00000  Uiso   1.00
Zn1083 Zn    0.75000   0.16667   0.89426   0.00000  Uiso   1.00
Zn1084 Zn    0.75000   0.16667   0.77241   0.00000  Uiso   1.00
N1085  N     0.75000   0.16667   0.69121   0.00000  Uiso   1.00
N1086  N     0.75000   0.16667   0.97545   0.00000  Uiso   1.00
C1087  C     0.90749   0.21167   0.82573   0.00000  Uiso   1.00
C1088  C     0.59252   0.12407   0.81451   0.00000  Uiso   1.00
C1089  C     0.90749   0.12167   0.84091   0.00000  Uiso   1.00
C1090  C     0.59252   0.20924   0.85213   0.00000  Uiso   1.00
C1091  C     0.88450   0.16667   0.83333   0.00000  Uiso   1.00
C1092  C     0.61542   0.16665   0.83333   0.00000  Uiso   1.00
C1093  C     0.95347   0.12112   0.83194   0.00000  Uiso   1.00
C1094  C     0.54640   0.21130   0.84454   0.00000  Uiso   1.00
C1095  C     0.95347   0.21222   0.83468   0.00000  Uiso   1.00
C1096  C     0.54640   0.12203   0.82208   0.00000  Uiso   1.00
C1097  C     0.97673   0.16667   0.83331   0.00000  Uiso   1.00
C1098  C     0.52322   0.16666   0.83331   0.00000  Uiso   1.00
C1099  C     0.97675   0.07636   0.82426   0.00000  Uiso   1.00
C1100  C     0.52292   0.25637   0.84919   0.00000  Uiso   1.00
C1101  C     0.97675   0.25697   0.84237   0.00000  Uiso   1.00
C1102  C     0.52292   0.07696   0.81743   0.00000  Uiso   1.00
C1103  C     0.75006   0.02170   0.83312   0.00000  Uiso   1.00
C1104  C     0.75006   0.31163   0.83354   0.00000  Uiso   1.00
O1105  O     0.88546   0.25488   0.81048   0.00000  Uiso   1.00
C1106  C     0.87943   0.25476   0.75223   0.00000  Uiso   1.00
H1107  H     0.85335   0.28285   0.74253   0.00000  Uiso   1.00
H1108  H     0.86674   0.21855   0.73620   0.00000  Uiso   1.00
C1109  C     0.92243   0.26840   0.72087   0.00000  Uiso   1.00
H1110  H     0.93348   0.30626   0.73341   0.00000  Uiso   1.00
H1111  H     0.94966   0.24182   0.73057   0.00000  Uiso   1.00
C1112  C     0.91507   0.26607   0.99184   0.00000  Uiso   1.00
H1113  H     0.90644   0.22752   0.97873   0.00000  Uiso   1.00
H1114  H     0.94632   0.27712   0.97034   0.00000  Uiso   1.00
H1115  H     0.88758   0.29143   0.97944   0.00000  Uiso   1.00
O1116  O     0.61527   0.08359   0.79226   0.00000  Uiso   1.00
C1117  C     0.62161   0.09073   0.73471   0.00000  Uiso   1.00
H1118  H     0.65171   0.06907   0.72226   0.00000  Uiso   1.00
H1119  H     0.62849   0.13020   0.72373   0.00000  Uiso   1.00
C1120  C     0.58145   0.07203   0.70086   0.00000  Uiso   1.00
H1121  H     0.57380   0.03294   0.71199   0.00000  Uiso   1.00
H1122  H     0.55162   0.09535   0.71002   0.00000  Uiso   1.00
C1123  C     0.59076   0.07487   0.97229   0.00000  Uiso   1.00
H1124  H     0.59821   0.11383   0.96025   0.00000  Uiso   1.00
H1125  H     0.56083   0.06207   0.94894   0.00000  Uiso   1.00
H1126  H     0.61960   0.05070   0.96102   0.00000  Uiso   1.00
O1127  O     0.88547   0.07847   0.85618   0.00000  Uiso   1.00
C1128  C     0.87945   0.07860   0.91443   0.00000  Uiso   1.00
H1129  H     0.85336   0.05053   0.92415   0.00000  Uiso   1.00
H1130  H     0.86679   0.11482   0.93047   0.00000  Uiso   1.00
C1131  C     0.92245   0.06493   0.94577   0.00000  Uiso   1.00
H1132  H     0.93348   0.02705   0.93322   0.00000  Uiso   1.00
H1133  H     0.94969   0.09148   0.93605   0.00000  Uiso   1.00
C1134  C     0.91512   0.06726   0.67481   0.00000  Uiso   1.00
H1135  H     0.90651   0.10583   0.68792   0.00000  Uiso   1.00
H1136  H     0.94636   0.05619   0.69629   0.00000  Uiso   1.00
H1137  H     0.88761   0.04193   0.68722   0.00000  Uiso   1.00
O1138  O     0.61526   0.24970   0.87444   0.00000  Uiso   1.00
C1139  C     0.62155   0.24250   0.93199   0.00000  Uiso   1.00
H1140  H     0.65172   0.26402   0.94447   0.00000  Uiso   1.00
H1141  H     0.62830   0.20300   0.94296   0.00000  Uiso   1.00
C1142  C     0.58144   0.26137   0.96582   0.00000  Uiso   1.00
H1143  H     0.57398   0.30051   0.95476   0.00000  Uiso   1.00
H1144  H     0.55152   0.23824   0.95658   0.00000  Uiso   1.00
C1145  C     0.59067   0.25836   0.69440   0.00000  Uiso   1.00
H1146  H     0.59780   0.21932   0.70638   0.00000  Uiso   1.00
H1147  H     0.56083   0.27143   0.71773   0.00000  Uiso   1.00
H1148  H     0.61968   0.28223   0.70575   0.00000  Uiso   1.00
O1149  O     0.25000   0.42845   0.87895   0.00000  Uiso   1.00
O1150  O     0.25000   0.57155   0.78772   0.00000  Uiso   1.00
O1151  O     0.25000   0.57155   0.87895   0.00000  Uiso   1.00
O1152  O     0.25000   0.42845   0.78772   0.00000  Uiso   1.00
H1153  H     0.45911   0.37465   0.82178   0.00000  Uiso   1.00
H1154  H     0.04023   0.62450   0.85675   0.00000  Uiso   1.00
H1155  H     0.45911   0.62536   0.84485   0.00000  Uiso   1.00
H1156  H     0.04023   0.37549   0.80988   0.00000  Uiso   1.00
C1157  C     0.25003   0.40594   0.83319   0.00000  Uiso   1.00
C1158  C     0.25003   0.59406   0.83348   0.00000  Uiso   1.00
O1159  O     0.18393   0.50000   0.87896   0.00000  Uiso   1.00
O1160  O     0.31608   0.50000   0.78770   0.00000  Uiso   1.00
O1161  O     0.31608   0.50000   0.87896   0.00000  Uiso   1.00
O1162  O     0.18393   0.50000   0.78770   0.00000  Uiso   1.00
C1163  C     0.16317   0.49999   0.83333   0.00000  Uiso   1.00
C1164  C     0.33680   0.50000   0.83333   0.00000  Uiso   1.00
Zn1165 Zn    0.25000   0.50000   0.89426   0.00000  Uiso   1.00
Zn1166 Zn    0.25000   0.50000   0.77241   0.00000  Uiso   1.00
N1167  N     0.25000   0.50000   0.69121   0.00000  Uiso   1.00
N1168  N     0.25000   0.50000   0.97545   0.00000  Uiso   1.00
C1169  C     0.40749   0.54500   0.82573   0.00000  Uiso   1.00
C1170  C     0.09252   0.45741   0.81451   0.00000  Uiso   1.00
C1171  C     0.40749   0.45500   0.84091   0.00000  Uiso   1.00
C1172  C     0.09252   0.54257   0.85213   0.00000  Uiso   1.00
C1173  C     0.38450   0.50001   0.83333   0.00000  Uiso   1.00
C1174  C     0.11542   0.49999   0.83333   0.00000  Uiso   1.00
C1175  C     0.45347   0.45445   0.83194   0.00000  Uiso   1.00
C1176  C     0.04640   0.54463   0.84454   0.00000  Uiso   1.00
C1177  C     0.45347   0.54555   0.83468   0.00000  Uiso   1.00
C1178  C     0.04640   0.45536   0.82208   0.00000  Uiso   1.00
C1179  C     0.47673   0.50000   0.83331   0.00000  Uiso   1.00
C1180  C     0.02322   0.50000   0.83331   0.00000  Uiso   1.00
C1181  C     0.47675   0.40970   0.82426   0.00000  Uiso   1.00
C1182  C     0.02292   0.58970   0.84919   0.00000  Uiso   1.00
C1183  C     0.47675   0.59030   0.84237   0.00000  Uiso   1.00
C1184  C     0.02292   0.41029   0.81743   0.00000  Uiso   1.00
C1185  C     0.25006   0.35504   0.83312   0.00000  Uiso   1.00
C1186  C     0.25006   0.64496   0.83354   0.00000  Uiso   1.00
O1187  O     0.38546   0.58821   0.81048   0.00000  Uiso   1.00
C1188  C     0.37943   0.58810   0.75223   0.00000  Uiso   1.00
H1189  H     0.35335   0.61618   0.74253   0.00000  Uiso   1.00
H1190  H     0.36674   0.55188   0.73620   0.00000  Uiso   1.00
C1191  C     0.42243   0.60173   0.72087   0.00000  Uiso   1.00
H1192  H     0.43348   0.63960   0.73341   0.00000  Uiso   1.00
H1193  H     0.44966   0.57515   0.73057   0.00000  Uiso   1.00
C1194  C     0.41507   0.59941   0.99184   0.00000  Uiso   1.00
H1195  H     0.40644   0.56085   0.97873   0.00000  Uiso   1.00
H1196  H     0.44632   0.61045   0.97034   0.00000  Uiso   1.00
H1197  H     0.38758   0.62476   0.97944   0.00000  Uiso   1.00
O1198  O     0.11527   0.41692   0.79226   0.00000  Uiso   1.00
C1199  C     0.12161   0.42407   0.73471   0.00000  Uiso   1.00
H1200  H     0.15171   0.40241   0.72226   0.00000  Uiso   1.00
H1201  H     0.12849   0.46354   0.72373   0.00000  Uiso   1.00
C1202  C     0.08145   0.40536   0.70086   0.00000  Uiso   1.00
H1203  H     0.07380   0.36627   0.71199   0.00000  Uiso   1.00
H1204  H     0.05162   0.42868   0.71002   0.00000  Uiso   1.00
C1205  C     0.09076   0.40821   0.97229   0.00000  Uiso   1.00
H1206  H     0.09821   0.44717   0.96025   0.00000  Uiso   1.00
H1207  H     0.06083   0.39541   0.94894   0.00000  Uiso   1.00
H1208  H     0.11960   0.38404   0.96102   0.00000  Uiso   1.00
O1209  O     0.38547   0.41180   0.85618   0.00000  Uiso   1.00
C1210  C     0.37945   0.41193   0.91443   0.00000  Uiso   1.00
H1211  H     0.35336   0.38387   0.92415   0.00000  Uiso   1.00
H1212  H     0.36679   0.44816   0.93047   0.00000  Uiso   1.00
C1213  C     0.42245   0.39826   0.94577   0.00000  Uiso   1.00
H1214  H     0.43348   0.36038   0.93322   0.00000  Uiso   1.00
H1215  H     0.44969   0.42482   0.93605   0.00000  Uiso   1.00
C1216  C     0.41512   0.40059   0.67481   0.00000  Uiso   1.00
H1217  H     0.40651   0.43916   0.68792   0.00000  Uiso   1.00
H1218  H     0.44636   0.38952   0.69629   0.00000  Uiso   1.00
H1219  H     0.38761   0.37527   0.68722   0.00000  Uiso   1.00
O1220  O     0.11526   0.58303   0.87444   0.00000  Uiso   1.00
C1221  C     0.12155   0.57583   0.93199   0.00000  Uiso   1.00
H1222  H     0.15172   0.59735   0.94447   0.00000  Uiso   1.00
H1223  H     0.12830   0.53633   0.94296   0.00000  Uiso   1.00
C1224  C     0.08144   0.59470   0.96582   0.00000  Uiso   1.00
H1225  H     0.07398   0.63384   0.95476   0.00000  Uiso   1.00
H1226  H     0.05152   0.57157   0.95658   0.00000  Uiso   1.00
C1227  C     0.09067   0.59170   0.69440   0.00000  Uiso   1.00
H1228  H     0.09780   0.55266   0.70638   0.00000  Uiso   1.00
H1229  H     0.06083   0.60476   0.71773   0.00000  Uiso   1.00
H1230  H     0.11968   0.61556   0.70575   0.00000  Uiso   1.00
O1231  O     0.75000   0.42845   0.87895   0.00000  Uiso   1.00
O1232  O     0.75000   0.57155   0.78772   0.00000  Uiso   1.00
O1233  O     0.75000   0.57155   0.87895   0.00000  Uiso   1.00
O1234  O     0.75000   0.42845   0.78772   0.00000  Uiso   1.00
H1235  H     0.95911   0.37465   0.82178   0.00000  Uiso   1.00
H1236  H     0.54023   0.62450   0.85675   0.00000  Uiso   1.00
H1237  H     0.95911   0.62536   0.84485   0.00000  Uiso   1.00
H1238  H     0.54023   0.37549   0.80988   0.00000  Uiso   1.00
C1239  C     0.75003   0.40594   0.83319   0.00000  Uiso   1.00
C1240  C     0.75003   0.59406   0.83348   0.00000  Uiso   1.00
O1241  O     0.68393   0.50000   0.87896   0.00000  Uiso   1.00
O1242  O     0.81608   0.50000   0.78770   0.00000  Uiso   1.00
O1243  O     0.81608   0.50000   0.87896   0.00000  Uiso   1.00
O1244  O     0.68393   0.50000   0.78770   0.00000  Uiso   1.00
C1245  C     0.66317   0.49999   0.83333   0.00000  Uiso   1.00
C1246  C     0.83680   0.50000   0.83333   0.00000  Uiso   1.00
Zn1247 Zn    0.75000   0.50000   0.89426   0.00000  Uiso   1.00
Zn1248 Zn    0.75000   0.50000   0.77241   0.00000  Uiso   1.00
N1249  N     0.75000   0.50000   0.69121   0.00000  Uiso   1.00
N1250  N     0.75000   0.50000   0.97545   0.00000  Uiso   1.00
C1251  C     0.90749   0.54500   0.82573   0.00000  Uiso   1.00
C1252  C     0.59252   0.45741   0.81451   0.00000  Uiso   1.00
C1253  C     0.90749   0.45500   0.84091   0.00000  Uiso   1.00
C1254  C     0.59252   0.54257   0.85213   0.00000  Uiso   1.00
C1255  C     0.88450   0.50001   0.83333   0.00000  Uiso   1.00
C1256  C     0.61542   0.49999   0.83333   0.00000  Uiso   1.00
C1257  C     0.95347   0.45445   0.83194   0.00000  Uiso   1.00
C1258  C     0.54640   0.54463   0.84454   0.00000  Uiso   1.00
C1259  C     0.95347   0.54555   0.83468   0.00000  Uiso   1.00
C1260  C     0.54640   0.45536   0.82208   0.00000  Uiso   1.00
C1261  C     0.97673   0.50000   0.83331   0.00000  Uiso   1.00
C1262  C     0.52322   0.50000   0.83331   0.00000  Uiso   1.00
C1263  C     0.97675   0.40970   0.82426   0.00000  Uiso   1.00
C1264  C     0.52292   0.58970   0.84919   0.00000  Uiso   1.00
C1265  C     0.97675   0.59030   0.84237   0.00000  Uiso   1.00
C1266  C     0.52292   0.41029   0.81743   0.00000  Uiso   1.00
C1267  C     0.75006   0.35504   0.83312   0.00000  Uiso   1.00
C1268  C     0.75006   0.64496   0.83354   0.00000  Uiso   1.00
O1269  O     0.88546   0.58821   0.81048   0.00000  Uiso   1.00
C1270  C     0.87943   0.58810   0.75223   0.00000  Uiso   1.00
H1271  H     0.85335   0.61618   0.74253   0.00000  Uiso   1.00
H1272  H     0.86674   0.55188   0.73620   0.00000  Uiso   1.00
C1273  C     0.92243   0.60173   0.72087   0.00000  Uiso   1.00
H1274  H     0.93348   0.63960   0.73341   0.00000  Uiso   1.00
H1275  H     0.94966   0.57515   0.73057   0.00000  Uiso   1.00
C1276  C     0.91507   0.59941   0.99184   0.00000  Uiso   1.00
H1277  H     0.90644   0.56085   0.97873   0.00000  Uiso   1.00
H1278  H     0.94632   0.61045   0.97034   0.00000  Uiso   1.00
H1279  H     0.88758   0.62476   0.97944   0.00000  Uiso   1.00
O1280  O     0.61527   0.41692   0.79226   0.00000  Uiso   1.00
C1281  C     0.62161   0.42407   0.73471   0.00000  Uiso   1.00
H1282  H     0.65171   0.40241   0.72226   0.00000  Uiso   1.00
H1283  H     0.62849   0.46354   0.72373   0.00000  Uiso   1.00
C1284  C     0.58145   0.40536   0.70086   0.00000  Uiso   1.00
H1285  H     0.57380   0.36627   0.71199   0.00000  Uiso   1.00
H1286  H     0.55162   0.42868   0.71002   0.00000  Uiso   1.00
C1287  C     0.59076   0.40821   0.97229   0.00000  Uiso   1.00
H1288  H     0.59821   0.44717   0.96025   0.00000  Uiso   1.00
H1289  H     0.56083   0.39541   0.94894   0.00000  Uiso   1.00
H1290  H     0.61960   0.38404   0.96102   0.00000  Uiso   1.00
O1291  O     0.88547   0.41180   0.85618   0.00000  Uiso   1.00
C1292  C     0.87945   0.41193   0.91443   0.00000  Uiso   1.00
H1293  H     0.85336   0.38387   0.92415   0.00000  Uiso   1.00
H1294  H     0.86679   0.44816   0.93047   0.00000  Uiso   1.00
C1295  C     0.92245   0.39826   0.94577   0.00000  Uiso   1.00
H1296  H     0.93348   0.36038   0.93322   0.00000  Uiso   1.00
H1297  H     0.94969   0.42482   0.93605   0.00000  Uiso   1.00
C1298  C     0.91512   0.40059   0.67481   0.00000  Uiso   1.00
H1299  H     0.90651   0.43916   0.68792   0.00000  Uiso   1.00
H1300  H     0.94636   0.38952   0.69629   0.00000  Uiso   1.00
H1301  H     0.88761   0.37527   0.68722   0.00000  Uiso   1.00
O1302  O     0.61526   0.58303   0.87444   0.00000  Uiso   1.00
C1303  C     0.62155   0.57583   0.93199   0.00000  Uiso   1.00
H1304  H     0.65172   0.59735   0.94447   0.00000  Uiso   1.00
H1305  H     0.62830   0.53633   0.94296   0.00000  Uiso   1.00
C1306  C     0.58144   0.59470   0.96582   0.00000  Uiso   1.00
H1307  H     0.57398   0.63384   0.95476   0.00000  Uiso   1.00
H1308  H     0.55152   0.57157   0.95658   0.00000  Uiso   1.00
C1309  C     0.59067   0.59170   0.69440   0.00000  Uiso   1.00
H1310  H     0.59780   0.55266   0.70638   0.00000  Uiso   1.00
H1311  H     0.56083   0.60476   0.71773   0.00000  Uiso   1.00
H1312  H     0.61968   0.61556   0.70575   0.00000  Uiso   1.00
O1313  O     0.25000   0.76178   0.87895   0.00000  Uiso   1.00
O1314  O     0.25000   0.90488   0.78772   0.00000  Uiso   1.00
O1315  O     0.25000   0.90488   0.87895   0.00000  Uiso   1.00
O1316  O     0.25000   0.76178   0.78772   0.00000  Uiso   1.00
H1317  H     0.45911   0.70798   0.82178   0.00000  Uiso   1.00
H1318  H     0.04023   0.95783   0.85675   0.00000  Uiso   1.00
H1319  H     0.45911   0.95869   0.84485   0.00000  Uiso   1.00
H1320  H     0.04023   0.70882   0.80988   0.00000  Uiso   1.00
C1321  C     0.25003   0.73928   0.83319   0.00000  Uiso   1.00
C1322  C     0.25003   0.92739   0.83348   0.00000  Uiso   1.00
O1323  O     0.18393   0.83333   0.87896   0.00000  Uiso   1.00
O1324  O     0.31608   0.83333   0.78770   0.00000  Uiso   1.00
O1325  O     0.31608   0.83333   0.87896   0.00000  Uiso   1.00
O1326  O     0.18393   0.83333   0.78770   0.00000  Uiso   1.00
C1327  C     0.16317   0.83332   0.83333   0.00000  Uiso   1.00
C1328  C     0.33680   0.83334   0.83333   0.00000  Uiso   1.00
Zn1329 Zn    0.25000   0.83333   0.89426   0.00000  Uiso   1.00
Zn1330 Zn    0.25000   0.83333   0.77241   0.00000  Uiso   1.00
N1331  N     0.25000   0.83333   0.69121   0.00000  Uiso   1.00
N1332  N     0.25000   0.83333   0.97545   0.00000  Uiso   1.00
C1333  C     0.40749   0.87834   0.82573   0.00000  Uiso   1.00
C1334  C     0.09252   0.79074   0.81451   0.00000  Uiso   1.00
C1335  C     0.40749   0.78834   0.84091   0.00000  Uiso   1.00
C1336  C     0.09252   0.87591   0.85213   0.00000  Uiso   1.00
C1337  C     0.38450   0.83334   0.83333   0.00000  Uiso   1.00
C1338  C     0.11542   0.83332   0.83333   0.00000  Uiso   1.00
C1339  C     0.45347   0.78779   0.83194   0.00000  Uiso   1.00
C1340  C     0.04640   0.87796   0.84454   0.00000  Uiso   1.00
C1341  C     0.45347   0.87888   0.83468   0.00000  Uiso   1.00
C1342  C     0.04640   0.78869   0.82208   0.00000  Uiso   1.00
C1343  C     0.47673   0.83333   0.83331   0.00000  Uiso   1.00
C1344  C     0.02322   0.83333   0.83331   0.00000  Uiso   1.00
C1345  C     0.47675   0.74303   0.82426   0.00000  Uiso   1.00
C1346  C     0.02292   0.92303   0.84919   0.00000  Uiso   1.00
C1347  C     0.47675   0.92364   0.84237   0.00000  Uiso   1.00
C1348  C     0.02292   0.74363   0.81743   0.00000  Uiso   1.00
C1349  C     0.25006   0.68837   0.83312   0.00000  Uiso   1.00
C1350  C     0.25006   0.97830   0.83354   0.00000  Uiso   1.00
O1351  O     0.38546   0.92155   0.81048   0.00000  Uiso   1.00
C1352  C     0.37943   0.92143   0.75223   0.00000  Uiso   1.00
H1353  H     0.35335   0.94952   0.74253   0.00000  Uiso   1.00
H1354  H     0.36674   0.88522   0.73620   0.00000  Uiso   1.00
C1355  C     0.42243   0.93506   0.72087   0.00000  Uiso   1.00
H1356  H     0.43348   0.97293   0.73341   0.00000  Uiso   1.00
H1357  H     0.44966   0.90848   0.73057   0.00000  Uiso   1.00
C1358  C     0.41507   0.93274   0.99184   0.00000  Uiso   1.00
H1359  H     0.40644   0.89418   0.97873   0.00000  Uiso   1.00
H1360  H     0.44632   0.94379   0.97034   0.00000  Uiso   1.00
H1361  H     0.38758   0.95810   0.97944   0.00000  Uiso   1.00
O1362  O     0.11527   0.75026   0.79226   0.00000  Uiso   1.00
C1363  C     0.12161   0.75740   0.73471   0.00000  Uiso   1.00
H1364  H     0.15171   0.73574   0.72226   0.00000  Uiso   1.00
H1365  H     0.12849   0.79687   0.72373   0.00000  Uiso   1.00
C1366  C     0.08145   0.73869   0.70086   0.00000  Uiso   1.00
H1367  H     0.07380   0.69961   0.71199   0.00000  Uiso   1.00
H1368  H     0.05162   0.76201   0.71002   0.00000  Uiso   1.00
C1369  C     0.09076   0.74154   0.97229   0.00000  Uiso   1.00
H1370  H     0.09821   0.78050   0.96025   0.00000  Uiso   1.00
H1371  H     0.06083   0.72874   0.94894   0.00000  Uiso   1.00
H1372  H     0.11960   0.71737   0.96102   0.00000  Uiso   1.00
O1373  O     0.38547   0.74513   0.85618   0.00000  Uiso   1.00
C1374  C     0.37945   0.74526   0.91443   0.00000  Uiso   1.00
H1375  H     0.35336   0.71720   0.92415   0.00000  Uiso   1.00
H1376  H     0.36679   0.78149   0.93047   0.00000  Uiso   1.00
C1377  C     0.42245   0.73159   0.94577   0.00000  Uiso   1.00
H1378  H     0.43348   0.69372   0.93322   0.00000  Uiso   1.00
H1379  H     0.44969   0.75815   0.93605   0.00000  Uiso   1.00
C1380  C     0.41512   0.73393   0.67481   0.00000  Uiso   1.00
H1381  H     0.40651   0.77249   0.68792   0.00000  Uiso   1.00
H1382  H     0.44636   0.72285   0.69629   0.00000  Uiso   1.00
H1383  H     0.38761   0.70860   0.68722   0.00000  Uiso   1.00
O1384  O     0.11526   0.91636   0.87444   0.00000  Uiso   1.00
C1385  C     0.12155   0.90916   0.93199   0.00000  Uiso   1.00
H1386  H     0.15172   0.93069   0.94447   0.00000  Uiso   1.00
H1387  H     0.12830   0.86966   0.94296   0.00000  Uiso   1.00
C1388  C     0.08144   0.92803   0.96582   0.00000  Uiso   1.00
H1389  H     0.07398   0.96717   0.95476   0.00000  Uiso   1.00
H1390  H     0.05152   0.90491   0.95658   0.00000  Uiso   1.00
C1391  C     0.09067   0.92503   0.69440   0.00000  Uiso   1.00
H1392  H     0.09780   0.88599   0.70638   0.00000  Uiso   1.00
H1393  H     0.06083   0.93809   0.71773   0.00000  Uiso   1.00
H1394  H     0.11968   0.94889   0.70575   0.00000  Uiso   1.00
O1395  O     0.75000   0.76178   0.87895   0.00000  Uiso   1.00
O1396  O     0.75000   0.90488   0.78772   0.00000  Uiso   1.00
O1397  O     0.75000   0.90488   0.87895   0.00000  Uiso   1.00
O1398  O     0.75000   0.76178   0.78772   0.00000  Uiso   1.00
H1399  H     0.95911   0.70798   0.82178   0.00000  Uiso   1.00
H1400  H     0.54023   0.95783   0.85675   0.00000  Uiso   1.00
H1401  H     0.95911   0.95869   0.84485   0.00000  Uiso   1.00
H1402  H     0.54023   0.70882   0.80988   0.00000  Uiso   1.00
C1403  C     0.75003   0.73928   0.83319   0.00000  Uiso   1.00
C1404  C     0.75003   0.92739   0.83348   0.00000  Uiso   1.00
O1405  O     0.68393   0.83333   0.87896   0.00000  Uiso   1.00
O1406  O     0.81608   0.83333   0.78770   0.00000  Uiso   1.00
O1407  O     0.81608   0.83333   0.87896   0.00000  Uiso   1.00
O1408  O     0.68393   0.83333   0.78770   0.00000  Uiso   1.00
C1409  C     0.66317   0.83332   0.83333   0.00000  Uiso   1.00
C1410  C     0.83680   0.83334   0.83333   0.00000  Uiso   1.00
Zn1411 Zn    0.75000   0.83333   0.89426   0.00000  Uiso   1.00
Zn1412 Zn    0.75000   0.83333   0.77241   0.00000  Uiso   1.00
N1413  N     0.75000   0.83333   0.69121   0.00000  Uiso   1.00
N1414  N     0.75000   0.83333   0.97545   0.00000  Uiso   1.00
C1415  C     0.90749   0.87834   0.82573   0.00000  Uiso   1.00
C1416  C     0.59252   0.79074   0.81451   0.00000  Uiso   1.00
C1417  C     0.90749   0.78834   0.84091   0.00000  Uiso   1.00
C1418  C     0.59252   0.87591   0.85213   0.00000  Uiso   1.00
C1419  C     0.88450   0.83334   0.83333   0.00000  Uiso   1.00
C1420  C     0.61542   0.83332   0.83333   0.00000  Uiso   1.00
C1421  C     0.95347   0.78779   0.83194   0.00000  Uiso   1.00
C1422  C     0.54640   0.87796   0.84454   0.00000  Uiso   1.00
C1423  C     0.95347   0.87888   0.83468   0.00000  Uiso   1.00
C1424  C     0.54640   0.78869   0.82208   0.00000  Uiso   1.00
C1425  C     0.97673   0.83333   0.83331   0.00000  Uiso   1.00
C1426  C     0.52322   0.83333   0.83331   0.00000  Uiso   1.00
C1427  C     0.97675   0.74303   0.82426   0.00000  Uiso   1.00
C1428  C     0.52292   0.92303   0.84919   0.00000  Uiso   1.00
C1429  C     0.97675   0.92364   0.84237   0.00000  Uiso   1.00
C1430  C     0.52292   0.74363   0.81743   0.00000  Uiso   1.00
C1431  C     0.75006   0.68837   0.83312   0.00000  Uiso   1.00
C1432  C     0.75006   0.97830   0.83354   0.00000  Uiso   1.00
O1433  O     0.88546   0.92155   0.81048   0.00000  Uiso   1.00
C1434  C     0.87943   0.92143   0.75223   0.00000  Uiso   1.00
H1435  H     0.85335   0.94952   0.74253   0.00000  Uiso   1.00
H1436  H     0.86674   0.88522   0.73620   0.00000  Uiso   1.00
C1437  C     0.92243   0.93506   0.72087   0.00000  Uiso   1.00
H1438  H     0.93348   0.97293   0.73341   0.00000  Uiso   1.00
H1439  H     0.94966   0.90848   0.73057   0.00000  Uiso   1.00
C1440  C     0.91507   0.93274   0.99184   0.00000  Uiso   1.00
H1441  H     0.90644   0.89418   0.97873   0.00000  Uiso   1.00
H1442  H     0.94632   0.94379   0.97034   0.00000  Uiso   1.00
H1443  H     0.88758   0.95810   0.97944   0.00000  Uiso   1.00
O1444  O     0.61527   0.75026   0.79226   0.00000  Uiso   1.00
C1445  C     0.62161   0.75740   0.73471   0.00000  Uiso   1.00
H1446  H     0.65171   0.73574   0.72226   0.00000  Uiso   1.00
H1447  H     0.62849   0.79687   0.72373   0.00000  Uiso   1.00
C1448  C     0.58145   0.73869   0.70086   0.00000  Uiso   1.00
H1449  H     0.57380   0.69961   0.71199   0.00000  Uiso   1.00
H1450  H     0.55162   0.76201   0.71002   0.00000  Uiso   1.00
C1451  C     0.59076   0.74154   0.97229   0.00000  Uiso   1.00
H1452  H     0.59821   0.78050   0.96025   0.00000  Uiso   1.00
H1453  H     0.56083   0.72874   0.94894   0.00000  Uiso   1.00
H1454  H     0.61960   0.71737   0.96102   0.00000  Uiso   1.00
O1455  O     0.88547   0.74513   0.85618   0.00000  Uiso   1.00
C1456  C     0.87945   0.74526   0.91443   0.00000  Uiso   1.00
H1457  H     0.85336   0.71720   0.92415   0.00000  Uiso   1.00
H1458  H     0.86679   0.78149   0.93047   0.00000  Uiso   1.00
C1459  C     0.92245   0.73159   0.94577   0.00000  Uiso   1.00
H1460  H     0.93348   0.69372   0.93322   0.00000  Uiso   1.00
H1461  H     0.94969   0.75815   0.93605   0.00000  Uiso   1.00
C1462  C     0.91512   0.73393   0.67481   0.00000  Uiso   1.00
H1463  H     0.90651   0.77249   0.68792   0.00000  Uiso   1.00
H1464  H     0.94636   0.72285   0.69629   0.00000  Uiso   1.00
H1465  H     0.88761   0.70860   0.68722   0.00000  Uiso   1.00
O1466  O     0.61526   0.91636   0.87444   0.00000  Uiso   1.00
C1467  C     0.62155   0.90916   0.93199   0.00000  Uiso   1.00
H1468  H     0.65172   0.93069   0.94447   0.00000  Uiso   1.00
H1469  H     0.62830   0.86966   0.94296   0.00000  Uiso   1.00
C1470  C     0.58144   0.92803   0.96582   0.00000  Uiso   1.00
H1471  H     0.57398   0.96717   0.95476   0.00000  Uiso   1.00
H1472  H     0.55152   0.90491   0.95658   0.00000  Uiso   1.00
C1473  C     0.59067   0.92503   0.69440   0.00000  Uiso   1.00
H1474  H     0.59780   0.88599   0.70638   0.00000  Uiso   1.00
H1475  H     0.56083   0.93809   0.71773   0.00000  Uiso   1.00
H1476  H     0.61968   0.94889   0.70575   0.00000  Uiso   1.00
loop_
_geom_bond_atom_site_label_1
_geom_bond_atom_site_label_2
_geom_bond_distance
_geom_bond_site_symmetry_2
_ccdc_geom_bond_type
O1     C9      1.258   .     A
O1     Zn17    1.955   .     S
O2     Zn18    1.955   .     S
O2     C10     1.258   .     A
O3     C10     1.261   .     A
O3     Zn17    1.961   .     S
O4     Zn18    1.961   .     S
O4     C9      1.261   .     A
H5     C33     1.080   .     S
H6     C34     1.083   .     S
H7     C35     1.080   .     S
H8     C36     1.083   .     S
C9     C37     1.368   .     S
C10    C38     1.368   .     S
O11    C15     1.267   .     A
O11    Zn17    2.008   .     S
O12    C16     1.267   .     A
O12    Zn18    2.008   .     S
O13    Zn17    2.008   .     S
O13    C16     1.267   .     A
O14    Zn18    2.008   .     S
O14    C15     1.267   .     A
C15    C26     1.426   .     S
C16    C25     1.425   .     S
Zn17   N20     1.967   .     S
Zn18   N19     1.967   .     S
N19    N1004   1.189   1_554 S
N20    N511    1.189   .     S
C21    C29     1.391   .     A
C21    O39     1.387   .     S
C21    C25     1.404   .     A
C22    O50     1.388   .     S
C22    C30     1.391   .     A
C22    C26     1.406   .     A
C23    C27     1.391   .     A
C23    C25     1.404   .     A
C23    O61     1.387   .     S
C24    C26     1.406   .     A
C24    O72     1.387   .     S
C24    C28     1.391   .     A
C27    C33     1.400   .     A
C27    C31     1.407   .     A
C28    C34     1.403   .     A
C28    C32     1.409   .     A
C29    C35     1.400   .     A
C29    C31     1.407   .     A
C30    C36     1.403   .     A
C30    C32     1.409   .     A
C31    C114    1.389   .     S
C32    C113    1.389   1_455 S
C33    C118    1.389   .     S
C34    C117    1.389   1_455 S
C35    C116    1.389   .     S
C36    C115    1.389   1_455 S
C37    C366    1.166   1_545 S
C38    C201    1.166   .     S
O39    C40     1.423   .     S
C40    C43     1.538   .     S
C40    H42     1.111   .     S
C40    H41     1.111   .     S
C43    H44     1.110   .     S
C43    H45     1.109   .     S
C43    C1030   1.528   1_554 S
C46    H49     1.110   .     S
C46    H48     1.110   .     S
C46    H47     1.111   .     S
C46    C535    1.528   .     S
O50    C51     1.422   .     S
C51    H52     1.111   .     S
C51    H53     1.115   .     S
C51    C54     1.535   .     S
C54    H55     1.110   .     S
C54    H56     1.110   .     S
C54    C1041   1.528   1_554 S
C57    H59     1.111   .     S
C57    H60     1.111   .     S
C57    H58     1.112   .     S
C57    C546    1.528   .     S
O61    C62     1.423   .     S
C62    H64     1.111   .     S
C62    H63     1.111   .     S
C62    C65     1.538   .     S
C65    H67     1.109   .     S
C65    H66     1.110   .     S
C65    C560    1.528   .     S
C68    H69     1.111   .     S
C68    H71     1.110   .     S
C68    H70     1.110   .     S
C68    C1049   1.528   1_554 S
O72    C73     1.422   .     S
C73    H74     1.111   .     S
C73    H75     1.115   .     S
C73    C76     1.535   .     S
C76    H77     1.110   .     S
C76    H78     1.110   .     S
C76    C571    1.528   .     S
C79    H81     1.111   .     S
C79    H82     1.111   .     S
C79    H80     1.111   .     S
C79    C1060   1.528   1_554 S
O83    C91     1.258   .     A
O83    Zn99    1.955   .     S
O84    Zn100   1.955   .     S
O84    C92     1.258   .     A
O85    C92     1.261   .     A
O85    Zn99    1.961   .     S
O86    Zn100   1.961   .     S
O86    C91     1.261   .     A
H87    C115    1.080   .     S
H88    C116    1.083   .     S
H89    C117    1.080   .     S
H90    C118    1.083   .     S
C91    C119    1.368   .     S
C92    C120    1.368   .     S
O93    C97     1.267   .     A
O93    Zn99    2.008   .     S
O94    C98     1.267   .     A
O94    Zn100   2.008   .     S
O95    Zn99    2.008   .     S
O95    C98     1.267   .     A
O96    Zn100   2.008   .     S
O96    C97     1.267   .     A
C97    C108    1.426   .     S
C98    C107    1.425   .     S
Zn99   N102    1.967   .     S
Zn100  N101    1.967   .     S
N101   N1086   1.189   1_554 S
N102   N593    1.189   .     S
C103   C111    1.391   .     A
C103   O121    1.387   .     S
C103   C107    1.404   .     A
C104   O132    1.388   .     S
C104   C112    1.391   .     A
C104   C108    1.406   .     A
C105   C109    1.391   .     A
C105   C107    1.404   .     A
C105   O143    1.387   .     S
C106   C108    1.406   .     A
C106   O154    1.387   .     S
C106   C110    1.391   .     A
C109   C115    1.400   .     A
C109   C113    1.407   .     A
C110   C116    1.403   .     A
C110   C114    1.409   .     A
C111   C117    1.400   .     A
C111   C113    1.407   .     A
C112   C118    1.403   .     A
C112   C114    1.409   .     A
C113   C32     1.389   1_655 S
C115   C36     1.389   1_655 S
C117   C34     1.389   1_655 S
C119   C448    1.166   1_545 S
C120   C283    1.166   .     S
O121   C122    1.423   .     S
C122   C125    1.538   .     S
C122   H124    1.111   .     S
C122   H123    1.111   .     S
C125   H126    1.110   .     S
C125   H127    1.109   .     S
C125   C1112   1.528   1_554 S
C128   H131    1.110   .     S
C128   H130    1.110   .     S
C128   H129    1.111   .     S
C128   C617    1.528   .     S
O132   C133    1.422   .     S
C133   H134    1.111   .     S
C133   H135    1.115   .     S
C133   C136    1.535   .     S
C136   H137    1.110   .     S
C136   H138    1.110   .     S
C136   C1123   1.528   1_554 S
C139   H141    1.111   .     S
C139   H142    1.111   .     S
C139   H140    1.112   .     S
C139   C628    1.528   .     S
O143   C144    1.423   .     S
C144   H146    1.111   .     S
C144   H145    1.111   .     S
C144   C147    1.538   .     S
C147   H149    1.109   .     S
C147   H148    1.110   .     S
C147   C642    1.528   .     S
C150   H151    1.111   .     S
C150   H153    1.110   .     S
C150   H152    1.110   .     S
C150   C1131   1.528   1_554 S
O154   C155    1.422   .     S
C155   H156    1.111   .     S
C155   H157    1.115   .     S
C155   C158    1.535   .     S
C158   H159    1.110   .     S
C158   H160    1.110   .     S
C158   C653    1.528   .     S
C161   H163    1.111   .     S
C161   H164    1.111   .     S
C161   H162    1.111   .     S
C161   C1142   1.528   1_554 S
O165   C173    1.258   .     A
O165   Zn181   1.955   .     S
O166   Zn182   1.955   .     S
O166   C174    1.258   .     A
O167   C174    1.261   .     A
O167   Zn181   1.961   .     S
O168   Zn182   1.961   .     S
O168   C173    1.261   .     A
H169   C197    1.080   .     S
H170   C198    1.083   .     S
H171   C199    1.080   .     S
H172   C200    1.083   .     S
C173   C201    1.368   .     S
C174   C202    1.368   .     S
O175   C179    1.267   .     A
O175   Zn181   2.008   .     S
O176   C180    1.267   .     A
O176   Zn182   2.008   .     S
O177   Zn181   2.008   .     S
O177   C180    1.267   .     A
O178   Zn182   2.008   .     S
O178   C179    1.267   .     A
C179   C190    1.426   .     S
C180   C189    1.425   .     S
Zn181  N184    1.967   .     S
Zn182  N183    1.967   .     S
N183   N1168   1.189   1_554 S
N184   N675    1.189   .     S
C185   C193    1.391   .     A
C185   O203    1.387   .     S
C185   C189    1.404   .     A
C186   O214    1.388   .     S
C186   C194    1.391   .     A
C186   C190    1.406   .     A
C187   C191    1.391   .     A
C187   C189    1.404   .     A
C187   O225    1.387   .     S
C188   C190    1.406   .     A
C188   O236    1.387   .     S
C188   C192    1.391   .     A
C191   C197    1.400   .     A
C191   C195    1.407   .     A
C192   C198    1.403   .     A
C192   C196    1.409   .     A
C193   C199    1.400   .     A
C193   C195    1.407   .     A
C194   C200    1.403   .     A
C194   C196    1.409   .     A
C195   C278    1.389   .     S
C196   C277    1.389   1_455 S
C197   C282    1.389   .     S
C198   C281    1.389   1_455 S
C199   C280    1.389   .     S
C200   C279    1.389   1_455 S
C202   C365    1.166   .     S
O203   C204    1.423   .     S
C204   C207    1.538   .     S
C204   H206    1.111   .     S
C204   H205    1.111   .     S
C207   H208    1.110   .     S
C207   H209    1.109   .     S
C207   C1194   1.528   1_554 S
C210   H213    1.110   .     S
C210   H212    1.110   .     S
C210   H211    1.111   .     S
C210   C699    1.528   .     S
O214   C215    1.422   .     S
C215   H216    1.111   .     S
C215   H217    1.115   .     S
C215   C218    1.535   .     S
C218   H219    1.110   .     S
C218   H220    1.110   .     S
C218   C1205   1.528   1_554 S
C221   H223    1.111   .     S
C221   H224    1.111   .     S
C221   H222    1.112   .     S
C221   C710    1.528   .     S
O225   C226    1.423   .     S
C226   H228    1.111   .     S
C226   H227    1.111   .     S
C226   C229    1.538   .     S
C229   H231    1.109   .     S
C229   H230    1.110   .     S
C229   C724    1.528   .     S
C232   H233    1.111   .     S
C232   H235    1.110   .     S
C232   H234    1.110   .     S
C232   C1213   1.528   1_554 S
O236   C237    1.422   .     S
C237   H238    1.111   .     S
C237   H239    1.115   .     S
C237   C240    1.535   .     S
C240   H241    1.110   .     S
C240   H242    1.110   .     S
C240   C735    1.528   .     S
C243   H245    1.111   .     S
C243   H246    1.111   .     S
C243   H244    1.111   .     S
C243   C1224   1.528   1_554 S
O247   C255    1.258   .     A
O247   Zn263   1.955   .     S
O248   Zn264   1.955   .     S
O248   C256    1.258   .     A
O249   C256    1.261   .     A
O249   Zn263   1.961   .     S
O250   Zn264   1.961   .     S
O250   C255    1.261   .     A
H251   C279    1.080   .     S
H252   C280    1.083   .     S
H253   C281    1.080   .     S
H254   C282    1.083   .     S
C255   C283    1.368   .     S
C256   C284    1.368   .     S
O257   C261    1.267   .     A
O257   Zn263   2.008   .     S
O258   C262    1.267   .     A
O258   Zn264   2.008   .     S
O259   Zn263   2.008   .     S
O259   C262    1.267   .     A
O260   Zn264   2.008   .     S
O260   C261    1.267   .     A
C261   C272    1.426   .     S
C262   C271    1.425   .     S
Zn263  N266    1.967   .     S
Zn264  N265    1.967   .     S
N265   N1250   1.189   1_554 S
N266   N757    1.189   .     S
C267   C275    1.391   .     A
C267   O285    1.387   .     S
C267   C271    1.404   .     A
C268   O296    1.388   .     S
C268   C276    1.391   .     A
C268   C272    1.406   .     A
C269   C273    1.391   .     A
C269   C271    1.404   .     A
C269   O307    1.387   .     S
C270   C272    1.406   .     A
C270   O318    1.387   .     S
C270   C274    1.391   .     A
C273   C279    1.400   .     A
C273   C277    1.407   .     A
C274   C280    1.403   .     A
C274   C278    1.409   .     A
C275   C281    1.400   .     A
C275   C277    1.407   .     A
C276   C282    1.403   .     A
C276   C278    1.409   .     A
C277   C196    1.389   1_655 S
C279   C200    1.389   1_655 S
C281   C198    1.389   1_655 S
C284   C447    1.166   .     S
O285   C286    1.423   .     S
C286   C289    1.538   .     S
C286   H288    1.111   .     S
C286   H287    1.111   .     S
C289   H290    1.110   .     S
C289   H291    1.109   .     S
C289   C1276   1.528   1_554 S
C292   H295    1.110   .     S
C292   H294    1.110   .     S
C292   H293    1.111   .     S
C292   C781    1.528   .     S
O296   C297    1.422   .     S
C297   H298    1.111   .     S
C297   H299    1.115   .     S
C297   C300    1.535   .     S
C300   H301    1.110   .     S
C300   H302    1.110   .     S
C300   C1287   1.528   1_554 S
C303   H305    1.111   .     S
C303   H306    1.111   .     S
C303   H304    1.112   .     S
C303   C792    1.528   .     S
O307   C308    1.423   .     S
C308   H310    1.111   .     S
C308   H309    1.111   .     S
C308   C311    1.538   .     S
C311   H313    1.109   .     S
C311   H312    1.110   .     S
C311   C806    1.528   .     S
C314   H315    1.111   .     S
C314   H317    1.110   .     S
C314   H316    1.110   .     S
C314   C1295   1.528   1_554 S
O318   C319    1.422   .     S
C319   H320    1.111   .     S
C319   H321    1.115   .     S
C319   C322    1.535   .     S
C322   H323    1.110   .     S
C322   H324    1.110   .     S
C322   C817    1.528   .     S
C325   H327    1.111   .     S
C325   H328    1.111   .     S
C325   H326    1.111   .     S
C325   C1306   1.528   1_554 S
O329   C337    1.258   .     A
O329   Zn345   1.955   .     S
O330   Zn346   1.955   .     S
O330   C338    1.258   .     A
O331   C338    1.261   .     A
O331   Zn345   1.961   .     S
O332   Zn346   1.961   .     S
O332   C337    1.261   .     A
H333   C361    1.080   .     S
H334   C362    1.083   .     S
H335   C363    1.080   .     S
H336   C364    1.083   .     S
C337   C365    1.368   .     S
C338   C366    1.368   .     S
O339   C343    1.267   .     A
O339   Zn345   2.008   .     S
O340   C344    1.267   .     A
O340   Zn346   2.008   .     S
O341   Zn345   2.008   .     S
O341   C344    1.267   .     A
O342   Zn346   2.008   .     S
O342   C343    1.267   .     A
C343   C354    1.426   .     S
C344   C353    1.425   .     S
Zn345  N348    1.967   .     S
Zn346  N347    1.967   .     S
N347   N1332   1.189   1_554 S
N348   N839    1.189   .     S
C349   C357    1.391   .     A
C349   O367    1.387   .     S
C349   C353    1.404   .     A
C350   O378    1.388   .     S
C350   C358    1.391   .     A
C350   C354    1.406   .     A
C351   C355    1.391   .     A
C351   C353    1.404   .     A
C351   O389    1.387   .     S
C352   C354    1.406   .     A
C352   O400    1.387   .     S
C352   C356    1.391   .     A
C355   C361    1.400   .     A
C355   C359    1.407   .     A
C356   C362    1.403   .     A
C356   C360    1.409   .     A
C357   C363    1.400   .     A
C357   C359    1.407   .     A
C358   C364    1.403   .     A
C358   C360    1.409   .     A
C359   C442    1.389   .     S
C360   C441    1.389   1_455 S
C361   C446    1.389   .     S
C362   C445    1.389   1_455 S
C363   C444    1.389   .     S
C364   C443    1.389   1_455 S
C366   C37     1.166   1_565 S
O367   C368    1.423   .     S
C368   C371    1.538   .     S
C368   H370    1.111   .     S
C368   H369    1.111   .     S
C371   H372    1.110   .     S
C371   H373    1.109   .     S
C371   C1358   1.528   1_554 S
C374   H377    1.110   .     S
C374   H376    1.110   .     S
C374   H375    1.111   .     S
C374   C863    1.528   .     S
O378   C379    1.422   .     S
C379   H380    1.111   .     S
C379   H381    1.115   .     S
C379   C382    1.535   .     S
C382   H383    1.110   .     S
C382   H384    1.110   .     S
C382   C1369   1.528   1_554 S
C385   H387    1.111   .     S
C385   H388    1.111   .     S
C385   H386    1.112   .     S
C385   C874    1.528   .     S
O389   C390    1.423   .     S
C390   H392    1.111   .     S
C390   H391    1.111   .     S
C390   C393    1.538   .     S
C393   H395    1.109   .     S
C393   H394    1.110   .     S
C393   C888    1.528   .     S
C396   H397    1.111   .     S
C396   H399    1.110   .     S
C396   H398    1.110   .     S
C396   C1377   1.528   1_554 S
O400   C401    1.422   .     S
C401   H402    1.111   .     S
C401   H403    1.115   .     S
C401   C404    1.535   .     S
C404   H405    1.110   .     S
C404   H406    1.110   .     S
C404   C899    1.528   .     S
C407   H409    1.111   .     S
C407   H410    1.111   .     S
C407   H408    1.111   .     S
C407   C1388   1.528   1_554 S
O411   C419    1.258   .     A
O411   Zn427   1.955   .     S
O412   Zn428   1.955   .     S
O412   C420    1.258   .     A
O413   C420    1.261   .     A
O413   Zn427   1.961   .     S
O414   Zn428   1.961   .     S
O414   C419    1.261   .     A
H415   C443    1.080   .     S
H416   C444    1.083   .     S
H417   C445    1.080   .     S
H418   C446    1.083   .     S
C419   C447    1.368   .     S
C420   C448    1.368   .     S
O421   C425    1.267   .     A
O421   Zn427   2.008   .     S
O422   C426    1.267   .     A
O422   Zn428   2.008   .     S
O423   Zn427   2.008   .     S
O423   C426    1.267   .     A
O424   Zn428   2.008   .     S
O424   C425    1.267   .     A
C425   C436    1.426   .     S
C426   C435    1.425   .     S
Zn427  N430    1.967   .     S
Zn428  N429    1.967   .     S
N429   N1414   1.189   1_554 S
N430   N921    1.189   .     S
C431   C439    1.391   .     A
C431   O449    1.387   .     S
C431   C435    1.404   .     A
C432   O460    1.388   .     S
C432   C440    1.391   .     A
C432   C436    1.406   .     A
C433   C437    1.391   .     A
C433   C435    1.404   .     A
C433   O471    1.387   .     S
C434   C436    1.406   .     A
C434   O482    1.387   .     S
C434   C438    1.391   .     A
C437   C443    1.400   .     A
C437   C441    1.407   .     A
C438   C444    1.403   .     A
C438   C442    1.409   .     A
C439   C445    1.400   .     A
C439   C441    1.407   .     A
C440   C446    1.403   .     A
C440   C442    1.409   .     A
C441   C360    1.389   1_655 S
C443   C364    1.389   1_655 S
C445   C362    1.389   1_655 S
C448   C119    1.166   1_565 S
O449   C450    1.423   .     S
C450   C453    1.538   .     S
C450   H452    1.111   .     S
C450   H451    1.111   .     S
C453   H454    1.110   .     S
C453   H455    1.109   .     S
C453   C1440   1.528   1_554 S
C456   H459    1.110   .     S
C456   H458    1.110   .     S
C456   H457    1.111   .     S
C456   C945    1.528   .     S
O460   C461    1.422   .     S
C461   H462    1.111   .     S
C461   H463    1.115   .     S
C461   C464    1.535   .     S
C464   H465    1.110   .     S
C464   H466    1.110   .     S
C464   C1451   1.528   1_554 S
C467   H469    1.111   .     S
C467   H470    1.111   .     S
C467   H468    1.112   .     S
C467   C956    1.528   .     S
O471   C472    1.423   .     S
C472   H474    1.111   .     S
C472   H473    1.111   .     S
C472   C475    1.538   .     S
C475   H477    1.109   .     S
C475   H476    1.110   .     S
C475   C970    1.528   .     S
C478   H479    1.111   .     S
C478   H481    1.110   .     S
C478   H480    1.110   .     S
C478   C1459   1.528   1_554 S
O482   C483    1.422   .     S
C483   H484    1.111   .     S
C483   H485    1.115   .     S
C483   C486    1.535   .     S
C486   H487    1.110   .     S
C486   H488    1.110   .     S
C486   C981    1.528   .     S
C489   H491    1.111   .     S
C489   H492    1.111   .     S
C489   H490    1.111   .     S
C489   C1470   1.528   1_554 S
O493   C501    1.258   .     A
O493   Zn509   1.955   .     S
O494   Zn510   1.955   .     S
O494   C502    1.258   .     A
O495   C502    1.261   .     A
O495   Zn509   1.961   .     S
O496   Zn510   1.961   .     S
O496   C501    1.261   .     A
H497   C525    1.080   .     S
H498   C526    1.083   .     S
H499   C527    1.080   .     S
H500   C528    1.083   .     S
C501   C529    1.368   .     S
C502   C530    1.368   .     S
O503   C507    1.267   .     A
O503   Zn509   2.008   .     S
O504   C508    1.267   .     A
O504   Zn510   2.008   .     S
O505   Zn509   2.008   .     S
O505   C508    1.267   .     A
O506   Zn510   2.008   .     S
O506   C507    1.267   .     A
C507   C518    1.426   .     S
C508   C517    1.425   .     S
Zn509  N512    1.967   .     S
Zn510  N511    1.967   .     S
N512   N1003   1.189   .     S
C513   C521    1.391   .     A
C513   O531    1.387   .     S
C513   C517    1.404   .     A
C514   O542    1.388   .     S
C514   C522    1.391   .     A
C514   C518    1.406   .     A
C515   C519    1.391   .     A
C515   C517    1.404   .     A
C515   O553    1.387   .     S
C516   C518    1.406   .     A
C516   O564    1.387   .     S
C516   C520    1.391   .     A
C519   C525    1.400   .     A
C519   C523    1.407   .     A
C520   C526    1.403   .     A
C520   C524    1.409   .     A
C521   C527    1.400   .     A
C521   C523    1.407   .     A
C522   C528    1.403   .     A
C522   C524    1.409   .     A
C523   C606    1.389   .     S
C524   C605    1.389   1_455 S
C525   C610    1.389   .     S
C526   C609    1.389   1_455 S
C527   C608    1.389   .     S
C528   C607    1.389   1_455 S
C529   C858    1.166   1_545 S
C530   C693    1.166   .     S
O531   C532    1.423   .     S
C532   C535    1.538   .     S
C532   H534    1.111   .     S
C532   H533    1.111   .     S
C535   H536    1.110   .     S
C535   H537    1.109   .     S
C538   H541    1.110   .     S
C538   H540    1.110   .     S
C538   H539    1.111   .     S
C538   C1027   1.528   .     S
O542   C543    1.422   .     S
C543   H544    1.111   .     S
C543   H545    1.115   .     S
C543   C546    1.535   .     S
C546   H547    1.110   .     S
C546   H548    1.110   .     S
C549   H551    1.111   .     S
C549   H552    1.111   .     S
C549   H550    1.112   .     S
C549   C1038   1.528   .     S
O553   C554    1.423   .     S
C554   H556    1.111   .     S
C554   H555    1.111   .     S
C554   C557    1.538   .     S
C557   H559    1.109   .     S
C557   H558    1.110   .     S
C557   C1052   1.528   .     S
C560   H561    1.111   .     S
C560   H563    1.110   .     S
C560   H562    1.110   .     S
O564   C565    1.422   .     S
C565   H566    1.111   .     S
C565   H567    1.115   .     S
C565   C568    1.535   .     S
C568   H569    1.110   .     S
C568   H570    1.110   .     S
C568   C1063   1.528   .     S
C571   H573    1.111   .     S
C571   H574    1.111   .     S
C571   H572    1.111   .     S
O575   C583    1.258   .     A
O575   Zn591   1.955   .     S
O576   Zn592   1.955   .     S
O576   C584    1.258   .     A
O577   C584    1.261   .     A
O577   Zn591   1.961   .     S
O578   Zn592   1.961   .     S
O578   C583    1.261   .     A
H579   C607    1.080   .     S
H580   C608    1.083   .     S
H581   C609    1.080   .     S
H582   C610    1.083   .     S
C583   C611    1.368   .     S
C584   C612    1.368   .     S
O585   C589    1.267   .     A
O585   Zn591   2.008   .     S
O586   C590    1.267   .     A
O586   Zn592   2.008   .     S
O587   Zn591   2.008   .     S
O587   C590    1.267   .     A
O588   Zn592   2.008   .     S
O588   C589    1.267   .     A
C589   C600    1.426   .     S
C590   C599    1.425   .     S
Zn591  N594    1.967   .     S
Zn592  N593    1.967   .     S
N594   N1085   1.189   .     S
C595   C603    1.391   .     A
C595   O613    1.387   .     S
C595   C599    1.404   .     A
C596   O624    1.388   .     S
C596   C604    1.391   .     A
C596   C600    1.406   .     A
C597   C601    1.391   .     A
C597   C599    1.404   .     A
C597   O635    1.387   .     S
C598   C600    1.406   .     A
C598   O646    1.387   .     S
C598   C602    1.391   .     A
C601   C607    1.400   .     A
C601   C605    1.407   .     A
C602   C608    1.403   .     A
C602   C606    1.409   .     A
C603   C609    1.400   .     A
C603   C605    1.407   .     A
C604   C610    1.403   .     A
C604   C606    1.409   .     A
C605   C524    1.389   1_655 S
C607   C528    1.389   1_655 S
C609   C526    1.389   1_655 S
C611   C940    1.166   1_545 S
C612   C775    1.166   .     S
O613   C614    1.423   .     S
C614   C617    1.538   .     S
C614   H616    1.111   .     S
C614   H615    1.111   .     S
C617   H618    1.110   .     S
C617   H619    1.109   .     S
C620   H623    1.110   .     S
C620   H622    1.110   .     S
C620   H621    1.111   .     S
C620   C1109   1.528   .     S
O624   C625    1.422   .     S
C625   H626    1.111   .     S
C625   H627    1.115   .     S
C625   C628    1.535   .     S
C628   H629    1.110   .     S
C628   H630    1.110   .     S
C631   H633    1.111   .     S
C631   H634    1.111   .     S
C631   H632    1.112   .     S
C631   C1120   1.528   .     S
O635   C636    1.423   .     S
C636   H638    1.111   .     S
C636   H637    1.111   .     S
C636   C639    1.538   .     S
C639   H641    1.109   .     S
C639   H640    1.110   .     S
C639   C1134   1.528   .     S
C642   H643    1.111   .     S
C642   H645    1.110   .     S
C642   H644    1.110   .     S
O646   C647    1.422   .     S
C647   H648    1.111   .     S
C647   H649    1.115   .     S
C647   C650    1.535   .     S
C650   H651    1.110   .     S
C650   H652    1.110   .     S
C650   C1145   1.528   .     S
C653   H655    1.111   .     S
C653   H656    1.111   .     S
C653   H654    1.111   .     S
O657   C665    1.258   .     A
O657   Zn673   1.955   .     S
O658   Zn674   1.955   .     S
O658   C666    1.258   .     A
O659   C666    1.261   .     A
O659   Zn673   1.961   .     S
O660   Zn674   1.961   .     S
O660   C665    1.261   .     A
H661   C689    1.080   .     S
H662   C690    1.083   .     S
H663   C691    1.080   .     S
H664   C692    1.083   .     S
C665   C693    1.368   .     S
C666   C694    1.368   .     S
O667   C671    1.267   .     A
O667   Zn673   2.008   .     S
O668   C672    1.267   .     A
O668   Zn674   2.008   .     S
O669   Zn673   2.008   .     S
O669   C672    1.267   .     A
O670   Zn674   2.008   .     S
O670   C671    1.267   .     A
C671   C682    1.426   .     S
C672   C681    1.425   .     S
Zn673  N676    1.967   .     S
Zn674  N675    1.967   .     S
N676   N1167   1.189   .     S
C677   C685    1.391   .     A
C677   O695    1.387   .     S
C677   C681    1.404   .     A
C678   O706    1.388   .     S
C678   C686    1.391   .     A
C678   C682    1.406   .     A
C679   C683    1.391   .     A
C679   C681    1.404   .     A
C679   O717    1.387   .     S
C680   C682    1.406   .     A
C680   O728    1.387   .     S
C680   C684    1.391   .     A
C683   C689    1.400   .     A
C683   C687    1.407   .     A
C684   C690    1.403   .     A
C684   C688    1.409   .     A
C685   C691    1.400   .     A
C685   C687    1.407   .     A
C686   C692    1.403   .     A
C686   C688    1.409   .     A
C687   C770    1.389   .     S
C688   C769    1.389   1_455 S
C689   C774    1.389   .     S
C690   C773    1.389   1_455 S
C691   C772    1.389   .     S
C692   C771    1.389   1_455 S
C694   C857    1.166   .     S
O695   C696    1.423   .     S
C696   C699    1.538   .     S
C696   H698    1.111   .     S
C696   H697    1.111   .     S
C699   H700    1.110   .     S
C699   H701    1.109   .     S
C702   H705    1.110   .     S
C702   H704    1.110   .     S
C702   H703    1.111   .     S
C702   C1191   1.528   .     S
O706   C707    1.422   .     S
C707   H708    1.111   .     S
C707   H709    1.115   .     S
C707   C710    1.535   .     S
C710   H711    1.110   .     S
C710   H712    1.110   .     S
C713   H715    1.111   .     S
C713   H716    1.111   .     S
C713   H714    1.112   .     S
C713   C1202   1.528   .     S
O717   C718    1.423   .     S
C718   H720    1.111   .     S
C718   H719    1.111   .     S
C718   C721    1.538   .     S
C721   H723    1.109   .     S
C721   H722    1.110   .     S
C721   C1216   1.528   .     S
C724   H725    1.111   .     S
C724   H727    1.110   .     S
C724   H726    1.110   .     S
O728   C729    1.422   .     S
C729   H730    1.111   .     S
C729   H731    1.115   .     S
C729   C732    1.535   .     S
C732   H733    1.110   .     S
C732   H734    1.110   .     S
C732   C1227   1.528   .     S
C735   H737    1.111   .     S
C735   H738    1.111   .     S
C735   H736    1.111   .     S
O739   C747    1.258   .     A
O739   Zn755   1.955   .     S
O740   Zn756   1.955   .     S
O740   C748    1.258   .     A
O741   C748    1.261   .     A
O741   Zn755   1.961   .     S
O742   Zn756   1.961   .     S
O742   C747    1.261   .     A
H743   C771    1.080   .     S
H744   C772    1.083   .     S
H745   C773    1.080   .     S
H746   C774    1.083   .     S
C747   C775    1.368   .     S
C748   C776    1.368   .     S
O749   C753    1.267   .     A
O749   Zn755   2.008   .     S
O750   C754    1.267   .     A
O750   Zn756   2.008   .     S
O751   Zn755   2.008   .     S
O751   C754    1.267   .     A
O752   Zn756   2.008   .     S
O752   C753    1.267   .     A
C753   C764    1.426   .     S
C754   C763    1.425   .     S
Zn755  N758    1.967   .     S
Zn756  N757    1.967   .     S
N758   N1249   1.189   .     S
C759   C767    1.391   .     A
C759   O777    1.387   .     S
C759   C763    1.404   .     A
C760   O788    1.388   .     S
C760   C768    1.391   .     A
C760   C764    1.406   .     A
C761   C765    1.391   .     A
C761   C763    1.404   .     A
C761   O799    1.387   .     S
C762   C764    1.406   .     A
C762   O810    1.387   .     S
C762   C766    1.391   .     A
C765   C771    1.400   .     A
C765   C769    1.407   .     A
C766   C772    1.403   .     A
C766   C770    1.409   .     A
C767   C773    1.400   .     A
C767   C769    1.407   .     A
C768   C774    1.403   .     A
C768   C770    1.409   .     A
C769   C688    1.389   1_655 S
C771   C692    1.389   1_655 S
C773   C690    1.389   1_655 S
C776   C939    1.166   .     S
O777   C778    1.423   .     S
C778   C781    1.538   .     S
C778   H780    1.111   .     S
C778   H779    1.111   .     S
C781   H782    1.110   .     S
C781   H783    1.109   .     S
C784   H787    1.110   .     S
C784   H786    1.110   .     S
C784   H785    1.111   .     S
C784   C1273   1.528   .     S
O788   C789    1.422   .     S
C789   H790    1.111   .     S
C789   H791    1.115   .     S
C789   C792    1.535   .     S
C792   H793    1.110   .     S
C792   H794    1.110   .     S
C795   H797    1.111   .     S
C795   H798    1.111   .     S
C795   H796    1.112   .     S
C795   C1284   1.528   .     S
O799   C800    1.423   .     S
C800   H802    1.111   .     S
C800   H801    1.111   .     S
C800   C803    1.538   .     S
C803   H805    1.109   .     S
C803   H804    1.110   .     S
C803   C1298   1.528   .     S
C806   H807    1.111   .     S
C806   H809    1.110   .     S
C806   H808    1.110   .     S
O810   C811    1.422   .     S
C811   H812    1.111   .     S
C811   H813    1.115   .     S
C811   C814    1.535   .     S
C814   H815    1.110   .     S
C814   H816    1.110   .     S
C814   C1309   1.528   .     S
C817   H819    1.111   .     S
C817   H820    1.111   .     S
C817   H818    1.111   .     S
O821   C829    1.258   .     A
O821   Zn837   1.955   .     S
O822   Zn838   1.955   .     S
O822   C830    1.258   .     A
O823   C830    1.261   .     A
O823   Zn837   1.961   .     S
O824   Zn838   1.961   .     S
O824   C829    1.261   .     A
H825   C853    1.080   .     S
H826   C854    1.083   .     S
H827   C855    1.080   .     S
H828   C856    1.083   .     S
C829   C857    1.368   .     S
C830   C858    1.368   .     S
O831   C835    1.267   .     A
O831   Zn837   2.008   .     S
O832   C836    1.267   .     A
O832   Zn838   2.008   .     S
O833   Zn837   2.008   .     S
O833   C836    1.267   .     A
O834   Zn838   2.008   .     S
O834   C835    1.267   .     A
C835   C846    1.426   .     S
C836   C845    1.425   .     S
Zn837  N840    1.967   .     S
Zn838  N839    1.967   .     S
N840   N1331   1.189   .     S
C841   C849    1.391   .     A
C841   O859    1.387   .     S
C841   C845    1.404   .     A
C842   O870    1.388   .     S
C842   C850    1.391   .     A
C842   C846    1.406   .     A
C843   C847    1.391   .     A
C843   C845    1.404   .     A
C843   O881    1.387   .     S
C844   C846    1.406   .     A
C844   O892    1.387   .     S
C844   C848    1.391   .     A
C847   C853    1.400   .     A
C847   C851    1.407   .     A
C848   C854    1.403   .     A
C848   C852    1.409   .     A
C849   C855    1.400   .     A
C849   C851    1.407   .     A
C850   C856    1.403   .     A
C850   C852    1.409   .     A
C851   C934    1.389   .     S
C852   C933    1.389   1_455 S
C853   C938    1.389   .     S
C854   C937    1.389   1_455 S
C855   C936    1.389   .     S
C856   C935    1.389   1_455 S
C858   C529    1.166   1_565 S
O859   C860    1.423   .     S
C860   C863    1.538   .     S
C860   H862    1.111   .     S
C860   H861    1.111   .     S
C863   H864    1.110   .     S
C863   H865    1.109   .     S
C866   H869    1.110   .     S
C866   H868    1.110   .     S
C866   H867    1.111   .     S
C866   C1355   1.528   .     S
O870   C871    1.422   .     S
C871   H872    1.111   .     S
C871   H873    1.115   .     S
C871   C874    1.535   .     S
C874   H875    1.110   .     S
C874   H876    1.110   .     S
C877   H879    1.111   .     S
C877   H880    1.111   .     S
C877   H878    1.112   .     S
C877   C1366   1.528   .     S
O881   C882    1.423   .     S
C882   H884    1.111   .     S
C882   H883    1.111   .     S
C882   C885    1.538   .     S
C885   H887    1.109   .     S
C885   H886    1.110   .     S
C885   C1380   1.528   .     S
C888   H889    1.111   .     S
C888   H891    1.110   .     S
C888   H890    1.110   .     S
O892   C893    1.422   .     S
C893   H894    1.111   .     S
C893   H895    1.115   .     S
C893   C896    1.535   .     S
C896   H897    1.110   .     S
C896   H898    1.110   .     S
C896   C1391   1.528   .     S
C899   H901    1.111   .     S
C899   H902    1.111   .     S
C899   H900    1.111   .     S
O903   C911    1.258   .     A
O903   Zn919   1.955   .     S
O904   Zn920   1.955   .     S
O904   C912    1.258   .     A
O905   C912    1.261   .     A
O905   Zn919   1.961   .     S
O906   Zn920   1.961   .     S
O906   C911    1.261   .     A
H907   C935    1.080   .     S
H908   C936    1.083   .     S
H909   C937    1.080   .     S
H910   C938    1.083   .     S
C911   C939    1.368   .     S
C912   C940    1.368   .     S
O913   C917    1.267   .     A
O913   Zn919   2.008   .     S
O914   C918    1.267   .     A
O914   Zn920   2.008   .     S
O915   Zn919   2.008   .     S
O915   C918    1.267   .     A
O916   Zn920   2.008   .     S
O916   C917    1.267   .     A
C917   C928    1.426   .     S
C918   C927    1.425   .     S
Zn919  N922    1.967   .     S
Zn920  N921    1.967   .     S
N922   N1413   1.189   .     S
C923   C931    1.391   .     A
C923   O941    1.387   .     S
C923   C927    1.404   .     A
C924   O952    1.388   .     S
C924   C932    1.391   .     A
C924   C928    1.406   .     A
C925   C929    1.391   .     A
C925   C927    1.404   .     A
C925   O963    1.387   .     S
C926   C928    1.406   .     A
C926   O974    1.387   .     S
C926   C930    1.391   .     A
C929   C935    1.400   .     A
C929   C933    1.407   .     A
C930   C936    1.403   .     A
C930   C934    1.409   .     A
C931   C937    1.400   .     A
C931   C933    1.407   .     A
C932   C938    1.403   .     A
C932   C934    1.409   .     A
C933   C852    1.389   1_655 S
C935   C856    1.389   1_655 S
C937   C854    1.389   1_655 S
C940   C611    1.166   1_565 S
O941   C942    1.423   .     S
C942   C945    1.538   .     S
C942   H944    1.111   .     S
C942   H943    1.111   .     S
C945   H946    1.110   .     S
C945   H947    1.109   .     S
C948   H951    1.110   .     S
C948   H950    1.110   .     S
C948   H949    1.111   .     S
C948   C1437   1.528   .     S
O952   C953    1.422   .     S
C953   H954    1.111   .     S
C953   H955    1.115   .     S
C953   C956    1.535   .     S
C956   H957    1.110   .     S
C956   H958    1.110   .     S
C959   H961    1.111   .     S
C959   H962    1.111   .     S
C959   H960    1.112   .     S
C959   C1448   1.528   .     S
O963   C964    1.423   .     S
C964   H966    1.111   .     S
C964   H965    1.111   .     S
C964   C967    1.538   .     S
C967   H969    1.109   .     S
C967   H968    1.110   .     S
C967   C1462   1.528   .     S
C970   H971    1.111   .     S
C970   H973    1.110   .     S
C970   H972    1.110   .     S
O974   C975    1.422   .     S
C975   H976    1.111   .     S
C975   H977    1.115   .     S
C975   C978    1.535   .     S
C978   H979    1.110   .     S
C978   H980    1.110   .     S
C978   C1473   1.528   .     S
C981   H983    1.111   .     S
C981   H984    1.111   .     S
C981   H982    1.111   .     S
O985   C993    1.258   .     A
O985   Zn1001  1.955   .     S
O986   Zn1002  1.955   .     S
O986   C994    1.258   .     A
O987   C994    1.261   .     A
O987   Zn1001  1.961   .     S
O988   Zn1002  1.961   .     S
O988   C993    1.261   .     A
H989   C1017   1.080   .     S
H990   C1018   1.083   .     S
H991   C1019   1.080   .     S
H992   C1020   1.083   .     S
C993   C1021   1.368   .     S
C994   C1022   1.368   .     S
O995   C999    1.267   .     A
O995   Zn1001  2.008   .     S
O996   C1000   1.267   .     A
O996   Zn1002  2.008   .     S
O997   Zn1001  2.008   .     S
O997   C1000   1.267   .     A
O998   Zn1002  2.008   .     S
O998   C999    1.267   .     A
C999   C1010   1.426   .     S
C1000  C1009   1.425   .     S
Zn1001 N1004   1.967   .     S
Zn1002 N1003   1.967   .     S
N1004  N19     1.189   1_556 S
C1005  C1013   1.391   .     A
C1005  O1023   1.387   .     S
C1005  C1009   1.404   .     A
C1006  O1034   1.388   .     S
C1006  C1014   1.391   .     A
C1006  C1010   1.406   .     A
C1007  C1011   1.391   .     A
C1007  C1009   1.404   .     A
C1007  O1045   1.387   .     S
C1008  C1010   1.406   .     A
C1008  O1056   1.387   .     S
C1008  C1012   1.391   .     A
C1011  C1017   1.400   .     A
C1011  C1015   1.407   .     A
C1012  C1018   1.403   .     A
C1012  C1016   1.409   .     A
C1013  C1019   1.400   .     A
C1013  C1015   1.407   .     A
C1014  C1020   1.403   .     A
C1014  C1016   1.409   .     A
C1015  C1098   1.389   .     S
C1016  C1097   1.389   1_455 S
C1017  C1102   1.389   .     S
C1018  C1101   1.389   1_455 S
C1019  C1100   1.389   .     S
C1020  C1099   1.389   1_455 S
C1021  C1350   1.166   1_545 S
C1022  C1185   1.166   .     S
O1023  C1024   1.423   .     S
C1024  C1027   1.538   .     S
C1024  H1026   1.111   .     S
C1024  H1025   1.111   .     S
C1027  H1028   1.110   .     S
C1027  H1029   1.109   .     S
C1030  H1033   1.110   .     S
C1030  H1032   1.110   .     S
C1030  H1031   1.111   .     S
C1030  C43     1.528   1_556 S
O1034  C1035   1.422   .     S
C1035  H1036   1.111   .     S
C1035  H1037   1.115   .     S
C1035  C1038   1.535   .     S
C1038  H1039   1.110   .     S
C1038  H1040   1.110   .     S
C1041  H1043   1.111   .     S
C1041  H1044   1.111   .     S
C1041  H1042   1.112   .     S
C1041  C54     1.528   1_556 S
O1045  C1046   1.423   .     S
C1046  H1048   1.111   .     S
C1046  H1047   1.111   .     S
C1046  C1049   1.538   .     S
C1049  H1051   1.109   .     S
C1049  H1050   1.110   .     S
C1049  C68     1.528   1_556 S
C1052  H1053   1.111   .     S
C1052  H1055   1.110   .     S
C1052  H1054   1.110   .     S
O1056  C1057   1.422   .     S
C1057  H1058   1.111   .     S
C1057  H1059   1.115   .     S
C1057  C1060   1.535   .     S
C1060  H1061   1.110   .     S
C1060  H1062   1.110   .     S
C1060  C79     1.528   1_556 S
C1063  H1065   1.111   .     S
C1063  H1066   1.111   .     S
C1063  H1064   1.111   .     S
O1067  C1075   1.258   .     A
O1067  Zn1083  1.955   .     S
O1068  Zn1084  1.955   .     S
O1068  C1076   1.258   .     A
O1069  C1076   1.261   .     A
O1069  Zn1083  1.961   .     S
O1070  Zn1084  1.961   .     S
O1070  C1075   1.261   .     A
H1071  C1099   1.080   .     S
H1072  C1100   1.083   .     S
H1073  C1101   1.080   .     S
H1074  C1102   1.083   .     S
C1075  C1103   1.368   .     S
C1076  C1104   1.368   .     S
O1077  C1081   1.267   .     A
O1077  Zn1083  2.008   .     S
O1078  C1082   1.267   .     A
O1078  Zn1084  2.008   .     S
O1079  Zn1083  2.008   .     S
O1079  C1082   1.267   .     A
O1080  Zn1084  2.008   .     S
O1080  C1081   1.267   .     A
C1081  C1092   1.426   .     S
C1082  C1091   1.425   .     S
Zn1083 N1086   1.967   .     S
Zn1084 N1085   1.967   .     S
N1086  N101    1.189   1_556 S
C1087  C1095   1.391   .     A
C1087  O1105   1.387   .     S
C1087  C1091   1.404   .     A
C1088  O1116   1.388   .     S
C1088  C1096   1.391   .     A
C1088  C1092   1.406   .     A
C1089  C1093   1.391   .     A
C1089  C1091   1.404   .     A
C1089  O1127   1.387   .     S
C1090  C1092   1.406   .     A
C1090  O1138   1.387   .     S
C1090  C1094   1.391   .     A
C1093  C1099   1.400   .     A
C1093  C1097   1.407   .     A
C1094  C1100   1.403   .     A
C1094  C1098   1.409   .     A
C1095  C1101   1.400   .     A
C1095  C1097   1.407   .     A
C1096  C1102   1.403   .     A
C1096  C1098   1.409   .     A
C1097  C1016   1.389   1_655 S
C1099  C1020   1.389   1_655 S
C1101  C1018   1.389   1_655 S
C1103  C1432   1.166   1_545 S
C1104  C1267   1.166   .     S
O1105  C1106   1.423   .     S
C1106  C1109   1.538   .     S
C1106  H1108   1.111   .     S
C1106  H1107   1.111   .     S
C1109  H1110   1.110   .     S
C1109  H1111   1.109   .     S
C1112  H1115   1.110   .     S
C1112  H1114   1.110   .     S
C1112  H1113   1.111   .     S
C1112  C125    1.528   1_556 S
O1116  C1117   1.422   .     S
C1117  H1118   1.111   .     S
C1117  H1119   1.115   .     S
C1117  C1120   1.535   .     S
C1120  H1121   1.110   .     S
C1120  H1122   1.110   .     S
C1123  H1125   1.111   .     S
C1123  H1126   1.111   .     S
C1123  H1124   1.112   .     S
C1123  C136    1.528   1_556 S
O1127  C1128   1.423   .     S
C1128  H1130   1.111   .     S
C1128  H1129   1.111   .     S
C1128  C1131   1.538   .     S
C1131  H1133   1.109   .     S
C1131  H1132   1.110   .     S
C1131  C150    1.528   1_556 S
C1134  H1135   1.111   .     S
C1134  H1137   1.110   .     S
C1134  H1136   1.110   .     S
O1138  C1139   1.422   .     S
C1139  H1140   1.111   .     S
C1139  H1141   1.115   .     S
C1139  C1142   1.535   .     S
C1142  H1143   1.110   .     S
C1142  H1144   1.110   .     S
C1142  C161    1.528   1_556 S
C1145  H1147   1.111   .     S
C1145  H1148   1.111   .     S
C1145  H1146   1.111   .     S
O1149  C1157   1.258   .     A
O1149  Zn1165  1.955   .     S
O1150  Zn1166  1.955   .     S
O1150  C1158   1.258   .     A
O1151  C1158   1.261   .     A
O1151  Zn1165  1.961   .     S
O1152  Zn1166  1.961   .     S
O1152  C1157   1.261   .     A
H1153  C1181   1.080   .     S
H1154  C1182   1.083   .     S
H1155  C1183   1.080   .     S
H1156  C1184   1.083   .     S
C1157  C1185   1.368   .     S
C1158  C1186   1.368   .     S
O1159  C1163   1.267   .     A
O1159  Zn1165  2.008   .     S
O1160  C1164   1.267   .     A
O1160  Zn1166  2.008   .     S
O1161  Zn1165  2.008   .     S
O1161  C1164   1.267   .     A
O1162  Zn1166  2.008   .     S
O1162  C1163   1.267   .     A
C1163  C1174   1.426   .     S
C1164  C1173   1.425   .     S
Zn1165 N1168   1.967   .     S
Zn1166 N1167   1.967   .     S
N1168  N183    1.189   1_556 S
C1169  C1177   1.391   .     A
C1169  O1187   1.387   .     S
C1169  C1173   1.404   .     A
C1170  O1198   1.388   .     S
C1170  C1178   1.391   .     A
C1170  C1174   1.406   .     A
C1171  C1175   1.391   .     A
C1171  C1173   1.404   .     A
C1171  O1209   1.387   .     S
C1172  C1174   1.406   .     A
C1172  O1220   1.387   .     S
C1172  C1176   1.391   .     A
C1175  C1181   1.400   .     A
C1175  C1179   1.407   .     A
C1176  C1182   1.403   .     A
C1176  C1180   1.409   .     A
C1177  C1183   1.400   .     A
C1177  C1179   1.407   .     A
C1178  C1184   1.403   .     A
C1178  C1180   1.409   .     A
C1179  C1262   1.389   .     S
C1180  C1261   1.389   1_455 S
C1181  C1266   1.389   .     S
C1182  C1265   1.389   1_455 S
C1183  C1264   1.389   .     S
C1184  C1263   1.389   1_455 S
C1186  C1349   1.166   .     S
O1187  C1188   1.423   .     S
C1188  C1191   1.538   .     S
C1188  H1190   1.111   .     S
C1188  H1189   1.111   .     S
C1191  H1192   1.110   .     S
C1191  H1193   1.109   .     S
C1194  H1197   1.110   .     S
C1194  H1196   1.110   .     S
C1194  H1195   1.111   .     S
C1194  C207    1.528   1_556 S
O1198  C1199   1.422   .     S
C1199  H1200   1.111   .     S
C1199  H1201   1.115   .     S
C1199  C1202   1.535   .     S
C1202  H1203   1.110   .     S
C1202  H1204   1.110   .     S
C1205  H1207   1.111   .     S
C1205  H1208   1.111   .     S
C1205  H1206   1.112   .     S
C1205  C218    1.528   1_556 S
O1209  C1210   1.423   .     S
C1210  H1212   1.111   .     S
C1210  H1211   1.111   .     S
C1210  C1213   1.538   .     S
C1213  H1215   1.109   .     S
C1213  H1214   1.110   .     S
C1213  C232    1.528   1_556 S
C1216  H1217   1.111   .     S
C1216  H1219   1.110   .     S
C1216  H1218   1.110   .     S
O1220  C1221   1.422   .     S
C1221  H1222   1.111   .     S
C1221  H1223   1.115   .     S
C1221  C1224   1.535   .     S
C1224  H1225   1.110   .     S
C1224  H1226   1.110   .     S
C1224  C243    1.528   1_556 S
C1227  H1229   1.111   .     S
C1227  H1230   1.111   .     S
C1227  H1228   1.111   .     S
O1231  C1239   1.258   .     A
O1231  Zn1247  1.955   .     S
O1232  Zn1248  1.955   .     S
O1232  C1240   1.258   .     A
O1233  C1240   1.261   .     A
O1233  Zn1247  1.961   .     S
O1234  Zn1248  1.961   .     S
O1234  C1239   1.261   .     A
H1235  C1263   1.080   .     S
H1236  C1264   1.083   .     S
H1237  C1265   1.080   .     S
H1238  C1266   1.083   .     S
C1239  C1267   1.368   .     S
C1240  C1268   1.368   .     S
O1241  C1245   1.267   .     A
O1241  Zn1247  2.008   .     S
O1242  C1246   1.267   .     A
O1242  Zn1248  2.008   .     S
O1243  Zn1247  2.008   .     S
O1243  C1246   1.267   .     A
O1244  Zn1248  2.008   .     S
O1244  C1245   1.267   .     A
C1245  C1256   1.426   .     S
C1246  C1255   1.425   .     S
Zn1247 N1250   1.967   .     S
Zn1248 N1249   1.967   .     S
N1250  N265    1.189   1_556 S
C1251  C1259   1.391   .     A
C1251  O1269   1.387   .     S
C1251  C1255   1.404   .     A
C1252  O1280   1.388   .     S
C1252  C1260   1.391   .     A
C1252  C1256   1.406   .     A
C1253  C1257   1.391   .     A
C1253  C1255   1.404   .     A
C1253  O1291   1.387   .     S
C1254  C1256   1.406   .     A
C1254  O1302   1.387   .     S
C1254  C1258   1.391   .     A
C1257  C1263   1.400   .     A
C1257  C1261   1.407   .     A
C1258  C1264   1.403   .     A
C1258  C1262   1.409   .     A
C1259  C1265   1.400   .     A
C1259  C1261   1.407   .     A
C1260  C1266   1.403   .     A
C1260  C1262   1.409   .     A
C1261  C1180   1.389   1_655 S
C1263  C1184   1.389   1_655 S
C1265  C1182   1.389   1_655 S
C1268  C1431   1.166   .     S
O1269  C1270   1.423   .     S
C1270  C1273   1.538   .     S
C1270  H1272   1.111   .     S
C1270  H1271   1.111   .     S
C1273  H1274   1.110   .     S
C1273  H1275   1.109   .     S
C1276  H1279   1.110   .     S
C1276  H1278   1.110   .     S
C1276  H1277   1.111   .     S
C1276  C289    1.528   1_556 S
O1280  C1281   1.422   .     S
C1281  H1282   1.111   .     S
C1281  H1283   1.115   .     S
C1281  C1284   1.535   .     S
C1284  H1285   1.110   .     S
C1284  H1286   1.110   .     S
C1287  H1289   1.111   .     S
C1287  H1290   1.111   .     S
C1287  H1288   1.112   .     S
C1287  C300    1.528   1_556 S
O1291  C1292   1.423   .     S
C1292  H1294   1.111   .     S
C1292  H1293   1.111   .     S
C1292  C1295   1.538   .     S
C1295  H1297   1.109   .     S
C1295  H1296   1.110   .     S
C1295  C314    1.528   1_556 S
C1298  H1299   1.111   .     S
C1298  H1301   1.110   .     S
C1298  H1300   1.110   .     S
O1302  C1303   1.422   .     S
C1303  H1304   1.111   .     S
C1303  H1305   1.115   .     S
C1303  C1306   1.535   .     S
C1306  H1307   1.110   .     S
C1306  H1308   1.110   .     S
C1306  C325    1.528   1_556 S
C1309  H1311   1.111   .     S
C1309  H1312   1.111   .     S
C1309  H1310   1.111   .     S
O1313  C1321   1.258   .     A
O1313  Zn1329  1.955   .     S
O1314  Zn1330  1.955   .     S
O1314  C1322   1.258   .     A
O1315  C1322   1.261   .     A
O1315  Zn1329  1.961   .     S
O1316  Zn1330  1.961   .     S
O1316  C1321   1.261   .     A
H1317  C1345   1.080   .     S
H1318  C1346   1.083   .     S
H1319  C1347   1.080   .     S
H1320  C1348   1.083   .     S
C1321  C1349   1.368   .     S
C1322  C1350   1.368   .     S
O1323  C1327   1.267   .     A
O1323  Zn1329  2.008   .     S
O1324  C1328   1.267   .     A
O1324  Zn1330  2.008   .     S
O1325  Zn1329  2.008   .     S
O1325  C1328   1.267   .     A
O1326  Zn1330  2.008   .     S
O1326  C1327   1.267   .     A
C1327  C1338   1.426   .     S
C1328  C1337   1.425   .     S
Zn1329 N1332   1.967   .     S
Zn1330 N1331   1.967   .     S
N1332  N347    1.189   1_556 S
C1333  C1341   1.391   .     A
C1333  O1351   1.387   .     S
C1333  C1337   1.404   .     A
C1334  O1362   1.388   .     S
C1334  C1342   1.391   .     A
C1334  C1338   1.406   .     A
C1335  C1339   1.391   .     A
C1335  C1337   1.404   .     A
C1335  O1373   1.387   .     S
C1336  C1338   1.406   .     A
C1336  O1384   1.387   .     S
C1336  C1340   1.391   .     A
C1339  C1345   1.400   .     A
C1339  C1343   1.407   .     A
C1340  C1346   1.403   .     A
C1340  C1344   1.409   .     A
C1341  C1347   1.400   .     A
C1341  C1343   1.407   .     A
C1342  C1348   1.403   .     A
C1342  C1344   1.409   .     A
C1343  C1426   1.389   .     S
C1344  C1425   1.389   1_455 S
C1345  C1430   1.389   .     S
C1346  C1429   1.389   1_455 S
C1347  C1428   1.389   .     S
C1348  C1427   1.389   1_455 S
C1350  C1021   1.166   1_565 S
O1351  C1352   1.423   .     S
C1352  C1355   1.538   .     S
C1352  H1354   1.111   .     S
C1352  H1353   1.111   .     S
C1355  H1356   1.110   .     S
C1355  H1357   1.109   .     S
C1358  H1361   1.110   .     S
C1358  H1360   1.110   .     S
C1358  H1359   1.111   .     S
C1358  C371    1.528   1_556 S
O1362  C1363   1.422   .     S
C1363  H1364   1.111   .     S
C1363  H1365   1.115   .     S
C1363  C1366   1.535   .     S
C1366  H1367   1.110   .     S
C1366  H1368   1.110   .     S
C1369  H1371   1.111   .     S
C1369  H1372   1.111   .     S
C1369  H1370   1.112   .     S
C1369  C382    1.528   1_556 S
O1373  C1374   1.423   .     S
C1374  H1376   1.111   .     S
C1374  H1375   1.111   .     S
C1374  C1377   1.538   .     S
C1377  H1379   1.109   .     S
C1377  H1378   1.110   .     S
C1377  C396    1.528   1_556 S
C1380  H1381   1.111   .     S
C1380  H1383   1.110   .     S
C1380  H1382   1.110   .     S
O1384  C1385   1.422   .     S
C1385  H1386   1.111   .     S
C1385  H1387   1.115   .     S
C1385  C1388   1.535   .     S
C1388  H1389   1.110   .     S
C1388  H1390   1.110   .     S
C1388  C407    1.528   1_556 S
C1391  H1393   1.111   .     S
C1391  H1394   1.111   .     S
C1391  H1392   1.111   .     S
O1395  C1403   1.258   .     A
O1395  Zn1411  1.955   .     S
O1396  Zn1412  1.955   .     S
O1396  C1404   1.258   .     A
O1397  C1404   1.261   .     A
O1397  Zn1411  1.961   .     S
O1398  Zn1412  1.961   .     S
O1398  C1403   1.261   .     A
H1399  C1427   1.080   .     S
H1400  C1428   1.083   .     S
H1401  C1429   1.080   .     S
H1402  C1430   1.083   .     S
C1403  C1431   1.368   .     S
C1404  C1432   1.368   .     S
O1405  C1409   1.267   .     A
O1405  Zn1411  2.008   .     S
O1406  C1410   1.267   .     A
O1406  Zn1412  2.008   .     S
O1407  Zn1411  2.008   .     S
O1407  C1410   1.267   .     A
O1408  Zn1412  2.008   .     S
O1408  C1409   1.267   .     A
C1409  C1420   1.426   .     S
C1410  C1419   1.425   .     S
Zn1411 N1414   1.967   .     S
Zn1412 N1413   1.967   .     S
N1414  N429    1.189   1_556 S
C1415  C1423   1.391   .     A
C1415  O1433   1.387   .     S
C1415  C1419   1.404   .     A
C1416  O1444   1.388   .     S
C1416  C1424   1.391   .     A
C1416  C1420   1.406   .     A
C1417  C1421   1.391   .     A
C1417  C1419   1.404   .     A
C1417  O1455   1.387   .     S
C1418  C1420   1.406   .     A
C1418  O1466   1.387   .     S
C1418  C1422   1.391   .     A
C1421  C1427   1.400   .     A
C1421  C1425   1.407   .     A
C1422  C1428   1.403   .     A
C1422  C1426   1.409   .     A
C1423  C1429   1.400   .     A
C1423  C1425   1.407   .     A
C1424  C1430   1.403   .     A
C1424  C1426   1.409   .     A
C1425  C1344   1.389   1_655 S
C1427  C1348   1.389   1_655 S
C1429  C1346   1.389   1_655 S
C1432  C1103   1.166   1_565 S
O1433  C1434   1.423   .     S
C1434  C1437   1.538   .     S
C1434  H1436   1.111   .     S
C1434  H1435   1.111   .     S
C1437  H1438   1.110   .     S
C1437  H1439   1.109   .     S
C1440  H1443   1.110   .     S
C1440  H1442   1.110   .     S
C1440  H1441   1.111   .     S
C1440  C453    1.528   1_556 S
O1444  C1445   1.422   .     S
C1445  H1446   1.111   .     S
C1445  H1447   1.115   .     S
C1445  C1448   1.535   .     S
C1448  H1449   1.110   .     S
C1448  H1450   1.110   .     S
C1451  H1453   1.111   .     S
C1451  H1454   1.111   .     S
C1451  H1452   1.112   .     S
C1451  C464    1.528   1_556 S
O1455  C1456   1.423   .     S
C1456  H1458   1.111   .     S
C1456  H1457   1.111   .     S
C1456  C1459   1.538   .     S
C1459  H1461   1.109   .     S
C1459  H1460   1.110   .     S
C1459  C478    1.528   1_556 S
C1462  H1463   1.111   .     S
C1462  H1465   1.110   .     S
C1462  H1464   1.110   .     S
O1466  C1467   1.422   .     S
C1467  H1468   1.111   .     S
C1467  H1469   1.115   .     S
C1467  C1470   1.535   .     S
C1470  H1471   1.110   .     S
C1470  H1472   1.110   .     S
C1470  C489    1.528   1_556 S
C1473  H1475   1.111   .     S
C1473  H1476   1.111   .     S
C1473  H1474   1.111   .     S
