data_str_m3_o10_o17_pcu_sym.4
_audit_creation_date              2020-01-03
_audit_creation_method            'Materials Studio'
_symmetry_space_group_name_H-M    'P1'
_symmetry_Int_Tables_number       1
_symmetry_cell_setting            triclinic
loop_
_symmetry_equiv_pos_as_xyz
  x,y,z
_cell_length_a                    23.5183
_cell_length_b                    25.9334
_cell_length_c                    29.7330
_cell_angle_alpha                 91.8007
_cell_angle_beta                  86.0398
_cell_angle_gamma                 93.2490
loop_
_atom_site_label
_atom_site_type_symbol
_atom_site_fract_x
_atom_site_fract_y
_atom_site_fract_z
_atom_site_U_iso_or_equiv
_atom_site_adp_type
_atom_site_occupancy
O1     O     0.12975   0.24619   0.25298   0.00000  Uiso   1.00
O2     O     0.20358   0.08714   0.24701   0.00000  Uiso   1.00
O3     O     0.22613   0.23721   0.24518   0.00000  Uiso   1.00
O4     O     0.10720   0.09613   0.25481   0.00000  Uiso   1.00
C5     C     0.18175   0.26457   0.25130   0.00000  Uiso   1.00
C6     C     0.15208   0.06888   0.25410   0.00000  Uiso   1.00
O7     O     0.11847   0.17117   0.31997   0.00000  Uiso   1.00
O8     O     0.21486   0.16216   0.18002   0.00000  Uiso   1.00
O9     O     0.21485   0.16219   0.31217   0.00000  Uiso   1.00
O10    O     0.11848   0.17115   0.18782   0.00000  Uiso   1.00
C11    C     0.16743   0.16730   0.33629   0.00000  Uiso   1.00
C12    C     0.16622   0.16789   0.16350   0.00000  Uiso   1.00
Zn13   Zn    0.10231   0.17266   0.25521   0.00000  Uiso   1.00
Zn14   Zn    0.23102   0.16067   0.24479   0.00000  Uiso   1.00
C15    C     0.13038   0.13253   0.09293   0.00000  Uiso   1.00
C16    C     0.18392   0.21890   0.40539   0.00000  Uiso   1.00
C17    C     0.16433   0.17018   0.11521   0.00000  Uiso   1.00
C18    C     0.16814   0.17131   0.38428   0.00000  Uiso   1.00
C19    C     0.19238   0.21234   0.09266   0.00000  Uiso   1.00
C20    C     0.14251   0.12995   0.40847   0.00000  Uiso   1.00
C21    C     0.18008   0.22069   0.04782   0.00000  Uiso   1.00
C22    C     0.12561   0.13855   0.45393   0.00000  Uiso   1.00
C23    C     0.14967   0.18101   0.02435   0.00000  Uiso   1.00
C24    C     0.15172   0.18098   0.47712   0.00000  Uiso   1.00
C25    C     0.11997   0.13954   0.04756   0.00000  Uiso   1.00
C26    C     0.18220   0.22156   0.45307   0.00000  Uiso   1.00
C27    C     0.19904   0.26614   0.02478   0.00000  Uiso   1.00
C28    C     0.08308   0.10692   0.47699   0.00000  Uiso   1.00
C29    C     0.20607   0.26437   0.47764   0.00000  Uiso   1.00
C30    C     0.08118   0.10646   0.02413   0.00000  Uiso   1.00
C31    C     0.19092   0.31868   0.25636   0.00000  Uiso   1.00
C32    C     0.14561   0.01548   0.26367   0.00000  Uiso   1.00
N33    N     0.31678   0.15265   0.23783   0.00000  Uiso   1.00
N34    N     0.01656   0.18068   0.26217   0.00000  Uiso   1.00
C35    C     0.11471   0.08121   0.11514   0.00000  Uiso   1.00
H36    H     0.13967   0.07470   0.14458   0.00000  Uiso   1.00
H37    H     0.06910   0.07847   0.12616   0.00000  Uiso   1.00
H38    H     0.12346   0.04893   0.09103   0.00000  Uiso   1.00
C39    C     0.19663   0.26671   0.37735   0.00000  Uiso   1.00
H40    H     0.18187   0.26229   0.34295   0.00000  Uiso   1.00
H41    H     0.17319   0.29932   0.39288   0.00000  Uiso   1.00
H42    H     0.24305   0.27669   0.37391   0.00000  Uiso   1.00
C43    C     0.24146   0.24199   0.11454   0.00000  Uiso   1.00
H44    H     0.26983   0.26484   0.09058   0.00000  Uiso   1.00
H45    H     0.22495   0.26712   0.14285   0.00000  Uiso   1.00
H46    H     0.27073   0.21477   0.12721   0.00000  Uiso   1.00
C47    C     0.13780   0.07664   0.38595   0.00000  Uiso   1.00
H48    H     0.12904   0.04578   0.41079   0.00000  Uiso   1.00
H49    H     0.10400   0.07478   0.36159   0.00000  Uiso   1.00
H50    H     0.17905   0.06816   0.36745   0.00000  Uiso   1.00
C51    C     0.20576   0.31836   0.04858   0.00000  Uiso   1.00
H52    H     0.18915   0.31747   0.08432   0.00000  Uiso   1.00
H53    H     0.25109   0.33296   0.04627   0.00000  Uiso   1.00
H54    H     0.18023   0.01298   0.03230   0.00000  Uiso   1.00
C55    C     0.03449   0.08012   0.45278   0.00000  Uiso   1.00
H56    H     0.03206   0.09449   0.41828   0.00000  Uiso   1.00
H57    H     0.03915   0.03779   0.45123   0.00000  Uiso   1.00
H58    H     0.32623   0.08829   0.47083   0.00000  Uiso   1.00
N59    N     0.24428   0.30261   0.45619   0.00000  Uiso   1.00
O60    O     0.22955   0.01665   0.45355   0.00000  Uiso   1.00
O61    O     0.29677   0.29156   0.44513   0.00000  Uiso   1.00
N62    N     0.03615   0.07645   0.04777   0.00000  Uiso   1.00
O63    O     0.03137   0.02659   0.04120   0.00000  Uiso   1.00
O64    O     0.32899   0.09968   0.07094   0.00000  Uiso   1.00
N65    N     0.24916   0.00524   0.25052   0.00000  Uiso   1.00
O66    O     0.27907   0.32873   0.21309   0.00000  Uiso   1.00
O67    O     0.27404   0.02667   0.28471   0.00000  Uiso   1.00
N68    N     0.09015   0.32925   0.28050   0.00000  Uiso   1.00
O69    O     0.08260   0.31135   0.32101   0.00000  Uiso   1.00
O70    O     0.04790   0.32738   0.25449   0.00000  Uiso   1.00
N71    N     0.00915   0.13132   0.19907   0.00000  Uiso   1.00
O72    O     0.00642   0.15428   0.16112   0.00000  Uiso   1.00
O73    O     0.01880   0.08251   0.19834   0.00000  Uiso   1.00
N74    N     0.32490   0.19733   0.30315   0.00000  Uiso   1.00
O75    O     0.33056   0.17114   0.33901   0.00000  Uiso   1.00
O76    O     0.30987   0.24473   0.30784   0.00000  Uiso   1.00
O77    O     0.46308   0.24619   0.25298   0.00000  Uiso   1.00
O78    O     0.53692   0.08714   0.24701   0.00000  Uiso   1.00
O79    O     0.55946   0.23721   0.24518   0.00000  Uiso   1.00
O80    O     0.44054   0.09613   0.25481   0.00000  Uiso   1.00
C81    C     0.51508   0.26457   0.25130   0.00000  Uiso   1.00
C82    C     0.48542   0.06888   0.25410   0.00000  Uiso   1.00
O83    O     0.45181   0.17117   0.31997   0.00000  Uiso   1.00
O84    O     0.54819   0.16216   0.18002   0.00000  Uiso   1.00
O85    O     0.54819   0.16219   0.31217   0.00000  Uiso   1.00
O86    O     0.45181   0.17115   0.18782   0.00000  Uiso   1.00
C87    C     0.50076   0.16730   0.33629   0.00000  Uiso   1.00
C88    C     0.49956   0.16789   0.16350   0.00000  Uiso   1.00
Zn89   Zn    0.43565   0.17266   0.25521   0.00000  Uiso   1.00
Zn90   Zn    0.56435   0.16067   0.24479   0.00000  Uiso   1.00
C91    C     0.46371   0.13253   0.09293   0.00000  Uiso   1.00
C92    C     0.51726   0.21890   0.40539   0.00000  Uiso   1.00
C93    C     0.49766   0.17018   0.11521   0.00000  Uiso   1.00
C94    C     0.50147   0.17131   0.38428   0.00000  Uiso   1.00
C95    C     0.52571   0.21234   0.09266   0.00000  Uiso   1.00
C96    C     0.47585   0.12995   0.40847   0.00000  Uiso   1.00
C97    C     0.51342   0.22069   0.04782   0.00000  Uiso   1.00
C98    C     0.45895   0.13855   0.45393   0.00000  Uiso   1.00
C99    C     0.48300   0.18101   0.02435   0.00000  Uiso   1.00
C100   C     0.48505   0.18098   0.47712   0.00000  Uiso   1.00
C101   C     0.45330   0.13954   0.04756   0.00000  Uiso   1.00
C102   C     0.51553   0.22156   0.45307   0.00000  Uiso   1.00
C103   C     0.53238   0.26614   0.02478   0.00000  Uiso   1.00
C104   C     0.41641   0.10692   0.47699   0.00000  Uiso   1.00
C105   C     0.53940   0.26437   0.47764   0.00000  Uiso   1.00
C106   C     0.41451   0.10646   0.02413   0.00000  Uiso   1.00
C107   C     0.52425   0.31868   0.25636   0.00000  Uiso   1.00
C108   C     0.47894   0.01548   0.26367   0.00000  Uiso   1.00
N109   N     0.65011   0.15265   0.23783   0.00000  Uiso   1.00
N110   N     0.34989   0.18068   0.26217   0.00000  Uiso   1.00
C111   C     0.44804   0.08121   0.11514   0.00000  Uiso   1.00
H112   H     0.47300   0.07470   0.14458   0.00000  Uiso   1.00
H113   H     0.40243   0.07847   0.12616   0.00000  Uiso   1.00
H114   H     0.45679   0.04893   0.09103   0.00000  Uiso   1.00
C115   C     0.52997   0.26671   0.37735   0.00000  Uiso   1.00
H116   H     0.51520   0.26229   0.34295   0.00000  Uiso   1.00
H117   H     0.50652   0.29932   0.39288   0.00000  Uiso   1.00
H118   H     0.57638   0.27669   0.37391   0.00000  Uiso   1.00
C119   C     0.57479   0.24199   0.11454   0.00000  Uiso   1.00
H120   H     0.60316   0.26484   0.09058   0.00000  Uiso   1.00
H121   H     0.55828   0.26712   0.14285   0.00000  Uiso   1.00
H122   H     0.60407   0.21477   0.12721   0.00000  Uiso   1.00
C123   C     0.47113   0.07664   0.38595   0.00000  Uiso   1.00
H124   H     0.46237   0.04578   0.41079   0.00000  Uiso   1.00
H125   H     0.43733   0.07478   0.36159   0.00000  Uiso   1.00
H126   H     0.51238   0.06816   0.36745   0.00000  Uiso   1.00
C127   C     0.53909   0.31836   0.04858   0.00000  Uiso   1.00
H128   H     0.52249   0.31747   0.08432   0.00000  Uiso   1.00
H129   H     0.58442   0.33296   0.04627   0.00000  Uiso   1.00
H130   H     0.51356   0.01298   0.03230   0.00000  Uiso   1.00
C131   C     0.36782   0.08012   0.45278   0.00000  Uiso   1.00
H132   H     0.36539   0.09449   0.41828   0.00000  Uiso   1.00
H133   H     0.37248   0.03779   0.45123   0.00000  Uiso   1.00
H134   H     0.65956   0.08829   0.47083   0.00000  Uiso   1.00
N135   N     0.57761   0.30261   0.45619   0.00000  Uiso   1.00
O136   O     0.56288   0.01665   0.45355   0.00000  Uiso   1.00
O137   O     0.63010   0.29156   0.44513   0.00000  Uiso   1.00
N138   N     0.36949   0.07645   0.04777   0.00000  Uiso   1.00
O139   O     0.36470   0.02659   0.04120   0.00000  Uiso   1.00
O140   O     0.66233   0.09968   0.07094   0.00000  Uiso   1.00
N141   N     0.58249   0.00524   0.25052   0.00000  Uiso   1.00
O142   O     0.61240   0.32873   0.21309   0.00000  Uiso   1.00
O143   O     0.60738   0.02667   0.28471   0.00000  Uiso   1.00
N144   N     0.42348   0.32925   0.28050   0.00000  Uiso   1.00
O145   O     0.41593   0.31135   0.32101   0.00000  Uiso   1.00
O146   O     0.38123   0.32738   0.25449   0.00000  Uiso   1.00
N147   N     0.34249   0.13132   0.19907   0.00000  Uiso   1.00
O148   O     0.33975   0.15428   0.16112   0.00000  Uiso   1.00
O149   O     0.35213   0.08251   0.19834   0.00000  Uiso   1.00
N150   N     0.65823   0.19733   0.30315   0.00000  Uiso   1.00
O151   O     0.66389   0.17114   0.33901   0.00000  Uiso   1.00
O152   O     0.64320   0.24473   0.30784   0.00000  Uiso   1.00
O153   O     0.79642   0.24619   0.25298   0.00000  Uiso   1.00
O154   O     0.87025   0.08714   0.24701   0.00000  Uiso   1.00
O155   O     0.89280   0.23721   0.24518   0.00000  Uiso   1.00
O156   O     0.77387   0.09613   0.25481   0.00000  Uiso   1.00
C157   C     0.84841   0.26457   0.25130   0.00000  Uiso   1.00
C158   C     0.81875   0.06888   0.25410   0.00000  Uiso   1.00
O159   O     0.78514   0.17117   0.31997   0.00000  Uiso   1.00
O160   O     0.88153   0.16216   0.18002   0.00000  Uiso   1.00
O161   O     0.88152   0.16219   0.31217   0.00000  Uiso   1.00
O162   O     0.78515   0.17115   0.18782   0.00000  Uiso   1.00
C163   C     0.83409   0.16730   0.33629   0.00000  Uiso   1.00
C164   C     0.83289   0.16789   0.16350   0.00000  Uiso   1.00
Zn165  Zn    0.76898   0.17266   0.25521   0.00000  Uiso   1.00
Zn166  Zn    0.89769   0.16067   0.24479   0.00000  Uiso   1.00
C167   C     0.79705   0.13253   0.09293   0.00000  Uiso   1.00
C168   C     0.85059   0.21890   0.40539   0.00000  Uiso   1.00
C169   C     0.83099   0.17018   0.11521   0.00000  Uiso   1.00
C170   C     0.83481   0.17131   0.38428   0.00000  Uiso   1.00
C171   C     0.85905   0.21234   0.09266   0.00000  Uiso   1.00
C172   C     0.80918   0.12995   0.40847   0.00000  Uiso   1.00
C173   C     0.84675   0.22069   0.04782   0.00000  Uiso   1.00
C174   C     0.79228   0.13855   0.45393   0.00000  Uiso   1.00
C175   C     0.81633   0.18101   0.02435   0.00000  Uiso   1.00
C176   C     0.81838   0.18098   0.47712   0.00000  Uiso   1.00
C177   C     0.78663   0.13954   0.04756   0.00000  Uiso   1.00
C178   C     0.84887   0.22156   0.45307   0.00000  Uiso   1.00
C179   C     0.86571   0.26614   0.02478   0.00000  Uiso   1.00
C180   C     0.74975   0.10692   0.47699   0.00000  Uiso   1.00
C181   C     0.87274   0.26437   0.47764   0.00000  Uiso   1.00
C182   C     0.74785   0.10646   0.02413   0.00000  Uiso   1.00
C183   C     0.85758   0.31868   0.25636   0.00000  Uiso   1.00
C184   C     0.81227   0.01548   0.26367   0.00000  Uiso   1.00
N185   N     0.98344   0.15265   0.23783   0.00000  Uiso   1.00
N186   N     0.68322   0.18068   0.26217   0.00000  Uiso   1.00
C187   C     0.78137   0.08121   0.11514   0.00000  Uiso   1.00
H188   H     0.80633   0.07470   0.14458   0.00000  Uiso   1.00
H189   H     0.73576   0.07847   0.12616   0.00000  Uiso   1.00
H190   H     0.79013   0.04893   0.09103   0.00000  Uiso   1.00
C191   C     0.86330   0.26671   0.37735   0.00000  Uiso   1.00
H192   H     0.84853   0.26229   0.34295   0.00000  Uiso   1.00
H193   H     0.83986   0.29932   0.39288   0.00000  Uiso   1.00
H194   H     0.90972   0.27669   0.37391   0.00000  Uiso   1.00
C195   C     0.90812   0.24199   0.11454   0.00000  Uiso   1.00
H196   H     0.93649   0.26484   0.09058   0.00000  Uiso   1.00
H197   H     0.89161   0.26712   0.14285   0.00000  Uiso   1.00
H198   H     0.93740   0.21477   0.12721   0.00000  Uiso   1.00
C199   C     0.80447   0.07664   0.38595   0.00000  Uiso   1.00
H200   H     0.79571   0.04578   0.41079   0.00000  Uiso   1.00
H201   H     0.77067   0.07478   0.36159   0.00000  Uiso   1.00
H202   H     0.84571   0.06816   0.36745   0.00000  Uiso   1.00
C203   C     0.87242   0.31836   0.04858   0.00000  Uiso   1.00
H204   H     0.85582   0.31747   0.08432   0.00000  Uiso   1.00
H205   H     0.91775   0.33296   0.04627   0.00000  Uiso   1.00
H206   H     0.84689   0.01298   0.03230   0.00000  Uiso   1.00
C207   C     0.70115   0.08012   0.45278   0.00000  Uiso   1.00
H208   H     0.69873   0.09449   0.41828   0.00000  Uiso   1.00
H209   H     0.70582   0.03779   0.45123   0.00000  Uiso   1.00
H210   H     0.99290   0.08829   0.47083   0.00000  Uiso   1.00
N211   N     0.91095   0.30261   0.45619   0.00000  Uiso   1.00
O212   O     0.89622   0.01665   0.45355   0.00000  Uiso   1.00
O213   O     0.96344   0.29156   0.44513   0.00000  Uiso   1.00
N214   N     0.70282   0.07645   0.04777   0.00000  Uiso   1.00
O215   O     0.69803   0.02659   0.04120   0.00000  Uiso   1.00
O216   O     0.99566   0.09968   0.07094   0.00000  Uiso   1.00
N217   N     0.91583   0.00524   0.25052   0.00000  Uiso   1.00
O218   O     0.94573   0.32873   0.21309   0.00000  Uiso   1.00
O219   O     0.94071   0.02667   0.28471   0.00000  Uiso   1.00
N220   N     0.75681   0.32925   0.28050   0.00000  Uiso   1.00
O221   O     0.74926   0.31135   0.32101   0.00000  Uiso   1.00
O222   O     0.71456   0.32738   0.25449   0.00000  Uiso   1.00
N223   N     0.67582   0.13132   0.19907   0.00000  Uiso   1.00
O224   O     0.67308   0.15428   0.16112   0.00000  Uiso   1.00
O225   O     0.68547   0.08251   0.19834   0.00000  Uiso   1.00
N226   N     0.99157   0.19733   0.30315   0.00000  Uiso   1.00
O227   O     0.99723   0.17114   0.33901   0.00000  Uiso   1.00
O228   O     0.97654   0.24473   0.30784   0.00000  Uiso   1.00
O229   O     0.12975   0.57952   0.25298   0.00000  Uiso   1.00
O230   O     0.20358   0.42048   0.24701   0.00000  Uiso   1.00
O231   O     0.22613   0.57054   0.24518   0.00000  Uiso   1.00
O232   O     0.10720   0.42946   0.25481   0.00000  Uiso   1.00
C233   C     0.18175   0.59790   0.25130   0.00000  Uiso   1.00
C234   C     0.15208   0.40221   0.25410   0.00000  Uiso   1.00
O235   O     0.11847   0.50450   0.31997   0.00000  Uiso   1.00
O236   O     0.21486   0.49550   0.18002   0.00000  Uiso   1.00
O237   O     0.21485   0.49552   0.31217   0.00000  Uiso   1.00
O238   O     0.11848   0.50448   0.18782   0.00000  Uiso   1.00
C239   C     0.16743   0.50064   0.33629   0.00000  Uiso   1.00
C240   C     0.16622   0.50122   0.16350   0.00000  Uiso   1.00
Zn241  Zn    0.10231   0.50600   0.25521   0.00000  Uiso   1.00
Zn242  Zn    0.23102   0.49400   0.24479   0.00000  Uiso   1.00
C243   C     0.13038   0.46586   0.09293   0.00000  Uiso   1.00
C244   C     0.18392   0.55223   0.40539   0.00000  Uiso   1.00
C245   C     0.16433   0.50352   0.11521   0.00000  Uiso   1.00
C246   C     0.16814   0.50464   0.38428   0.00000  Uiso   1.00
C247   C     0.19238   0.54567   0.09266   0.00000  Uiso   1.00
C248   C     0.14251   0.46328   0.40847   0.00000  Uiso   1.00
C249   C     0.18008   0.55402   0.04782   0.00000  Uiso   1.00
C250   C     0.12561   0.47188   0.45393   0.00000  Uiso   1.00
C251   C     0.14967   0.51434   0.02435   0.00000  Uiso   1.00
C252   C     0.15172   0.51431   0.47712   0.00000  Uiso   1.00
C253   C     0.11997   0.47288   0.04756   0.00000  Uiso   1.00
C254   C     0.18220   0.55489   0.45307   0.00000  Uiso   1.00
C255   C     0.19904   0.59947   0.02478   0.00000  Uiso   1.00
C256   C     0.08308   0.44026   0.47699   0.00000  Uiso   1.00
C257   C     0.20607   0.59770   0.47764   0.00000  Uiso   1.00
C258   C     0.08118   0.43979   0.02413   0.00000  Uiso   1.00
C259   C     0.19092   0.65201   0.25636   0.00000  Uiso   1.00
C260   C     0.14561   0.34881   0.26367   0.00000  Uiso   1.00
N261   N     0.31678   0.48598   0.23783   0.00000  Uiso   1.00
N262   N     0.01656   0.51402   0.26217   0.00000  Uiso   1.00
C263   C     0.11471   0.41454   0.11514   0.00000  Uiso   1.00
H264   H     0.13967   0.40803   0.14458   0.00000  Uiso   1.00
H265   H     0.06910   0.41180   0.12616   0.00000  Uiso   1.00
H266   H     0.12346   0.38226   0.09103   0.00000  Uiso   1.00
C267   C     0.19663   0.60004   0.37735   0.00000  Uiso   1.00
H268   H     0.18187   0.59562   0.34295   0.00000  Uiso   1.00
H269   H     0.17319   0.63266   0.39288   0.00000  Uiso   1.00
H270   H     0.24305   0.61002   0.37391   0.00000  Uiso   1.00
C271   C     0.24146   0.57532   0.11454   0.00000  Uiso   1.00
H272   H     0.26983   0.59817   0.09058   0.00000  Uiso   1.00
H273   H     0.22495   0.60045   0.14285   0.00000  Uiso   1.00
H274   H     0.27073   0.54810   0.12721   0.00000  Uiso   1.00
C275   C     0.13780   0.40997   0.38595   0.00000  Uiso   1.00
H276   H     0.12904   0.37911   0.41079   0.00000  Uiso   1.00
H277   H     0.10400   0.40812   0.36159   0.00000  Uiso   1.00
H278   H     0.17905   0.40149   0.36745   0.00000  Uiso   1.00
C279   C     0.20576   0.65170   0.04858   0.00000  Uiso   1.00
H280   H     0.18915   0.65081   0.08432   0.00000  Uiso   1.00
H281   H     0.25109   0.66629   0.04627   0.00000  Uiso   1.00
H282   H     0.18023   0.34631   0.03230   0.00000  Uiso   1.00
C283   C     0.03449   0.41345   0.45278   0.00000  Uiso   1.00
H284   H     0.03206   0.42782   0.41828   0.00000  Uiso   1.00
H285   H     0.03915   0.37112   0.45123   0.00000  Uiso   1.00
H286   H     0.32623   0.42162   0.47083   0.00000  Uiso   1.00
N287   N     0.24428   0.63594   0.45619   0.00000  Uiso   1.00
O288   O     0.22955   0.34998   0.45355   0.00000  Uiso   1.00
O289   O     0.29677   0.62490   0.44513   0.00000  Uiso   1.00
N290   N     0.03615   0.40978   0.04777   0.00000  Uiso   1.00
O291   O     0.03137   0.35992   0.04120   0.00000  Uiso   1.00
O292   O     0.32899   0.43301   0.07094   0.00000  Uiso   1.00
N293   N     0.24916   0.33857   0.25052   0.00000  Uiso   1.00
O294   O     0.27907   0.66207   0.21309   0.00000  Uiso   1.00
O295   O     0.27404   0.36000   0.28471   0.00000  Uiso   1.00
N296   N     0.09015   0.66259   0.28050   0.00000  Uiso   1.00
O297   O     0.08260   0.64469   0.32101   0.00000  Uiso   1.00
O298   O     0.04790   0.66071   0.25449   0.00000  Uiso   1.00
N299   N     0.00915   0.46466   0.19907   0.00000  Uiso   1.00
O300   O     0.00642   0.48761   0.16112   0.00000  Uiso   1.00
O301   O     0.01880   0.41585   0.19834   0.00000  Uiso   1.00
N302   N     0.32490   0.53067   0.30315   0.00000  Uiso   1.00
O303   O     0.33056   0.50447   0.33901   0.00000  Uiso   1.00
O304   O     0.30987   0.57806   0.30784   0.00000  Uiso   1.00
O305   O     0.46308   0.57952   0.25298   0.00000  Uiso   1.00
O306   O     0.53692   0.42048   0.24701   0.00000  Uiso   1.00
O307   O     0.55946   0.57054   0.24518   0.00000  Uiso   1.00
O308   O     0.44054   0.42946   0.25481   0.00000  Uiso   1.00
C309   C     0.51508   0.59790   0.25130   0.00000  Uiso   1.00
C310   C     0.48542   0.40221   0.25410   0.00000  Uiso   1.00
O311   O     0.45181   0.50450   0.31997   0.00000  Uiso   1.00
O312   O     0.54819   0.49550   0.18002   0.00000  Uiso   1.00
O313   O     0.54819   0.49552   0.31217   0.00000  Uiso   1.00
O314   O     0.45181   0.50448   0.18782   0.00000  Uiso   1.00
C315   C     0.50076   0.50064   0.33629   0.00000  Uiso   1.00
C316   C     0.49956   0.50122   0.16350   0.00000  Uiso   1.00
Zn317  Zn    0.43565   0.50600   0.25521   0.00000  Uiso   1.00
Zn318  Zn    0.56435   0.49400   0.24479   0.00000  Uiso   1.00
C319   C     0.46371   0.46586   0.09293   0.00000  Uiso   1.00
C320   C     0.51726   0.55223   0.40539   0.00000  Uiso   1.00
C321   C     0.49766   0.50352   0.11521   0.00000  Uiso   1.00
C322   C     0.50147   0.50464   0.38428   0.00000  Uiso   1.00
C323   C     0.52571   0.54567   0.09266   0.00000  Uiso   1.00
C324   C     0.47585   0.46328   0.40847   0.00000  Uiso   1.00
C325   C     0.51342   0.55402   0.04782   0.00000  Uiso   1.00
C326   C     0.45895   0.47188   0.45393   0.00000  Uiso   1.00
C327   C     0.48300   0.51434   0.02435   0.00000  Uiso   1.00
C328   C     0.48505   0.51431   0.47712   0.00000  Uiso   1.00
C329   C     0.45330   0.47288   0.04756   0.00000  Uiso   1.00
C330   C     0.51553   0.55489   0.45307   0.00000  Uiso   1.00
C331   C     0.53238   0.59947   0.02478   0.00000  Uiso   1.00
C332   C     0.41641   0.44026   0.47699   0.00000  Uiso   1.00
C333   C     0.53940   0.59770   0.47764   0.00000  Uiso   1.00
C334   C     0.41451   0.43979   0.02413   0.00000  Uiso   1.00
C335   C     0.52425   0.65201   0.25636   0.00000  Uiso   1.00
C336   C     0.47894   0.34881   0.26367   0.00000  Uiso   1.00
N337   N     0.65011   0.48598   0.23783   0.00000  Uiso   1.00
N338   N     0.34989   0.51402   0.26217   0.00000  Uiso   1.00
C339   C     0.44804   0.41454   0.11514   0.00000  Uiso   1.00
H340   H     0.47300   0.40803   0.14458   0.00000  Uiso   1.00
H341   H     0.40243   0.41180   0.12616   0.00000  Uiso   1.00
H342   H     0.45679   0.38226   0.09103   0.00000  Uiso   1.00
C343   C     0.52997   0.60004   0.37735   0.00000  Uiso   1.00
H344   H     0.51520   0.59562   0.34295   0.00000  Uiso   1.00
H345   H     0.50652   0.63266   0.39288   0.00000  Uiso   1.00
H346   H     0.57638   0.61002   0.37391   0.00000  Uiso   1.00
C347   C     0.57479   0.57532   0.11454   0.00000  Uiso   1.00
H348   H     0.60316   0.59817   0.09058   0.00000  Uiso   1.00
H349   H     0.55828   0.60045   0.14285   0.00000  Uiso   1.00
H350   H     0.60407   0.54810   0.12721   0.00000  Uiso   1.00
C351   C     0.47113   0.40997   0.38595   0.00000  Uiso   1.00
H352   H     0.46237   0.37911   0.41079   0.00000  Uiso   1.00
H353   H     0.43733   0.40812   0.36159   0.00000  Uiso   1.00
H354   H     0.51238   0.40149   0.36745   0.00000  Uiso   1.00
C355   C     0.53909   0.65170   0.04858   0.00000  Uiso   1.00
H356   H     0.52249   0.65081   0.08432   0.00000  Uiso   1.00
H357   H     0.58442   0.66629   0.04627   0.00000  Uiso   1.00
H358   H     0.51356   0.34631   0.03230   0.00000  Uiso   1.00
C359   C     0.36782   0.41345   0.45278   0.00000  Uiso   1.00
H360   H     0.36539   0.42782   0.41828   0.00000  Uiso   1.00
H361   H     0.37248   0.37112   0.45123   0.00000  Uiso   1.00
H362   H     0.65956   0.42162   0.47083   0.00000  Uiso   1.00
N363   N     0.57761   0.63594   0.45619   0.00000  Uiso   1.00
O364   O     0.56288   0.34998   0.45355   0.00000  Uiso   1.00
O365   O     0.63010   0.62490   0.44513   0.00000  Uiso   1.00
N366   N     0.36949   0.40978   0.04777   0.00000  Uiso   1.00
O367   O     0.36470   0.35992   0.04120   0.00000  Uiso   1.00
O368   O     0.66233   0.43301   0.07094   0.00000  Uiso   1.00
N369   N     0.58249   0.33857   0.25052   0.00000  Uiso   1.00
O370   O     0.61240   0.66207   0.21309   0.00000  Uiso   1.00
O371   O     0.60738   0.36000   0.28471   0.00000  Uiso   1.00
N372   N     0.42348   0.66259   0.28050   0.00000  Uiso   1.00
O373   O     0.41593   0.64469   0.32101   0.00000  Uiso   1.00
O374   O     0.38123   0.66071   0.25449   0.00000  Uiso   1.00
N375   N     0.34249   0.46466   0.19907   0.00000  Uiso   1.00
O376   O     0.33975   0.48761   0.16112   0.00000  Uiso   1.00
O377   O     0.35213   0.41585   0.19834   0.00000  Uiso   1.00
N378   N     0.65823   0.53067   0.30315   0.00000  Uiso   1.00
O379   O     0.66389   0.50447   0.33901   0.00000  Uiso   1.00
O380   O     0.64320   0.57806   0.30784   0.00000  Uiso   1.00
O381   O     0.79642   0.57952   0.25298   0.00000  Uiso   1.00
O382   O     0.87025   0.42048   0.24701   0.00000  Uiso   1.00
O383   O     0.89280   0.57054   0.24518   0.00000  Uiso   1.00
O384   O     0.77387   0.42946   0.25481   0.00000  Uiso   1.00
C385   C     0.84841   0.59790   0.25130   0.00000  Uiso   1.00
C386   C     0.81875   0.40221   0.25410   0.00000  Uiso   1.00
O387   O     0.78514   0.50450   0.31997   0.00000  Uiso   1.00
O388   O     0.88153   0.49550   0.18002   0.00000  Uiso   1.00
O389   O     0.88152   0.49552   0.31217   0.00000  Uiso   1.00
O390   O     0.78515   0.50448   0.18782   0.00000  Uiso   1.00
C391   C     0.83409   0.50064   0.33629   0.00000  Uiso   1.00
C392   C     0.83289   0.50122   0.16350   0.00000  Uiso   1.00
Zn393  Zn    0.76898   0.50600   0.25521   0.00000  Uiso   1.00
Zn394  Zn    0.89769   0.49400   0.24479   0.00000  Uiso   1.00
C395   C     0.79705   0.46586   0.09293   0.00000  Uiso   1.00
C396   C     0.85059   0.55223   0.40539   0.00000  Uiso   1.00
C397   C     0.83099   0.50352   0.11521   0.00000  Uiso   1.00
C398   C     0.83481   0.50464   0.38428   0.00000  Uiso   1.00
C399   C     0.85905   0.54567   0.09266   0.00000  Uiso   1.00
C400   C     0.80918   0.46328   0.40847   0.00000  Uiso   1.00
C401   C     0.84675   0.55402   0.04782   0.00000  Uiso   1.00
C402   C     0.79228   0.47188   0.45393   0.00000  Uiso   1.00
C403   C     0.81633   0.51434   0.02435   0.00000  Uiso   1.00
C404   C     0.81838   0.51431   0.47712   0.00000  Uiso   1.00
C405   C     0.78663   0.47288   0.04756   0.00000  Uiso   1.00
C406   C     0.84887   0.55489   0.45307   0.00000  Uiso   1.00
C407   C     0.86571   0.59947   0.02478   0.00000  Uiso   1.00
C408   C     0.74975   0.44026   0.47699   0.00000  Uiso   1.00
C409   C     0.87274   0.59770   0.47764   0.00000  Uiso   1.00
C410   C     0.74785   0.43979   0.02413   0.00000  Uiso   1.00
C411   C     0.85758   0.65201   0.25636   0.00000  Uiso   1.00
C412   C     0.81227   0.34881   0.26367   0.00000  Uiso   1.00
N413   N     0.98344   0.48598   0.23783   0.00000  Uiso   1.00
N414   N     0.68322   0.51402   0.26217   0.00000  Uiso   1.00
C415   C     0.78137   0.41454   0.11514   0.00000  Uiso   1.00
H416   H     0.80633   0.40803   0.14458   0.00000  Uiso   1.00
H417   H     0.73576   0.41180   0.12616   0.00000  Uiso   1.00
H418   H     0.79013   0.38226   0.09103   0.00000  Uiso   1.00
C419   C     0.86330   0.60004   0.37735   0.00000  Uiso   1.00
H420   H     0.84853   0.59562   0.34295   0.00000  Uiso   1.00
H421   H     0.83986   0.63266   0.39288   0.00000  Uiso   1.00
H422   H     0.90972   0.61002   0.37391   0.00000  Uiso   1.00
C423   C     0.90812   0.57532   0.11454   0.00000  Uiso   1.00
H424   H     0.93649   0.59817   0.09058   0.00000  Uiso   1.00
H425   H     0.89161   0.60045   0.14285   0.00000  Uiso   1.00
H426   H     0.93740   0.54810   0.12721   0.00000  Uiso   1.00
C427   C     0.80447   0.40997   0.38595   0.00000  Uiso   1.00
H428   H     0.79571   0.37911   0.41079   0.00000  Uiso   1.00
H429   H     0.77067   0.40812   0.36159   0.00000  Uiso   1.00
H430   H     0.84571   0.40149   0.36745   0.00000  Uiso   1.00
C431   C     0.87242   0.65170   0.04858   0.00000  Uiso   1.00
H432   H     0.85582   0.65081   0.08432   0.00000  Uiso   1.00
H433   H     0.91775   0.66629   0.04627   0.00000  Uiso   1.00
H434   H     0.84689   0.34631   0.03230   0.00000  Uiso   1.00
C435   C     0.70115   0.41345   0.45278   0.00000  Uiso   1.00
H436   H     0.69873   0.42782   0.41828   0.00000  Uiso   1.00
H437   H     0.70582   0.37112   0.45123   0.00000  Uiso   1.00
H438   H     0.99290   0.42162   0.47083   0.00000  Uiso   1.00
N439   N     0.91095   0.63594   0.45619   0.00000  Uiso   1.00
O440   O     0.89622   0.34998   0.45355   0.00000  Uiso   1.00
O441   O     0.96344   0.62490   0.44513   0.00000  Uiso   1.00
N442   N     0.70282   0.40978   0.04777   0.00000  Uiso   1.00
O443   O     0.69803   0.35992   0.04120   0.00000  Uiso   1.00
O444   O     0.99566   0.43301   0.07094   0.00000  Uiso   1.00
N445   N     0.91583   0.33857   0.25052   0.00000  Uiso   1.00
O446   O     0.94573   0.66207   0.21309   0.00000  Uiso   1.00
O447   O     0.94071   0.36000   0.28471   0.00000  Uiso   1.00
N448   N     0.75681   0.66259   0.28050   0.00000  Uiso   1.00
O449   O     0.74926   0.64469   0.32101   0.00000  Uiso   1.00
O450   O     0.71456   0.66071   0.25449   0.00000  Uiso   1.00
N451   N     0.67582   0.46466   0.19907   0.00000  Uiso   1.00
O452   O     0.67308   0.48761   0.16112   0.00000  Uiso   1.00
O453   O     0.68547   0.41585   0.19834   0.00000  Uiso   1.00
N454   N     0.99157   0.53067   0.30315   0.00000  Uiso   1.00
O455   O     0.99723   0.50447   0.33901   0.00000  Uiso   1.00
O456   O     0.97654   0.57806   0.30784   0.00000  Uiso   1.00
O457   O     0.12975   0.91286   0.25298   0.00000  Uiso   1.00
O458   O     0.20358   0.75381   0.24701   0.00000  Uiso   1.00
O459   O     0.22613   0.90387   0.24518   0.00000  Uiso   1.00
O460   O     0.10720   0.76279   0.25481   0.00000  Uiso   1.00
C461   C     0.18175   0.93123   0.25130   0.00000  Uiso   1.00
C462   C     0.15208   0.73555   0.25410   0.00000  Uiso   1.00
O463   O     0.11847   0.83784   0.31997   0.00000  Uiso   1.00
O464   O     0.21486   0.82883   0.18002   0.00000  Uiso   1.00
O465   O     0.21485   0.82885   0.31217   0.00000  Uiso   1.00
O466   O     0.11848   0.83781   0.18782   0.00000  Uiso   1.00
C467   C     0.16743   0.83397   0.33629   0.00000  Uiso   1.00
C468   C     0.16622   0.83456   0.16350   0.00000  Uiso   1.00
Zn469  Zn    0.10231   0.83933   0.25521   0.00000  Uiso   1.00
Zn470  Zn    0.23102   0.82734   0.24479   0.00000  Uiso   1.00
C471   C     0.13038   0.79919   0.09293   0.00000  Uiso   1.00
C472   C     0.18392   0.88556   0.40539   0.00000  Uiso   1.00
C473   C     0.16433   0.83685   0.11521   0.00000  Uiso   1.00
C474   C     0.16814   0.83798   0.38428   0.00000  Uiso   1.00
C475   C     0.19238   0.87900   0.09266   0.00000  Uiso   1.00
C476   C     0.14251   0.79662   0.40847   0.00000  Uiso   1.00
C477   C     0.18008   0.88735   0.04782   0.00000  Uiso   1.00
C478   C     0.12561   0.80522   0.45393   0.00000  Uiso   1.00
C479   C     0.14967   0.84767   0.02435   0.00000  Uiso   1.00
C480   C     0.15172   0.84765   0.47712   0.00000  Uiso   1.00
C481   C     0.11997   0.80621   0.04756   0.00000  Uiso   1.00
C482   C     0.18220   0.88822   0.45307   0.00000  Uiso   1.00
C483   C     0.19904   0.93281   0.02478   0.00000  Uiso   1.00
C484   C     0.08308   0.77359   0.47699   0.00000  Uiso   1.00
C485   C     0.20607   0.93103   0.47764   0.00000  Uiso   1.00
C486   C     0.08118   0.77313   0.02413   0.00000  Uiso   1.00
C487   C     0.19092   0.98534   0.25636   0.00000  Uiso   1.00
C488   C     0.14561   0.68214   0.26367   0.00000  Uiso   1.00
N489   N     0.31678   0.81932   0.23783   0.00000  Uiso   1.00
N490   N     0.01656   0.84735   0.26217   0.00000  Uiso   1.00
C491   C     0.11471   0.74787   0.11514   0.00000  Uiso   1.00
H492   H     0.13967   0.74137   0.14458   0.00000  Uiso   1.00
H493   H     0.06910   0.74514   0.12616   0.00000  Uiso   1.00
H494   H     0.12346   0.71560   0.09103   0.00000  Uiso   1.00
C495   C     0.19663   0.93338   0.37735   0.00000  Uiso   1.00
H496   H     0.18187   0.92896   0.34295   0.00000  Uiso   1.00
H497   H     0.17319   0.96599   0.39288   0.00000  Uiso   1.00
H498   H     0.24305   0.94335   0.37391   0.00000  Uiso   1.00
C499   C     0.24146   0.90865   0.11454   0.00000  Uiso   1.00
H500   H     0.26983   0.93151   0.09058   0.00000  Uiso   1.00
H501   H     0.22495   0.93378   0.14285   0.00000  Uiso   1.00
H502   H     0.27073   0.88144   0.12721   0.00000  Uiso   1.00
C503   C     0.13780   0.74330   0.38595   0.00000  Uiso   1.00
H504   H     0.12904   0.71244   0.41079   0.00000  Uiso   1.00
H505   H     0.10400   0.74145   0.36159   0.00000  Uiso   1.00
H506   H     0.17905   0.73482   0.36745   0.00000  Uiso   1.00
C507   C     0.20576   0.98503   0.04858   0.00000  Uiso   1.00
H508   H     0.18915   0.98414   0.08432   0.00000  Uiso   1.00
H509   H     0.25109   0.99963   0.04627   0.00000  Uiso   1.00
H510   H     0.18023   0.67965   0.03230   0.00000  Uiso   1.00
C511   C     0.03449   0.74679   0.45278   0.00000  Uiso   1.00
H512   H     0.03206   0.76116   0.41828   0.00000  Uiso   1.00
H513   H     0.03915   0.70446   0.45123   0.00000  Uiso   1.00
H514   H     0.32623   0.75495   0.47083   0.00000  Uiso   1.00
N515   N     0.24428   0.96927   0.45619   0.00000  Uiso   1.00
O516   O     0.22955   0.68331   0.45355   0.00000  Uiso   1.00
O517   O     0.29677   0.95823   0.44513   0.00000  Uiso   1.00
N518   N     0.03615   0.74311   0.04777   0.00000  Uiso   1.00
O519   O     0.03137   0.69325   0.04120   0.00000  Uiso   1.00
O520   O     0.32899   0.76634   0.07094   0.00000  Uiso   1.00
N521   N     0.24916   0.67190   0.25052   0.00000  Uiso   1.00
O522   O     0.27907   0.99540   0.21309   0.00000  Uiso   1.00
O523   O     0.27404   0.69334   0.28471   0.00000  Uiso   1.00
N524   N     0.09015   0.99592   0.28050   0.00000  Uiso   1.00
O525   O     0.08260   0.97802   0.32101   0.00000  Uiso   1.00
O526   O     0.04790   0.99405   0.25449   0.00000  Uiso   1.00
N527   N     0.00915   0.79799   0.19907   0.00000  Uiso   1.00
O528   O     0.00642   0.82094   0.16112   0.00000  Uiso   1.00
O529   O     0.01880   0.74918   0.19834   0.00000  Uiso   1.00
N530   N     0.32490   0.86400   0.30315   0.00000  Uiso   1.00
O531   O     0.33056   0.83780   0.33901   0.00000  Uiso   1.00
O532   O     0.30987   0.91140   0.30784   0.00000  Uiso   1.00
O533   O     0.46308   0.91286   0.25298   0.00000  Uiso   1.00
O534   O     0.53692   0.75381   0.24701   0.00000  Uiso   1.00
O535   O     0.55946   0.90387   0.24518   0.00000  Uiso   1.00
O536   O     0.44054   0.76279   0.25481   0.00000  Uiso   1.00
C537   C     0.51508   0.93123   0.25130   0.00000  Uiso   1.00
C538   C     0.48542   0.73555   0.25410   0.00000  Uiso   1.00
O539   O     0.45181   0.83784   0.31997   0.00000  Uiso   1.00
O540   O     0.54819   0.82883   0.18002   0.00000  Uiso   1.00
O541   O     0.54819   0.82885   0.31217   0.00000  Uiso   1.00
O542   O     0.45181   0.83781   0.18782   0.00000  Uiso   1.00
C543   C     0.50076   0.83397   0.33629   0.00000  Uiso   1.00
C544   C     0.49956   0.83456   0.16350   0.00000  Uiso   1.00
Zn545  Zn    0.43565   0.83933   0.25521   0.00000  Uiso   1.00
Zn546  Zn    0.56435   0.82734   0.24479   0.00000  Uiso   1.00
C547   C     0.46371   0.79919   0.09293   0.00000  Uiso   1.00
C548   C     0.51726   0.88556   0.40539   0.00000  Uiso   1.00
C549   C     0.49766   0.83685   0.11521   0.00000  Uiso   1.00
C550   C     0.50147   0.83798   0.38428   0.00000  Uiso   1.00
C551   C     0.52571   0.87900   0.09266   0.00000  Uiso   1.00
C552   C     0.47585   0.79662   0.40847   0.00000  Uiso   1.00
C553   C     0.51342   0.88735   0.04782   0.00000  Uiso   1.00
C554   C     0.45895   0.80522   0.45393   0.00000  Uiso   1.00
C555   C     0.48300   0.84767   0.02435   0.00000  Uiso   1.00
C556   C     0.48505   0.84765   0.47712   0.00000  Uiso   1.00
C557   C     0.45330   0.80621   0.04756   0.00000  Uiso   1.00
C558   C     0.51553   0.88822   0.45307   0.00000  Uiso   1.00
C559   C     0.53238   0.93281   0.02478   0.00000  Uiso   1.00
C560   C     0.41641   0.77359   0.47699   0.00000  Uiso   1.00
C561   C     0.53940   0.93103   0.47764   0.00000  Uiso   1.00
C562   C     0.41451   0.77313   0.02413   0.00000  Uiso   1.00
C563   C     0.52425   0.98534   0.25636   0.00000  Uiso   1.00
C564   C     0.47894   0.68214   0.26367   0.00000  Uiso   1.00
N565   N     0.65011   0.81932   0.23783   0.00000  Uiso   1.00
N566   N     0.34989   0.84735   0.26217   0.00000  Uiso   1.00
C567   C     0.44804   0.74787   0.11514   0.00000  Uiso   1.00
H568   H     0.47300   0.74137   0.14458   0.00000  Uiso   1.00
H569   H     0.40243   0.74514   0.12616   0.00000  Uiso   1.00
H570   H     0.45679   0.71560   0.09103   0.00000  Uiso   1.00
C571   C     0.52997   0.93338   0.37735   0.00000  Uiso   1.00
H572   H     0.51520   0.92896   0.34295   0.00000  Uiso   1.00
H573   H     0.50652   0.96599   0.39288   0.00000  Uiso   1.00
H574   H     0.57638   0.94335   0.37391   0.00000  Uiso   1.00
C575   C     0.57479   0.90865   0.11454   0.00000  Uiso   1.00
H576   H     0.60316   0.93151   0.09058   0.00000  Uiso   1.00
H577   H     0.55828   0.93378   0.14285   0.00000  Uiso   1.00
H578   H     0.60407   0.88144   0.12721   0.00000  Uiso   1.00
C579   C     0.47113   0.74330   0.38595   0.00000  Uiso   1.00
H580   H     0.46237   0.71244   0.41079   0.00000  Uiso   1.00
H581   H     0.43733   0.74145   0.36159   0.00000  Uiso   1.00
H582   H     0.51238   0.73482   0.36745   0.00000  Uiso   1.00
C583   C     0.53909   0.98503   0.04858   0.00000  Uiso   1.00
H584   H     0.52249   0.98414   0.08432   0.00000  Uiso   1.00
H585   H     0.58442   0.99963   0.04627   0.00000  Uiso   1.00
H586   H     0.51356   0.67965   0.03230   0.00000  Uiso   1.00
C587   C     0.36782   0.74679   0.45278   0.00000  Uiso   1.00
H588   H     0.36539   0.76116   0.41828   0.00000  Uiso   1.00
H589   H     0.37248   0.70446   0.45123   0.00000  Uiso   1.00
H590   H     0.65956   0.75495   0.47083   0.00000  Uiso   1.00
N591   N     0.57761   0.96927   0.45619   0.00000  Uiso   1.00
O592   O     0.56288   0.68331   0.45355   0.00000  Uiso   1.00
O593   O     0.63010   0.95823   0.44513   0.00000  Uiso   1.00
N594   N     0.36949   0.74311   0.04777   0.00000  Uiso   1.00
O595   O     0.36470   0.69325   0.04120   0.00000  Uiso   1.00
O596   O     0.66233   0.76634   0.07094   0.00000  Uiso   1.00
N597   N     0.58249   0.67190   0.25052   0.00000  Uiso   1.00
O598   O     0.61240   0.99540   0.21309   0.00000  Uiso   1.00
O599   O     0.60738   0.69334   0.28471   0.00000  Uiso   1.00
N600   N     0.42348   0.99592   0.28050   0.00000  Uiso   1.00
O601   O     0.41593   0.97802   0.32101   0.00000  Uiso   1.00
O602   O     0.38123   0.99405   0.25449   0.00000  Uiso   1.00
N603   N     0.34249   0.79799   0.19907   0.00000  Uiso   1.00
O604   O     0.33975   0.82094   0.16112   0.00000  Uiso   1.00
O605   O     0.35213   0.74918   0.19834   0.00000  Uiso   1.00
N606   N     0.65823   0.86400   0.30315   0.00000  Uiso   1.00
O607   O     0.66389   0.83780   0.33901   0.00000  Uiso   1.00
O608   O     0.64320   0.91140   0.30784   0.00000  Uiso   1.00
O609   O     0.79642   0.91286   0.25298   0.00000  Uiso   1.00
O610   O     0.87025   0.75381   0.24701   0.00000  Uiso   1.00
O611   O     0.89280   0.90387   0.24518   0.00000  Uiso   1.00
O612   O     0.77387   0.76279   0.25481   0.00000  Uiso   1.00
C613   C     0.84841   0.93123   0.25130   0.00000  Uiso   1.00
C614   C     0.81875   0.73555   0.25410   0.00000  Uiso   1.00
O615   O     0.78514   0.83784   0.31997   0.00000  Uiso   1.00
O616   O     0.88153   0.82883   0.18002   0.00000  Uiso   1.00
O617   O     0.88152   0.82885   0.31217   0.00000  Uiso   1.00
O618   O     0.78515   0.83781   0.18782   0.00000  Uiso   1.00
C619   C     0.83409   0.83397   0.33629   0.00000  Uiso   1.00
C620   C     0.83289   0.83456   0.16350   0.00000  Uiso   1.00
Zn621  Zn    0.76898   0.83933   0.25521   0.00000  Uiso   1.00
Zn622  Zn    0.89769   0.82734   0.24479   0.00000  Uiso   1.00
C623   C     0.79705   0.79919   0.09293   0.00000  Uiso   1.00
C624   C     0.85059   0.88556   0.40539   0.00000  Uiso   1.00
C625   C     0.83099   0.83685   0.11521   0.00000  Uiso   1.00
C626   C     0.83481   0.83798   0.38428   0.00000  Uiso   1.00
C627   C     0.85905   0.87900   0.09266   0.00000  Uiso   1.00
C628   C     0.80918   0.79662   0.40847   0.00000  Uiso   1.00
C629   C     0.84675   0.88735   0.04782   0.00000  Uiso   1.00
C630   C     0.79228   0.80522   0.45393   0.00000  Uiso   1.00
C631   C     0.81633   0.84767   0.02435   0.00000  Uiso   1.00
C632   C     0.81838   0.84765   0.47712   0.00000  Uiso   1.00
C633   C     0.78663   0.80621   0.04756   0.00000  Uiso   1.00
C634   C     0.84887   0.88822   0.45307   0.00000  Uiso   1.00
C635   C     0.86571   0.93281   0.02478   0.00000  Uiso   1.00
C636   C     0.74975   0.77359   0.47699   0.00000  Uiso   1.00
C637   C     0.87274   0.93103   0.47764   0.00000  Uiso   1.00
C638   C     0.74785   0.77313   0.02413   0.00000  Uiso   1.00
C639   C     0.85758   0.98534   0.25636   0.00000  Uiso   1.00
C640   C     0.81227   0.68214   0.26367   0.00000  Uiso   1.00
N641   N     0.98344   0.81932   0.23783   0.00000  Uiso   1.00
N642   N     0.68322   0.84735   0.26217   0.00000  Uiso   1.00
C643   C     0.78137   0.74787   0.11514   0.00000  Uiso   1.00
H644   H     0.80633   0.74137   0.14458   0.00000  Uiso   1.00
H645   H     0.73576   0.74514   0.12616   0.00000  Uiso   1.00
H646   H     0.79013   0.71560   0.09103   0.00000  Uiso   1.00
C647   C     0.86330   0.93338   0.37735   0.00000  Uiso   1.00
H648   H     0.84853   0.92896   0.34295   0.00000  Uiso   1.00
H649   H     0.83986   0.96599   0.39288   0.00000  Uiso   1.00
H650   H     0.90972   0.94335   0.37391   0.00000  Uiso   1.00
C651   C     0.90812   0.90865   0.11454   0.00000  Uiso   1.00
H652   H     0.93649   0.93151   0.09058   0.00000  Uiso   1.00
H653   H     0.89161   0.93378   0.14285   0.00000  Uiso   1.00
H654   H     0.93740   0.88144   0.12721   0.00000  Uiso   1.00
C655   C     0.80447   0.74330   0.38595   0.00000  Uiso   1.00
H656   H     0.79571   0.71244   0.41079   0.00000  Uiso   1.00
H657   H     0.77067   0.74145   0.36159   0.00000  Uiso   1.00
H658   H     0.84571   0.73482   0.36745   0.00000  Uiso   1.00
C659   C     0.87242   0.98503   0.04858   0.00000  Uiso   1.00
H660   H     0.85582   0.98414   0.08432   0.00000  Uiso   1.00
H661   H     0.91775   0.99963   0.04627   0.00000  Uiso   1.00
H662   H     0.84689   0.67965   0.03230   0.00000  Uiso   1.00
C663   C     0.70115   0.74679   0.45278   0.00000  Uiso   1.00
H664   H     0.69873   0.76116   0.41828   0.00000  Uiso   1.00
H665   H     0.70582   0.70446   0.45123   0.00000  Uiso   1.00
H666   H     0.99290   0.75495   0.47083   0.00000  Uiso   1.00
N667   N     0.91095   0.96927   0.45619   0.00000  Uiso   1.00
O668   O     0.89622   0.68331   0.45355   0.00000  Uiso   1.00
O669   O     0.96344   0.95823   0.44513   0.00000  Uiso   1.00
N670   N     0.70282   0.74311   0.04777   0.00000  Uiso   1.00
O671   O     0.69803   0.69325   0.04120   0.00000  Uiso   1.00
O672   O     0.99566   0.76634   0.07094   0.00000  Uiso   1.00
N673   N     0.91583   0.67190   0.25052   0.00000  Uiso   1.00
O674   O     0.94573   0.99540   0.21309   0.00000  Uiso   1.00
O675   O     0.94071   0.69334   0.28471   0.00000  Uiso   1.00
N676   N     0.75681   0.99592   0.28050   0.00000  Uiso   1.00
O677   O     0.74926   0.97802   0.32101   0.00000  Uiso   1.00
O678   O     0.71456   0.99405   0.25449   0.00000  Uiso   1.00
N679   N     0.67582   0.79799   0.19907   0.00000  Uiso   1.00
O680   O     0.67308   0.82094   0.16112   0.00000  Uiso   1.00
O681   O     0.68547   0.74918   0.19834   0.00000  Uiso   1.00
N682   N     0.99157   0.86400   0.30315   0.00000  Uiso   1.00
O683   O     0.99723   0.83780   0.33901   0.00000  Uiso   1.00
O684   O     0.97654   0.91140   0.30784   0.00000  Uiso   1.00
O685   O     0.12975   0.24619   0.75298   0.00000  Uiso   1.00
O686   O     0.20358   0.08714   0.74701   0.00000  Uiso   1.00
O687   O     0.22613   0.23721   0.74518   0.00000  Uiso   1.00
O688   O     0.10720   0.09613   0.75481   0.00000  Uiso   1.00
C689   C     0.18175   0.26457   0.75130   0.00000  Uiso   1.00
C690   C     0.15208   0.06888   0.75410   0.00000  Uiso   1.00
O691   O     0.11847   0.17117   0.81997   0.00000  Uiso   1.00
O692   O     0.21486   0.16216   0.68002   0.00000  Uiso   1.00
O693   O     0.21485   0.16219   0.81217   0.00000  Uiso   1.00
O694   O     0.11848   0.17115   0.68782   0.00000  Uiso   1.00
C695   C     0.16743   0.16730   0.83629   0.00000  Uiso   1.00
C696   C     0.16622   0.16789   0.66350   0.00000  Uiso   1.00
Zn697  Zn    0.10231   0.17266   0.75521   0.00000  Uiso   1.00
Zn698  Zn    0.23102   0.16067   0.74479   0.00000  Uiso   1.00
C699   C     0.13038   0.13253   0.59293   0.00000  Uiso   1.00
C700   C     0.18392   0.21890   0.90539   0.00000  Uiso   1.00
C701   C     0.16433   0.17018   0.61521   0.00000  Uiso   1.00
C702   C     0.16814   0.17131   0.88428   0.00000  Uiso   1.00
C703   C     0.19238   0.21234   0.59266   0.00000  Uiso   1.00
C704   C     0.14251   0.12995   0.90847   0.00000  Uiso   1.00
C705   C     0.18008   0.22069   0.54782   0.00000  Uiso   1.00
C706   C     0.12561   0.13855   0.95393   0.00000  Uiso   1.00
C707   C     0.14967   0.18101   0.52435   0.00000  Uiso   1.00
C708   C     0.15172   0.18098   0.97712   0.00000  Uiso   1.00
C709   C     0.11997   0.13954   0.54756   0.00000  Uiso   1.00
C710   C     0.18220   0.22156   0.95307   0.00000  Uiso   1.00
C711   C     0.19904   0.26614   0.52478   0.00000  Uiso   1.00
C712   C     0.08308   0.10692   0.97699   0.00000  Uiso   1.00
C713   C     0.20607   0.26437   0.97764   0.00000  Uiso   1.00
C714   C     0.08118   0.10646   0.52413   0.00000  Uiso   1.00
C715   C     0.19092   0.31868   0.75636   0.00000  Uiso   1.00
C716   C     0.14561   0.01548   0.76367   0.00000  Uiso   1.00
N717   N     0.31678   0.15265   0.73783   0.00000  Uiso   1.00
N718   N     0.01656   0.18068   0.76217   0.00000  Uiso   1.00
C719   C     0.11471   0.08121   0.61514   0.00000  Uiso   1.00
H720   H     0.13967   0.07470   0.64458   0.00000  Uiso   1.00
H721   H     0.06910   0.07847   0.62616   0.00000  Uiso   1.00
H722   H     0.12346   0.04893   0.59103   0.00000  Uiso   1.00
C723   C     0.19663   0.26671   0.87735   0.00000  Uiso   1.00
H724   H     0.18187   0.26229   0.84295   0.00000  Uiso   1.00
H725   H     0.17319   0.29932   0.89288   0.00000  Uiso   1.00
H726   H     0.24305   0.27669   0.87391   0.00000  Uiso   1.00
C727   C     0.24146   0.24199   0.61454   0.00000  Uiso   1.00
H728   H     0.26983   0.26484   0.59058   0.00000  Uiso   1.00
H729   H     0.22495   0.26712   0.64285   0.00000  Uiso   1.00
H730   H     0.27073   0.21477   0.62721   0.00000  Uiso   1.00
C731   C     0.13780   0.07664   0.88595   0.00000  Uiso   1.00
H732   H     0.12904   0.04578   0.91079   0.00000  Uiso   1.00
H733   H     0.10400   0.07478   0.86159   0.00000  Uiso   1.00
H734   H     0.17905   0.06816   0.86745   0.00000  Uiso   1.00
C735   C     0.20576   0.31836   0.54858   0.00000  Uiso   1.00
H736   H     0.18915   0.31747   0.58432   0.00000  Uiso   1.00
H737   H     0.25109   0.33296   0.54627   0.00000  Uiso   1.00
H738   H     0.18023   0.01298   0.53230   0.00000  Uiso   1.00
C739   C     0.03449   0.08012   0.95278   0.00000  Uiso   1.00
H740   H     0.03206   0.09449   0.91828   0.00000  Uiso   1.00
H741   H     0.03915   0.03779   0.95123   0.00000  Uiso   1.00
H742   H     0.32623   0.08829   0.97083   0.00000  Uiso   1.00
N743   N     0.24428   0.30261   0.95619   0.00000  Uiso   1.00
O744   O     0.22955   0.01665   0.95355   0.00000  Uiso   1.00
O745   O     0.29677   0.29156   0.94513   0.00000  Uiso   1.00
N746   N     0.03615   0.07645   0.54777   0.00000  Uiso   1.00
O747   O     0.03137   0.02659   0.54120   0.00000  Uiso   1.00
O748   O     0.32899   0.09968   0.57094   0.00000  Uiso   1.00
N749   N     0.24916   0.00524   0.75052   0.00000  Uiso   1.00
O750   O     0.27907   0.32873   0.71309   0.00000  Uiso   1.00
O751   O     0.27404   0.02667   0.78471   0.00000  Uiso   1.00
N752   N     0.09015   0.32925   0.78050   0.00000  Uiso   1.00
O753   O     0.08260   0.31135   0.82101   0.00000  Uiso   1.00
O754   O     0.04790   0.32738   0.75449   0.00000  Uiso   1.00
N755   N     0.00915   0.13132   0.69907   0.00000  Uiso   1.00
O756   O     0.00642   0.15428   0.66112   0.00000  Uiso   1.00
O757   O     0.01880   0.08251   0.69834   0.00000  Uiso   1.00
N758   N     0.32490   0.19733   0.80315   0.00000  Uiso   1.00
O759   O     0.33056   0.17114   0.83901   0.00000  Uiso   1.00
O760   O     0.30987   0.24473   0.80784   0.00000  Uiso   1.00
O761   O     0.46308   0.24619   0.75298   0.00000  Uiso   1.00
O762   O     0.53692   0.08714   0.74701   0.00000  Uiso   1.00
O763   O     0.55946   0.23721   0.74518   0.00000  Uiso   1.00
O764   O     0.44054   0.09613   0.75481   0.00000  Uiso   1.00
C765   C     0.51508   0.26457   0.75130   0.00000  Uiso   1.00
C766   C     0.48542   0.06888   0.75410   0.00000  Uiso   1.00
O767   O     0.45181   0.17117   0.81997   0.00000  Uiso   1.00
O768   O     0.54819   0.16216   0.68002   0.00000  Uiso   1.00
O769   O     0.54819   0.16219   0.81217   0.00000  Uiso   1.00
O770   O     0.45181   0.17115   0.68782   0.00000  Uiso   1.00
C771   C     0.50076   0.16730   0.83629   0.00000  Uiso   1.00
C772   C     0.49956   0.16789   0.66350   0.00000  Uiso   1.00
Zn773  Zn    0.43565   0.17266   0.75521   0.00000  Uiso   1.00
Zn774  Zn    0.56435   0.16067   0.74479   0.00000  Uiso   1.00
C775   C     0.46371   0.13253   0.59293   0.00000  Uiso   1.00
C776   C     0.51726   0.21890   0.90539   0.00000  Uiso   1.00
C777   C     0.49766   0.17018   0.61521   0.00000  Uiso   1.00
C778   C     0.50147   0.17131   0.88428   0.00000  Uiso   1.00
C779   C     0.52571   0.21234   0.59266   0.00000  Uiso   1.00
C780   C     0.47585   0.12995   0.90847   0.00000  Uiso   1.00
C781   C     0.51342   0.22069   0.54782   0.00000  Uiso   1.00
C782   C     0.45895   0.13855   0.95393   0.00000  Uiso   1.00
C783   C     0.48300   0.18101   0.52435   0.00000  Uiso   1.00
C784   C     0.48505   0.18098   0.97712   0.00000  Uiso   1.00
C785   C     0.45330   0.13954   0.54756   0.00000  Uiso   1.00
C786   C     0.51553   0.22156   0.95307   0.00000  Uiso   1.00
C787   C     0.53238   0.26614   0.52478   0.00000  Uiso   1.00
C788   C     0.41641   0.10692   0.97699   0.00000  Uiso   1.00
C789   C     0.53940   0.26437   0.97764   0.00000  Uiso   1.00
C790   C     0.41451   0.10646   0.52413   0.00000  Uiso   1.00
C791   C     0.52425   0.31868   0.75636   0.00000  Uiso   1.00
C792   C     0.47894   0.01548   0.76367   0.00000  Uiso   1.00
N793   N     0.65011   0.15265   0.73783   0.00000  Uiso   1.00
N794   N     0.34989   0.18068   0.76217   0.00000  Uiso   1.00
C795   C     0.44804   0.08121   0.61514   0.00000  Uiso   1.00
H796   H     0.47300   0.07470   0.64458   0.00000  Uiso   1.00
H797   H     0.40243   0.07847   0.62616   0.00000  Uiso   1.00
H798   H     0.45679   0.04893   0.59103   0.00000  Uiso   1.00
C799   C     0.52997   0.26671   0.87735   0.00000  Uiso   1.00
H800   H     0.51520   0.26229   0.84295   0.00000  Uiso   1.00
H801   H     0.50652   0.29932   0.89288   0.00000  Uiso   1.00
H802   H     0.57638   0.27669   0.87391   0.00000  Uiso   1.00
C803   C     0.57479   0.24199   0.61454   0.00000  Uiso   1.00
H804   H     0.60316   0.26484   0.59058   0.00000  Uiso   1.00
H805   H     0.55828   0.26712   0.64285   0.00000  Uiso   1.00
H806   H     0.60407   0.21477   0.62721   0.00000  Uiso   1.00
C807   C     0.47113   0.07664   0.88595   0.00000  Uiso   1.00
H808   H     0.46237   0.04578   0.91079   0.00000  Uiso   1.00
H809   H     0.43733   0.07478   0.86159   0.00000  Uiso   1.00
H810   H     0.51238   0.06816   0.86745   0.00000  Uiso   1.00
C811   C     0.53909   0.31836   0.54858   0.00000  Uiso   1.00
H812   H     0.52249   0.31747   0.58432   0.00000  Uiso   1.00
H813   H     0.58442   0.33296   0.54627   0.00000  Uiso   1.00
H814   H     0.51356   0.01298   0.53230   0.00000  Uiso   1.00
C815   C     0.36782   0.08012   0.95278   0.00000  Uiso   1.00
H816   H     0.36539   0.09449   0.91828   0.00000  Uiso   1.00
H817   H     0.37248   0.03779   0.95123   0.00000  Uiso   1.00
H818   H     0.65956   0.08829   0.97083   0.00000  Uiso   1.00
N819   N     0.57761   0.30261   0.95619   0.00000  Uiso   1.00
O820   O     0.56288   0.01665   0.95355   0.00000  Uiso   1.00
O821   O     0.63010   0.29156   0.94513   0.00000  Uiso   1.00
N822   N     0.36949   0.07645   0.54777   0.00000  Uiso   1.00
O823   O     0.36470   0.02659   0.54120   0.00000  Uiso   1.00
O824   O     0.66233   0.09968   0.57094   0.00000  Uiso   1.00
N825   N     0.58249   0.00524   0.75052   0.00000  Uiso   1.00
O826   O     0.61240   0.32873   0.71309   0.00000  Uiso   1.00
O827   O     0.60738   0.02667   0.78471   0.00000  Uiso   1.00
N828   N     0.42348   0.32925   0.78050   0.00000  Uiso   1.00
O829   O     0.41593   0.31135   0.82101   0.00000  Uiso   1.00
O830   O     0.38123   0.32738   0.75449   0.00000  Uiso   1.00
N831   N     0.34249   0.13132   0.69907   0.00000  Uiso   1.00
O832   O     0.33975   0.15428   0.66112   0.00000  Uiso   1.00
O833   O     0.35213   0.08251   0.69834   0.00000  Uiso   1.00
N834   N     0.65823   0.19733   0.80315   0.00000  Uiso   1.00
O835   O     0.66389   0.17114   0.83901   0.00000  Uiso   1.00
O836   O     0.64320   0.24473   0.80784   0.00000  Uiso   1.00
O837   O     0.79642   0.24619   0.75298   0.00000  Uiso   1.00
O838   O     0.87025   0.08714   0.74701   0.00000  Uiso   1.00
O839   O     0.89280   0.23721   0.74518   0.00000  Uiso   1.00
O840   O     0.77387   0.09613   0.75481   0.00000  Uiso   1.00
C841   C     0.84841   0.26457   0.75130   0.00000  Uiso   1.00
C842   C     0.81875   0.06888   0.75410   0.00000  Uiso   1.00
O843   O     0.78514   0.17117   0.81997   0.00000  Uiso   1.00
O844   O     0.88153   0.16216   0.68002   0.00000  Uiso   1.00
O845   O     0.88152   0.16219   0.81217   0.00000  Uiso   1.00
O846   O     0.78515   0.17115   0.68782   0.00000  Uiso   1.00
C847   C     0.83409   0.16730   0.83629   0.00000  Uiso   1.00
C848   C     0.83289   0.16789   0.66350   0.00000  Uiso   1.00
Zn849  Zn    0.76898   0.17266   0.75521   0.00000  Uiso   1.00
Zn850  Zn    0.89769   0.16067   0.74479   0.00000  Uiso   1.00
C851   C     0.79705   0.13253   0.59293   0.00000  Uiso   1.00
C852   C     0.85059   0.21890   0.90539   0.00000  Uiso   1.00
C853   C     0.83099   0.17018   0.61521   0.00000  Uiso   1.00
C854   C     0.83481   0.17131   0.88428   0.00000  Uiso   1.00
C855   C     0.85905   0.21234   0.59266   0.00000  Uiso   1.00
C856   C     0.80918   0.12995   0.90847   0.00000  Uiso   1.00
C857   C     0.84675   0.22069   0.54782   0.00000  Uiso   1.00
C858   C     0.79228   0.13855   0.95393   0.00000  Uiso   1.00
C859   C     0.81633   0.18101   0.52435   0.00000  Uiso   1.00
C860   C     0.81838   0.18098   0.97712   0.00000  Uiso   1.00
C861   C     0.78663   0.13954   0.54756   0.00000  Uiso   1.00
C862   C     0.84887   0.22156   0.95307   0.00000  Uiso   1.00
C863   C     0.86571   0.26614   0.52478   0.00000  Uiso   1.00
C864   C     0.74975   0.10692   0.97699   0.00000  Uiso   1.00
C865   C     0.87274   0.26437   0.97764   0.00000  Uiso   1.00
C866   C     0.74785   0.10646   0.52413   0.00000  Uiso   1.00
C867   C     0.85758   0.31868   0.75636   0.00000  Uiso   1.00
C868   C     0.81227   0.01548   0.76367   0.00000  Uiso   1.00
N869   N     0.98344   0.15265   0.73783   0.00000  Uiso   1.00
N870   N     0.68322   0.18068   0.76217   0.00000  Uiso   1.00
C871   C     0.78137   0.08121   0.61514   0.00000  Uiso   1.00
H872   H     0.80633   0.07470   0.64458   0.00000  Uiso   1.00
H873   H     0.73576   0.07847   0.62616   0.00000  Uiso   1.00
H874   H     0.79013   0.04893   0.59103   0.00000  Uiso   1.00
C875   C     0.86330   0.26671   0.87735   0.00000  Uiso   1.00
H876   H     0.84853   0.26229   0.84295   0.00000  Uiso   1.00
H877   H     0.83986   0.29932   0.89288   0.00000  Uiso   1.00
H878   H     0.90972   0.27669   0.87391   0.00000  Uiso   1.00
C879   C     0.90812   0.24199   0.61454   0.00000  Uiso   1.00
H880   H     0.93649   0.26484   0.59058   0.00000  Uiso   1.00
H881   H     0.89161   0.26712   0.64285   0.00000  Uiso   1.00
H882   H     0.93740   0.21477   0.62721   0.00000  Uiso   1.00
C883   C     0.80447   0.07664   0.88595   0.00000  Uiso   1.00
H884   H     0.79571   0.04578   0.91079   0.00000  Uiso   1.00
H885   H     0.77067   0.07478   0.86159   0.00000  Uiso   1.00
H886   H     0.84571   0.06816   0.86745   0.00000  Uiso   1.00
C887   C     0.87242   0.31836   0.54858   0.00000  Uiso   1.00
H888   H     0.85582   0.31747   0.58432   0.00000  Uiso   1.00
H889   H     0.91775   0.33296   0.54627   0.00000  Uiso   1.00
H890   H     0.84689   0.01298   0.53230   0.00000  Uiso   1.00
C891   C     0.70115   0.08012   0.95278   0.00000  Uiso   1.00
H892   H     0.69873   0.09449   0.91828   0.00000  Uiso   1.00
H893   H     0.70582   0.03779   0.95123   0.00000  Uiso   1.00
H894   H     0.99290   0.08829   0.97083   0.00000  Uiso   1.00
N895   N     0.91095   0.30261   0.95619   0.00000  Uiso   1.00
O896   O     0.89622   0.01665   0.95355   0.00000  Uiso   1.00
O897   O     0.96344   0.29156   0.94513   0.00000  Uiso   1.00
N898   N     0.70282   0.07645   0.54777   0.00000  Uiso   1.00
O899   O     0.69803   0.02659   0.54120   0.00000  Uiso   1.00
O900   O     0.99566   0.09968   0.57094   0.00000  Uiso   1.00
N901   N     0.91583   0.00524   0.75052   0.00000  Uiso   1.00
O902   O     0.94573   0.32873   0.71309   0.00000  Uiso   1.00
O903   O     0.94071   0.02667   0.78471   0.00000  Uiso   1.00
N904   N     0.75681   0.32925   0.78050   0.00000  Uiso   1.00
O905   O     0.74926   0.31135   0.82101   0.00000  Uiso   1.00
O906   O     0.71456   0.32738   0.75449   0.00000  Uiso   1.00
N907   N     0.67582   0.13132   0.69907   0.00000  Uiso   1.00
O908   O     0.67308   0.15428   0.66112   0.00000  Uiso   1.00
O909   O     0.68547   0.08251   0.69834   0.00000  Uiso   1.00
N910   N     0.99157   0.19733   0.80315   0.00000  Uiso   1.00
O911   O     0.99723   0.17114   0.83901   0.00000  Uiso   1.00
O912   O     0.97654   0.24473   0.80784   0.00000  Uiso   1.00
O913   O     0.12975   0.57952   0.75298   0.00000  Uiso   1.00
O914   O     0.20358   0.42048   0.74701   0.00000  Uiso   1.00
O915   O     0.22613   0.57054   0.74518   0.00000  Uiso   1.00
O916   O     0.10720   0.42946   0.75481   0.00000  Uiso   1.00
C917   C     0.18175   0.59790   0.75130   0.00000  Uiso   1.00
C918   C     0.15208   0.40221   0.75410   0.00000  Uiso   1.00
O919   O     0.11847   0.50450   0.81997   0.00000  Uiso   1.00
O920   O     0.21486   0.49550   0.68002   0.00000  Uiso   1.00
O921   O     0.21485   0.49552   0.81217   0.00000  Uiso   1.00
O922   O     0.11848   0.50448   0.68782   0.00000  Uiso   1.00
C923   C     0.16743   0.50064   0.83629   0.00000  Uiso   1.00
C924   C     0.16622   0.50122   0.66350   0.00000  Uiso   1.00
Zn925  Zn    0.10231   0.50600   0.75521   0.00000  Uiso   1.00
Zn926  Zn    0.23102   0.49400   0.74479   0.00000  Uiso   1.00
C927   C     0.13038   0.46586   0.59293   0.00000  Uiso   1.00
C928   C     0.18392   0.55223   0.90539   0.00000  Uiso   1.00
C929   C     0.16433   0.50352   0.61521   0.00000  Uiso   1.00
C930   C     0.16814   0.50464   0.88428   0.00000  Uiso   1.00
C931   C     0.19238   0.54567   0.59266   0.00000  Uiso   1.00
C932   C     0.14251   0.46328   0.90847   0.00000  Uiso   1.00
C933   C     0.18008   0.55402   0.54782   0.00000  Uiso   1.00
C934   C     0.12561   0.47188   0.95393   0.00000  Uiso   1.00
C935   C     0.14967   0.51434   0.52435   0.00000  Uiso   1.00
C936   C     0.15172   0.51431   0.97712   0.00000  Uiso   1.00
C937   C     0.11997   0.47288   0.54756   0.00000  Uiso   1.00
C938   C     0.18220   0.55489   0.95307   0.00000  Uiso   1.00
C939   C     0.19904   0.59947   0.52478   0.00000  Uiso   1.00
C940   C     0.08308   0.44026   0.97699   0.00000  Uiso   1.00
C941   C     0.20607   0.59770   0.97764   0.00000  Uiso   1.00
C942   C     0.08118   0.43979   0.52413   0.00000  Uiso   1.00
C943   C     0.19092   0.65201   0.75636   0.00000  Uiso   1.00
C944   C     0.14561   0.34881   0.76367   0.00000  Uiso   1.00
N945   N     0.31678   0.48598   0.73783   0.00000  Uiso   1.00
N946   N     0.01656   0.51402   0.76217   0.00000  Uiso   1.00
C947   C     0.11471   0.41454   0.61514   0.00000  Uiso   1.00
H948   H     0.13967   0.40803   0.64458   0.00000  Uiso   1.00
H949   H     0.06910   0.41180   0.62616   0.00000  Uiso   1.00
H950   H     0.12346   0.38226   0.59103   0.00000  Uiso   1.00
C951   C     0.19663   0.60004   0.87735   0.00000  Uiso   1.00
H952   H     0.18187   0.59562   0.84295   0.00000  Uiso   1.00
H953   H     0.17319   0.63266   0.89288   0.00000  Uiso   1.00
H954   H     0.24305   0.61002   0.87391   0.00000  Uiso   1.00
C955   C     0.24146   0.57532   0.61454   0.00000  Uiso   1.00
H956   H     0.26983   0.59817   0.59058   0.00000  Uiso   1.00
H957   H     0.22495   0.60045   0.64285   0.00000  Uiso   1.00
H958   H     0.27073   0.54810   0.62721   0.00000  Uiso   1.00
C959   C     0.13780   0.40997   0.88595   0.00000  Uiso   1.00
H960   H     0.12904   0.37911   0.91079   0.00000  Uiso   1.00
H961   H     0.10400   0.40812   0.86159   0.00000  Uiso   1.00
H962   H     0.17905   0.40149   0.86745   0.00000  Uiso   1.00
C963   C     0.20576   0.65170   0.54858   0.00000  Uiso   1.00
H964   H     0.18915   0.65081   0.58432   0.00000  Uiso   1.00
H965   H     0.25109   0.66629   0.54627   0.00000  Uiso   1.00
H966   H     0.18023   0.34631   0.53230   0.00000  Uiso   1.00
C967   C     0.03449   0.41345   0.95278   0.00000  Uiso   1.00
H968   H     0.03206   0.42782   0.91828   0.00000  Uiso   1.00
H969   H     0.03915   0.37112   0.95123   0.00000  Uiso   1.00
H970   H     0.32623   0.42162   0.97083   0.00000  Uiso   1.00
N971   N     0.24428   0.63594   0.95619   0.00000  Uiso   1.00
O972   O     0.22955   0.34998   0.95355   0.00000  Uiso   1.00
O973   O     0.29677   0.62490   0.94513   0.00000  Uiso   1.00
N974   N     0.03615   0.40978   0.54777   0.00000  Uiso   1.00
O975   O     0.03137   0.35992   0.54120   0.00000  Uiso   1.00
O976   O     0.32899   0.43301   0.57094   0.00000  Uiso   1.00
N977   N     0.24916   0.33857   0.75052   0.00000  Uiso   1.00
O978   O     0.27907   0.66207   0.71309   0.00000  Uiso   1.00
O979   O     0.27404   0.36000   0.78471   0.00000  Uiso   1.00
N980   N     0.09015   0.66259   0.78050   0.00000  Uiso   1.00
O981   O     0.08260   0.64469   0.82101   0.00000  Uiso   1.00
O982   O     0.04790   0.66071   0.75449   0.00000  Uiso   1.00
N983   N     0.00915   0.46466   0.69907   0.00000  Uiso   1.00
O984   O     0.00642   0.48761   0.66112   0.00000  Uiso   1.00
O985   O     0.01880   0.41585   0.69834   0.00000  Uiso   1.00
N986   N     0.32490   0.53067   0.80315   0.00000  Uiso   1.00
O987   O     0.33056   0.50447   0.83901   0.00000  Uiso   1.00
O988   O     0.30987   0.57806   0.80784   0.00000  Uiso   1.00
O989   O     0.46308   0.57952   0.75298   0.00000  Uiso   1.00
O990   O     0.53692   0.42048   0.74701   0.00000  Uiso   1.00
O991   O     0.55946   0.57054   0.74518   0.00000  Uiso   1.00
O992   O     0.44054   0.42946   0.75481   0.00000  Uiso   1.00
C993   C     0.51508   0.59790   0.75130   0.00000  Uiso   1.00
C994   C     0.48542   0.40221   0.75410   0.00000  Uiso   1.00
O995   O     0.45181   0.50450   0.81997   0.00000  Uiso   1.00
O996   O     0.54819   0.49550   0.68002   0.00000  Uiso   1.00
O997   O     0.54819   0.49552   0.81217   0.00000  Uiso   1.00
O998   O     0.45181   0.50448   0.68782   0.00000  Uiso   1.00
C999   C     0.50076   0.50064   0.83629   0.00000  Uiso   1.00
C1000  C     0.49956   0.50122   0.66350   0.00000  Uiso   1.00
Zn1001 Zn    0.43565   0.50600   0.75521   0.00000  Uiso   1.00
Zn1002 Zn    0.56435   0.49400   0.74479   0.00000  Uiso   1.00
C1003  C     0.46371   0.46586   0.59293   0.00000  Uiso   1.00
C1004  C     0.51726   0.55223   0.90539   0.00000  Uiso   1.00
C1005  C     0.49766   0.50352   0.61521   0.00000  Uiso   1.00
C1006  C     0.50147   0.50464   0.88428   0.00000  Uiso   1.00
C1007  C     0.52571   0.54567   0.59266   0.00000  Uiso   1.00
C1008  C     0.47585   0.46328   0.90847   0.00000  Uiso   1.00
C1009  C     0.51342   0.55402   0.54782   0.00000  Uiso   1.00
C1010  C     0.45895   0.47188   0.95393   0.00000  Uiso   1.00
C1011  C     0.48300   0.51434   0.52435   0.00000  Uiso   1.00
C1012  C     0.48505   0.51431   0.97712   0.00000  Uiso   1.00
C1013  C     0.45330   0.47288   0.54756   0.00000  Uiso   1.00
C1014  C     0.51553   0.55489   0.95307   0.00000  Uiso   1.00
C1015  C     0.53238   0.59947   0.52478   0.00000  Uiso   1.00
C1016  C     0.41641   0.44026   0.97699   0.00000  Uiso   1.00
C1017  C     0.53940   0.59770   0.97764   0.00000  Uiso   1.00
C1018  C     0.41451   0.43979   0.52413   0.00000  Uiso   1.00
C1019  C     0.52425   0.65201   0.75636   0.00000  Uiso   1.00
C1020  C     0.47894   0.34881   0.76367   0.00000  Uiso   1.00
N1021  N     0.65011   0.48598   0.73783   0.00000  Uiso   1.00
N1022  N     0.34989   0.51402   0.76217   0.00000  Uiso   1.00
C1023  C     0.44804   0.41454   0.61514   0.00000  Uiso   1.00
H1024  H     0.47300   0.40803   0.64458   0.00000  Uiso   1.00
H1025  H     0.40243   0.41180   0.62616   0.00000  Uiso   1.00
H1026  H     0.45679   0.38226   0.59103   0.00000  Uiso   1.00
C1027  C     0.52997   0.60004   0.87735   0.00000  Uiso   1.00
H1028  H     0.51520   0.59562   0.84295   0.00000  Uiso   1.00
H1029  H     0.50652   0.63266   0.89288   0.00000  Uiso   1.00
H1030  H     0.57638   0.61002   0.87391   0.00000  Uiso   1.00
C1031  C     0.57479   0.57532   0.61454   0.00000  Uiso   1.00
H1032  H     0.60316   0.59817   0.59058   0.00000  Uiso   1.00
H1033  H     0.55828   0.60045   0.64285   0.00000  Uiso   1.00
H1034  H     0.60407   0.54810   0.62721   0.00000  Uiso   1.00
C1035  C     0.47113   0.40997   0.88595   0.00000  Uiso   1.00
H1036  H     0.46237   0.37911   0.91079   0.00000  Uiso   1.00
H1037  H     0.43733   0.40812   0.86159   0.00000  Uiso   1.00
H1038  H     0.51238   0.40149   0.86745   0.00000  Uiso   1.00
C1039  C     0.53909   0.65170   0.54858   0.00000  Uiso   1.00
H1040  H     0.52249   0.65081   0.58432   0.00000  Uiso   1.00
H1041  H     0.58442   0.66629   0.54627   0.00000  Uiso   1.00
H1042  H     0.51356   0.34631   0.53230   0.00000  Uiso   1.00
C1043  C     0.36782   0.41345   0.95278   0.00000  Uiso   1.00
H1044  H     0.36539   0.42782   0.91828   0.00000  Uiso   1.00
H1045  H     0.37248   0.37112   0.95123   0.00000  Uiso   1.00
H1046  H     0.65956   0.42162   0.97083   0.00000  Uiso   1.00
N1047  N     0.57761   0.63594   0.95619   0.00000  Uiso   1.00
O1048  O     0.56288   0.34998   0.95355   0.00000  Uiso   1.00
O1049  O     0.63010   0.62490   0.94513   0.00000  Uiso   1.00
N1050  N     0.36949   0.40978   0.54777   0.00000  Uiso   1.00
O1051  O     0.36470   0.35992   0.54120   0.00000  Uiso   1.00
O1052  O     0.66233   0.43301   0.57094   0.00000  Uiso   1.00
N1053  N     0.58249   0.33857   0.75052   0.00000  Uiso   1.00
O1054  O     0.61240   0.66207   0.71309   0.00000  Uiso   1.00
O1055  O     0.60738   0.36000   0.78471   0.00000  Uiso   1.00
N1056  N     0.42348   0.66259   0.78050   0.00000  Uiso   1.00
O1057  O     0.41593   0.64469   0.82101   0.00000  Uiso   1.00
O1058  O     0.38123   0.66071   0.75449   0.00000  Uiso   1.00
N1059  N     0.34249   0.46466   0.69907   0.00000  Uiso   1.00
O1060  O     0.33975   0.48761   0.66112   0.00000  Uiso   1.00
O1061  O     0.35213   0.41585   0.69834   0.00000  Uiso   1.00
N1062  N     0.65823   0.53067   0.80315   0.00000  Uiso   1.00
O1063  O     0.66389   0.50447   0.83901   0.00000  Uiso   1.00
O1064  O     0.64320   0.57806   0.80784   0.00000  Uiso   1.00
O1065  O     0.79642   0.57952   0.75298   0.00000  Uiso   1.00
O1066  O     0.87025   0.42048   0.74701   0.00000  Uiso   1.00
O1067  O     0.89280   0.57054   0.74518   0.00000  Uiso   1.00
O1068  O     0.77387   0.42946   0.75481   0.00000  Uiso   1.00
C1069  C     0.84841   0.59790   0.75130   0.00000  Uiso   1.00
C1070  C     0.81875   0.40221   0.75410   0.00000  Uiso   1.00
O1071  O     0.78514   0.50450   0.81997   0.00000  Uiso   1.00
O1072  O     0.88153   0.49550   0.68002   0.00000  Uiso   1.00
O1073  O     0.88152   0.49552   0.81217   0.00000  Uiso   1.00
O1074  O     0.78515   0.50448   0.68782   0.00000  Uiso   1.00
C1075  C     0.83409   0.50064   0.83629   0.00000  Uiso   1.00
C1076  C     0.83289   0.50122   0.66350   0.00000  Uiso   1.00
Zn1077 Zn    0.76898   0.50600   0.75521   0.00000  Uiso   1.00
Zn1078 Zn    0.89769   0.49400   0.74479   0.00000  Uiso   1.00
C1079  C     0.79705   0.46586   0.59293   0.00000  Uiso   1.00
C1080  C     0.85059   0.55223   0.90539   0.00000  Uiso   1.00
C1081  C     0.83099   0.50352   0.61521   0.00000  Uiso   1.00
C1082  C     0.83481   0.50464   0.88428   0.00000  Uiso   1.00
C1083  C     0.85905   0.54567   0.59266   0.00000  Uiso   1.00
C1084  C     0.80918   0.46328   0.90847   0.00000  Uiso   1.00
C1085  C     0.84675   0.55402   0.54782   0.00000  Uiso   1.00
C1086  C     0.79228   0.47188   0.95393   0.00000  Uiso   1.00
C1087  C     0.81633   0.51434   0.52435   0.00000  Uiso   1.00
C1088  C     0.81838   0.51431   0.97712   0.00000  Uiso   1.00
C1089  C     0.78663   0.47288   0.54756   0.00000  Uiso   1.00
C1090  C     0.84887   0.55489   0.95307   0.00000  Uiso   1.00
C1091  C     0.86571   0.59947   0.52478   0.00000  Uiso   1.00
C1092  C     0.74975   0.44026   0.97699   0.00000  Uiso   1.00
C1093  C     0.87274   0.59770   0.97764   0.00000  Uiso   1.00
C1094  C     0.74785   0.43979   0.52413   0.00000  Uiso   1.00
C1095  C     0.85758   0.65201   0.75636   0.00000  Uiso   1.00
C1096  C     0.81227   0.34881   0.76367   0.00000  Uiso   1.00
N1097  N     0.98344   0.48598   0.73783   0.00000  Uiso   1.00
N1098  N     0.68322   0.51402   0.76217   0.00000  Uiso   1.00
C1099  C     0.78137   0.41454   0.61514   0.00000  Uiso   1.00
H1100  H     0.80633   0.40803   0.64458   0.00000  Uiso   1.00
H1101  H     0.73576   0.41180   0.62616   0.00000  Uiso   1.00
H1102  H     0.79013   0.38226   0.59103   0.00000  Uiso   1.00
C1103  C     0.86330   0.60004   0.87735   0.00000  Uiso   1.00
H1104  H     0.84853   0.59562   0.84295   0.00000  Uiso   1.00
H1105  H     0.83986   0.63266   0.89288   0.00000  Uiso   1.00
H1106  H     0.90972   0.61002   0.87391   0.00000  Uiso   1.00
C1107  C     0.90812   0.57532   0.61454   0.00000  Uiso   1.00
H1108  H     0.93649   0.59817   0.59058   0.00000  Uiso   1.00
H1109  H     0.89161   0.60045   0.64285   0.00000  Uiso   1.00
H1110  H     0.93740   0.54810   0.62721   0.00000  Uiso   1.00
C1111  C     0.80447   0.40997   0.88595   0.00000  Uiso   1.00
H1112  H     0.79571   0.37911   0.91079   0.00000  Uiso   1.00
H1113  H     0.77067   0.40812   0.86159   0.00000  Uiso   1.00
H1114  H     0.84571   0.40149   0.86745   0.00000  Uiso   1.00
C1115  C     0.87242   0.65170   0.54858   0.00000  Uiso   1.00
H1116  H     0.85582   0.65081   0.58432   0.00000  Uiso   1.00
H1117  H     0.91775   0.66629   0.54627   0.00000  Uiso   1.00
H1118  H     0.84689   0.34631   0.53230   0.00000  Uiso   1.00
C1119  C     0.70115   0.41345   0.95278   0.00000  Uiso   1.00
H1120  H     0.69873   0.42782   0.91828   0.00000  Uiso   1.00
H1121  H     0.70582   0.37112   0.95123   0.00000  Uiso   1.00
H1122  H     0.99290   0.42162   0.97083   0.00000  Uiso   1.00
N1123  N     0.91095   0.63594   0.95619   0.00000  Uiso   1.00
O1124  O     0.89622   0.34998   0.95355   0.00000  Uiso   1.00
O1125  O     0.96344   0.62490   0.94513   0.00000  Uiso   1.00
N1126  N     0.70282   0.40978   0.54777   0.00000  Uiso   1.00
O1127  O     0.69803   0.35992   0.54120   0.00000  Uiso   1.00
O1128  O     0.99566   0.43301   0.57094   0.00000  Uiso   1.00
N1129  N     0.91583   0.33857   0.75052   0.00000  Uiso   1.00
O1130  O     0.94573   0.66207   0.71309   0.00000  Uiso   1.00
O1131  O     0.94071   0.36000   0.78471   0.00000  Uiso   1.00
N1132  N     0.75681   0.66259   0.78050   0.00000  Uiso   1.00
O1133  O     0.74926   0.64469   0.82101   0.00000  Uiso   1.00
O1134  O     0.71456   0.66071   0.75449   0.00000  Uiso   1.00
N1135  N     0.67582   0.46466   0.69907   0.00000  Uiso   1.00
O1136  O     0.67308   0.48761   0.66112   0.00000  Uiso   1.00
O1137  O     0.68547   0.41585   0.69834   0.00000  Uiso   1.00
N1138  N     0.99157   0.53067   0.80315   0.00000  Uiso   1.00
O1139  O     0.99723   0.50447   0.83901   0.00000  Uiso   1.00
O1140  O     0.97654   0.57806   0.80784   0.00000  Uiso   1.00
O1141  O     0.12975   0.91286   0.75298   0.00000  Uiso   1.00
O1142  O     0.20358   0.75381   0.74701   0.00000  Uiso   1.00
O1143  O     0.22613   0.90387   0.74518   0.00000  Uiso   1.00
O1144  O     0.10720   0.76279   0.75481   0.00000  Uiso   1.00
C1145  C     0.18175   0.93123   0.75130   0.00000  Uiso   1.00
C1146  C     0.15208   0.73555   0.75410   0.00000  Uiso   1.00
O1147  O     0.11847   0.83784   0.81997   0.00000  Uiso   1.00
O1148  O     0.21486   0.82883   0.68002   0.00000  Uiso   1.00
O1149  O     0.21485   0.82885   0.81217   0.00000  Uiso   1.00
O1150  O     0.11848   0.83781   0.68782   0.00000  Uiso   1.00
C1151  C     0.16743   0.83397   0.83629   0.00000  Uiso   1.00
C1152  C     0.16622   0.83456   0.66350   0.00000  Uiso   1.00
Zn1153 Zn    0.10231   0.83933   0.75521   0.00000  Uiso   1.00
Zn1154 Zn    0.23102   0.82734   0.74479   0.00000  Uiso   1.00
C1155  C     0.13038   0.79919   0.59293   0.00000  Uiso   1.00
C1156  C     0.18392   0.88556   0.90539   0.00000  Uiso   1.00
C1157  C     0.16433   0.83685   0.61521   0.00000  Uiso   1.00
C1158  C     0.16814   0.83798   0.88428   0.00000  Uiso   1.00
C1159  C     0.19238   0.87900   0.59266   0.00000  Uiso   1.00
C1160  C     0.14251   0.79662   0.90847   0.00000  Uiso   1.00
C1161  C     0.18008   0.88735   0.54782   0.00000  Uiso   1.00
C1162  C     0.12561   0.80522   0.95393   0.00000  Uiso   1.00
C1163  C     0.14967   0.84767   0.52435   0.00000  Uiso   1.00
C1164  C     0.15172   0.84765   0.97712   0.00000  Uiso   1.00
C1165  C     0.11997   0.80621   0.54756   0.00000  Uiso   1.00
C1166  C     0.18220   0.88822   0.95307   0.00000  Uiso   1.00
C1167  C     0.19904   0.93281   0.52478   0.00000  Uiso   1.00
C1168  C     0.08308   0.77359   0.97699   0.00000  Uiso   1.00
C1169  C     0.20607   0.93103   0.97764   0.00000  Uiso   1.00
C1170  C     0.08118   0.77313   0.52413   0.00000  Uiso   1.00
C1171  C     0.19092   0.98534   0.75636   0.00000  Uiso   1.00
C1172  C     0.14561   0.68214   0.76367   0.00000  Uiso   1.00
N1173  N     0.31678   0.81932   0.73783   0.00000  Uiso   1.00
N1174  N     0.01656   0.84735   0.76217   0.00000  Uiso   1.00
C1175  C     0.11471   0.74787   0.61514   0.00000  Uiso   1.00
H1176  H     0.13967   0.74137   0.64458   0.00000  Uiso   1.00
H1177  H     0.06910   0.74514   0.62616   0.00000  Uiso   1.00
H1178  H     0.12346   0.71560   0.59103   0.00000  Uiso   1.00
C1179  C     0.19663   0.93338   0.87735   0.00000  Uiso   1.00
H1180  H     0.18187   0.92896   0.84295   0.00000  Uiso   1.00
H1181  H     0.17319   0.96599   0.89288   0.00000  Uiso   1.00
H1182  H     0.24305   0.94335   0.87391   0.00000  Uiso   1.00
C1183  C     0.24146   0.90865   0.61454   0.00000  Uiso   1.00
H1184  H     0.26983   0.93151   0.59058   0.00000  Uiso   1.00
H1185  H     0.22495   0.93378   0.64285   0.00000  Uiso   1.00
H1186  H     0.27073   0.88144   0.62721   0.00000  Uiso   1.00
C1187  C     0.13780   0.74330   0.88595   0.00000  Uiso   1.00
H1188  H     0.12904   0.71244   0.91079   0.00000  Uiso   1.00
H1189  H     0.10400   0.74145   0.86159   0.00000  Uiso   1.00
H1190  H     0.17905   0.73482   0.86745   0.00000  Uiso   1.00
C1191  C     0.20576   0.98503   0.54858   0.00000  Uiso   1.00
H1192  H     0.18915   0.98414   0.58432   0.00000  Uiso   1.00
H1193  H     0.25109   0.99963   0.54627   0.00000  Uiso   1.00
H1194  H     0.18023   0.67965   0.53230   0.00000  Uiso   1.00
C1195  C     0.03449   0.74679   0.95278   0.00000  Uiso   1.00
H1196  H     0.03206   0.76116   0.91828   0.00000  Uiso   1.00
H1197  H     0.03915   0.70446   0.95123   0.00000  Uiso   1.00
H1198  H     0.32623   0.75495   0.97083   0.00000  Uiso   1.00
N1199  N     0.24428   0.96927   0.95619   0.00000  Uiso   1.00
O1200  O     0.22955   0.68331   0.95355   0.00000  Uiso   1.00
O1201  O     0.29677   0.95823   0.94513   0.00000  Uiso   1.00
N1202  N     0.03615   0.74311   0.54777   0.00000  Uiso   1.00
O1203  O     0.03137   0.69325   0.54120   0.00000  Uiso   1.00
O1204  O     0.32899   0.76634   0.57094   0.00000  Uiso   1.00
N1205  N     0.24916   0.67190   0.75052   0.00000  Uiso   1.00
O1206  O     0.27907   0.99540   0.71309   0.00000  Uiso   1.00
O1207  O     0.27404   0.69334   0.78471   0.00000  Uiso   1.00
N1208  N     0.09015   0.99592   0.78050   0.00000  Uiso   1.00
O1209  O     0.08260   0.97802   0.82101   0.00000  Uiso   1.00
O1210  O     0.04790   0.99405   0.75449   0.00000  Uiso   1.00
N1211  N     0.00915   0.79799   0.69907   0.00000  Uiso   1.00
O1212  O     0.00642   0.82094   0.66112   0.00000  Uiso   1.00
O1213  O     0.01880   0.74918   0.69834   0.00000  Uiso   1.00
N1214  N     0.32490   0.86400   0.80315   0.00000  Uiso   1.00
O1215  O     0.33056   0.83780   0.83901   0.00000  Uiso   1.00
O1216  O     0.30987   0.91140   0.80784   0.00000  Uiso   1.00
O1217  O     0.46308   0.91286   0.75298   0.00000  Uiso   1.00
O1218  O     0.53692   0.75381   0.74701   0.00000  Uiso   1.00
O1219  O     0.55946   0.90387   0.74518   0.00000  Uiso   1.00
O1220  O     0.44054   0.76279   0.75481   0.00000  Uiso   1.00
C1221  C     0.51508   0.93123   0.75130   0.00000  Uiso   1.00
C1222  C     0.48542   0.73555   0.75410   0.00000  Uiso   1.00
O1223  O     0.45181   0.83784   0.81997   0.00000  Uiso   1.00
O1224  O     0.54819   0.82883   0.68002   0.00000  Uiso   1.00
O1225  O     0.54819   0.82885   0.81217   0.00000  Uiso   1.00
O1226  O     0.45181   0.83781   0.68782   0.00000  Uiso   1.00
C1227  C     0.50076   0.83397   0.83629   0.00000  Uiso   1.00
C1228  C     0.49956   0.83456   0.66350   0.00000  Uiso   1.00
Zn1229 Zn    0.43565   0.83933   0.75521   0.00000  Uiso   1.00
Zn1230 Zn    0.56435   0.82734   0.74479   0.00000  Uiso   1.00
C1231  C     0.46371   0.79919   0.59293   0.00000  Uiso   1.00
C1232  C     0.51726   0.88556   0.90539   0.00000  Uiso   1.00
C1233  C     0.49766   0.83685   0.61521   0.00000  Uiso   1.00
C1234  C     0.50147   0.83798   0.88428   0.00000  Uiso   1.00
C1235  C     0.52571   0.87900   0.59266   0.00000  Uiso   1.00
C1236  C     0.47585   0.79662   0.90847   0.00000  Uiso   1.00
C1237  C     0.51342   0.88735   0.54782   0.00000  Uiso   1.00
C1238  C     0.45895   0.80522   0.95393   0.00000  Uiso   1.00
C1239  C     0.48300   0.84767   0.52435   0.00000  Uiso   1.00
C1240  C     0.48505   0.84765   0.97712   0.00000  Uiso   1.00
C1241  C     0.45330   0.80621   0.54756   0.00000  Uiso   1.00
C1242  C     0.51553   0.88822   0.95307   0.00000  Uiso   1.00
C1243  C     0.53238   0.93281   0.52478   0.00000  Uiso   1.00
C1244  C     0.41641   0.77359   0.97699   0.00000  Uiso   1.00
C1245  C     0.53940   0.93103   0.97764   0.00000  Uiso   1.00
C1246  C     0.41451   0.77313   0.52413   0.00000  Uiso   1.00
C1247  C     0.52425   0.98534   0.75636   0.00000  Uiso   1.00
C1248  C     0.47894   0.68214   0.76367   0.00000  Uiso   1.00
N1249  N     0.65011   0.81932   0.73783   0.00000  Uiso   1.00
N1250  N     0.34989   0.84735   0.76217   0.00000  Uiso   1.00
C1251  C     0.44804   0.74787   0.61514   0.00000  Uiso   1.00
H1252  H     0.47300   0.74137   0.64458   0.00000  Uiso   1.00
H1253  H     0.40243   0.74514   0.62616   0.00000  Uiso   1.00
H1254  H     0.45679   0.71560   0.59103   0.00000  Uiso   1.00
C1255  C     0.52997   0.93338   0.87735   0.00000  Uiso   1.00
H1256  H     0.51520   0.92896   0.84295   0.00000  Uiso   1.00
H1257  H     0.50652   0.96599   0.89288   0.00000  Uiso   1.00
H1258  H     0.57638   0.94335   0.87391   0.00000  Uiso   1.00
C1259  C     0.57479   0.90865   0.61454   0.00000  Uiso   1.00
H1260  H     0.60316   0.93151   0.59058   0.00000  Uiso   1.00
H1261  H     0.55828   0.93378   0.64285   0.00000  Uiso   1.00
H1262  H     0.60407   0.88144   0.62721   0.00000  Uiso   1.00
C1263  C     0.47113   0.74330   0.88595   0.00000  Uiso   1.00
H1264  H     0.46237   0.71244   0.91079   0.00000  Uiso   1.00
H1265  H     0.43733   0.74145   0.86159   0.00000  Uiso   1.00
H1266  H     0.51238   0.73482   0.86745   0.00000  Uiso   1.00
C1267  C     0.53909   0.98503   0.54858   0.00000  Uiso   1.00
H1268  H     0.52249   0.98414   0.58432   0.00000  Uiso   1.00
H1269  H     0.58442   0.99963   0.54627   0.00000  Uiso   1.00
H1270  H     0.51356   0.67965   0.53230   0.00000  Uiso   1.00
C1271  C     0.36782   0.74679   0.95278   0.00000  Uiso   1.00
H1272  H     0.36539   0.76116   0.91828   0.00000  Uiso   1.00
H1273  H     0.37248   0.70446   0.95123   0.00000  Uiso   1.00
H1274  H     0.65956   0.75495   0.97083   0.00000  Uiso   1.00
N1275  N     0.57761   0.96927   0.95619   0.00000  Uiso   1.00
O1276  O     0.56288   0.68331   0.95355   0.00000  Uiso   1.00
O1277  O     0.63010   0.95823   0.94513   0.00000  Uiso   1.00
N1278  N     0.36949   0.74311   0.54777   0.00000  Uiso   1.00
O1279  O     0.36470   0.69325   0.54120   0.00000  Uiso   1.00
O1280  O     0.66233   0.76634   0.57094   0.00000  Uiso   1.00
N1281  N     0.58249   0.67190   0.75052   0.00000  Uiso   1.00
O1282  O     0.61240   0.99540   0.71309   0.00000  Uiso   1.00
O1283  O     0.60738   0.69334   0.78471   0.00000  Uiso   1.00
N1284  N     0.42348   0.99592   0.78050   0.00000  Uiso   1.00
O1285  O     0.41593   0.97802   0.82101   0.00000  Uiso   1.00
O1286  O     0.38123   0.99405   0.75449   0.00000  Uiso   1.00
N1287  N     0.34249   0.79799   0.69907   0.00000  Uiso   1.00
O1288  O     0.33975   0.82094   0.66112   0.00000  Uiso   1.00
O1289  O     0.35213   0.74918   0.69834   0.00000  Uiso   1.00
N1290  N     0.65823   0.86400   0.80315   0.00000  Uiso   1.00
O1291  O     0.66389   0.83780   0.83901   0.00000  Uiso   1.00
O1292  O     0.64320   0.91140   0.80784   0.00000  Uiso   1.00
O1293  O     0.79642   0.91286   0.75298   0.00000  Uiso   1.00
O1294  O     0.87025   0.75381   0.74701   0.00000  Uiso   1.00
O1295  O     0.89280   0.90387   0.74518   0.00000  Uiso   1.00
O1296  O     0.77387   0.76279   0.75481   0.00000  Uiso   1.00
C1297  C     0.84841   0.93123   0.75130   0.00000  Uiso   1.00
C1298  C     0.81875   0.73555   0.75410   0.00000  Uiso   1.00
O1299  O     0.78514   0.83784   0.81997   0.00000  Uiso   1.00
O1300  O     0.88153   0.82883   0.68002   0.00000  Uiso   1.00
O1301  O     0.88152   0.82885   0.81217   0.00000  Uiso   1.00
O1302  O     0.78515   0.83781   0.68782   0.00000  Uiso   1.00
C1303  C     0.83409   0.83397   0.83629   0.00000  Uiso   1.00
C1304  C     0.83289   0.83456   0.66350   0.00000  Uiso   1.00
Zn1305 Zn    0.76898   0.83933   0.75521   0.00000  Uiso   1.00
Zn1306 Zn    0.89769   0.82734   0.74479   0.00000  Uiso   1.00
C1307  C     0.79705   0.79919   0.59293   0.00000  Uiso   1.00
C1308  C     0.85059   0.88556   0.90539   0.00000  Uiso   1.00
C1309  C     0.83099   0.83685   0.61521   0.00000  Uiso   1.00
C1310  C     0.83481   0.83798   0.88428   0.00000  Uiso   1.00
C1311  C     0.85905   0.87900   0.59266   0.00000  Uiso   1.00
C1312  C     0.80918   0.79662   0.90847   0.00000  Uiso   1.00
C1313  C     0.84675   0.88735   0.54782   0.00000  Uiso   1.00
C1314  C     0.79228   0.80522   0.95393   0.00000  Uiso   1.00
C1315  C     0.81633   0.84767   0.52435   0.00000  Uiso   1.00
C1316  C     0.81838   0.84765   0.97712   0.00000  Uiso   1.00
C1317  C     0.78663   0.80621   0.54756   0.00000  Uiso   1.00
C1318  C     0.84887   0.88822   0.95307   0.00000  Uiso   1.00
C1319  C     0.86571   0.93281   0.52478   0.00000  Uiso   1.00
C1320  C     0.74975   0.77359   0.97699   0.00000  Uiso   1.00
C1321  C     0.87274   0.93103   0.97764   0.00000  Uiso   1.00
C1322  C     0.74785   0.77313   0.52413   0.00000  Uiso   1.00
C1323  C     0.85758   0.98534   0.75636   0.00000  Uiso   1.00
C1324  C     0.81227   0.68214   0.76367   0.00000  Uiso   1.00
N1325  N     0.98344   0.81932   0.73783   0.00000  Uiso   1.00
N1326  N     0.68322   0.84735   0.76217   0.00000  Uiso   1.00
C1327  C     0.78137   0.74787   0.61514   0.00000  Uiso   1.00
H1328  H     0.80633   0.74137   0.64458   0.00000  Uiso   1.00
H1329  H     0.73576   0.74514   0.62616   0.00000  Uiso   1.00
H1330  H     0.79013   0.71560   0.59103   0.00000  Uiso   1.00
C1331  C     0.86330   0.93338   0.87735   0.00000  Uiso   1.00
H1332  H     0.84853   0.92896   0.84295   0.00000  Uiso   1.00
H1333  H     0.83986   0.96599   0.89288   0.00000  Uiso   1.00
H1334  H     0.90972   0.94335   0.87391   0.00000  Uiso   1.00
C1335  C     0.90812   0.90865   0.61454   0.00000  Uiso   1.00
H1336  H     0.93649   0.93151   0.59058   0.00000  Uiso   1.00
H1337  H     0.89161   0.93378   0.64285   0.00000  Uiso   1.00
H1338  H     0.93740   0.88144   0.62721   0.00000  Uiso   1.00
C1339  C     0.80447   0.74330   0.88595   0.00000  Uiso   1.00
H1340  H     0.79571   0.71244   0.91079   0.00000  Uiso   1.00
H1341  H     0.77067   0.74145   0.86159   0.00000  Uiso   1.00
H1342  H     0.84571   0.73482   0.86745   0.00000  Uiso   1.00
C1343  C     0.87242   0.98503   0.54858   0.00000  Uiso   1.00
H1344  H     0.85582   0.98414   0.58432   0.00000  Uiso   1.00
H1345  H     0.91775   0.99963   0.54627   0.00000  Uiso   1.00
H1346  H     0.84689   0.67965   0.53230   0.00000  Uiso   1.00
C1347  C     0.70115   0.74679   0.95278   0.00000  Uiso   1.00
H1348  H     0.69873   0.76116   0.91828   0.00000  Uiso   1.00
H1349  H     0.70582   0.70446   0.95123   0.00000  Uiso   1.00
H1350  H     0.99290   0.75495   0.97083   0.00000  Uiso   1.00
N1351  N     0.91095   0.96927   0.95619   0.00000  Uiso   1.00
O1352  O     0.89622   0.68331   0.95355   0.00000  Uiso   1.00
O1353  O     0.96344   0.95823   0.94513   0.00000  Uiso   1.00
N1354  N     0.70282   0.74311   0.54777   0.00000  Uiso   1.00
O1355  O     0.69803   0.69325   0.54120   0.00000  Uiso   1.00
O1356  O     0.99566   0.76634   0.57094   0.00000  Uiso   1.00
N1357  N     0.91583   0.67190   0.75052   0.00000  Uiso   1.00
O1358  O     0.94573   0.99540   0.71309   0.00000  Uiso   1.00
O1359  O     0.94071   0.69334   0.78471   0.00000  Uiso   1.00
N1360  N     0.75681   0.99592   0.78050   0.00000  Uiso   1.00
O1361  O     0.74926   0.97802   0.82101   0.00000  Uiso   1.00
O1362  O     0.71456   0.99405   0.75449   0.00000  Uiso   1.00
N1363  N     0.67582   0.79799   0.69907   0.00000  Uiso   1.00
O1364  O     0.67308   0.82094   0.66112   0.00000  Uiso   1.00
O1365  O     0.68547   0.74918   0.69834   0.00000  Uiso   1.00
N1366  N     0.99157   0.86400   0.80315   0.00000  Uiso   1.00
O1367  O     0.99723   0.83780   0.83901   0.00000  Uiso   1.00
O1368  O     0.97654   0.91140   0.80784   0.00000  Uiso   1.00
loop_
_geom_bond_atom_site_label_1
_geom_bond_atom_site_label_2
_geom_bond_distance
_geom_bond_site_symmetry_2
_ccdc_geom_bond_type
O1     Zn13    1.980   .     S
O1     C5      1.285   .     A
O2     C6      1.281   .     A
O2     Zn14    1.980   .     S
O3     Zn14    1.994   .     S
O3     C5      1.294   .     A
O4     C6      1.302   .     A
O4     Zn13    1.994   .     S
C5     C31     1.413   .     S
C6     C32     1.420   .     S
O7     C11     1.290   .     A
O7     Zn13    1.990   .     S
O8     C12     1.294   .     A
O8     Zn14    1.990   .     S
O9     Zn14    2.013   .     S
O9     C11     1.295   .     A
O10    C12     1.298   .     A
O10    Zn13    2.013   .     S
C11    C18     1.429   .     S
C12    C17     1.443   .     S
Zn13   N34     2.035   .     S
Zn14   N33     2.035   .     S
C15    C25     1.407   .     A
C15    C35     1.520   .     S
C15    C17     1.405   .     A
C16    C26     1.415   .     A
C16    C39     1.520   .     S
C16    C18     1.409   .     A
C17    C19     1.408   .     A
C18    C20     1.395   .     A
C19    C21     1.409   .     A
C19    C43     1.523   .     S
C20    C22     1.397   .     A
C20    C47     1.519   .     S
C21    C27     1.417   .     A
C21    C23     1.414   .     A
C22    C28     1.411   .     A
C22    C24     1.413   .     A
C23    C25     1.420   .     A
C23    C708    1.402   1_554 S
C24    C26     1.423   .     A
C24    C707    1.402   .     S
C25    C30     1.420   .     A
C26    C29     1.420   .     A
C27    C51     1.514   .     S
C27    C713    1.399   1_554 S
C28    C55     1.517   .     S
C28    C714    1.400   .     S
C29    N59     1.434   .     S
C29    C711    1.399   .     S
C30    N62     1.435   .     S
C30    C712    1.400   1_554 S
C31    C260    1.358   .     S
C31    N293    1.437   .     S
C32    C487    1.358   1_545 S
C32    N524    1.435   1_545 S
N33    N110    1.280   .     S
N33    N147    1.379   .     S
N34    N185    1.280   1_455 S
N34    N226    1.383   1_455 S
C35    H38     1.104   .     S
C35    H37     1.099   .     S
C35    H36     1.109   .     S
C39    H41     1.107   .     S
C39    H40     1.103   .     S
C39    H42     1.106   .     S
C43    H45     1.110   .     S
C43    H44     1.105   .     S
C43    H46     1.105   .     S
C47    H49     1.110   .     S
C47    H50     1.111   .     S
C47    H48     1.107   .     S
C51    H52     1.107   .     S
C51    H53     1.109   .     S
C51    H282    1.110   .     S
H54    C507    1.110   1_545 S
C55    H57     1.109   .     S
C55    H56     1.108   .     S
C55    H210    1.111   1_455 S
H58    C131    1.111   .     S
N59    O61     1.301   .     A
N59    O288    1.301   .     S
O60    N515    1.301   1_545 S
N62    O63     1.301   .     A
N62    O216    1.301   1_455 S
O64    N138    1.301   .     S
N65    O67     1.302   .     A
N65    C487    1.437   1_545 S
N65    O522    1.301   1_545 S
O66    N293    1.301   .     S
N68    O70     1.298   .     A
N68    O69     1.301   .     A
N68    C260    1.435   .     S
N71    O73     1.298   .     A
N71    O72     1.300   .     A
N71    N185    1.379   1_455 S
N74    O76     1.299   .     A
N74    O75     1.301   .     A
N74    N110    1.383   .     S
O77    Zn89    1.980   .     S
O77    C81     1.285   .     A
O78    C82     1.281   .     A
O78    Zn90    1.980   .     S
O79    Zn90    1.994   .     S
O79    C81     1.294   .     A
O80    C82     1.302   .     A
O80    Zn89    1.994   .     S
C81    C107    1.413   .     S
C82    C108    1.420   .     S
O83    C87     1.290   .     A
O83    Zn89    1.990   .     S
O84    C88     1.294   .     A
O84    Zn90    1.990   .     S
O85    Zn90    2.013   .     S
O85    C87     1.295   .     A
O86    C88     1.298   .     A
O86    Zn89    2.013   .     S
C87    C94     1.429   .     S
C88    C93     1.443   .     S
Zn89   N110    2.035   .     S
Zn90   N109    2.035   .     S
C91    C101    1.407   .     A
C91    C111    1.520   .     S
C91    C93     1.405   .     A
C92    C102    1.415   .     A
C92    C115    1.520   .     S
C92    C94     1.409   .     A
C93    C95     1.408   .     A
C94    C96     1.395   .     A
C95    C97     1.409   .     A
C95    C119    1.523   .     S
C96    C98     1.397   .     A
C96    C123    1.519   .     S
C97    C103    1.417   .     A
C97    C99     1.414   .     A
C98    C104    1.411   .     A
C98    C100    1.413   .     A
C99    C101    1.420   .     A
C99    C784    1.402   1_554 S
C100   C102    1.423   .     A
C100   C783    1.402   .     S
C101   C106    1.420   .     A
C102   C105    1.420   .     A
C103   C127    1.514   .     S
C103   C789    1.399   1_554 S
C104   C131    1.517   .     S
C104   C790    1.400   .     S
C105   N135    1.434   .     S
C105   C787    1.399   .     S
C106   N138    1.435   .     S
C106   C788    1.400   1_554 S
C107   C336    1.358   .     S
C107   N369    1.437   .     S
C108   C563    1.358   1_545 S
C108   N600    1.435   1_545 S
N109   N186    1.280   .     S
N109   N223    1.379   .     S
C111   H114    1.104   .     S
C111   H113    1.099   .     S
C111   H112    1.109   .     S
C115   H117    1.107   .     S
C115   H116    1.103   .     S
C115   H118    1.106   .     S
C119   H121    1.110   .     S
C119   H120    1.105   .     S
C119   H122    1.105   .     S
C123   H125    1.110   .     S
C123   H126    1.111   .     S
C123   H124    1.107   .     S
C127   H128    1.107   .     S
C127   H129    1.109   .     S
C127   H358    1.110   .     S
H130   C583    1.110   1_545 S
C131   H133    1.109   .     S
C131   H132    1.108   .     S
H134   C207    1.111   .     S
N135   O137    1.301   .     A
N135   O364    1.301   .     S
O136   N591    1.301   1_545 S
N138   O139    1.301   .     A
O140   N214    1.301   .     S
N141   O143    1.302   .     A
N141   C563    1.437   1_545 S
N141   O598    1.301   1_545 S
O142   N369    1.301   .     S
N144   O146    1.298   .     A
N144   O145    1.301   .     A
N144   C336    1.435   .     S
N147   O149    1.298   .     A
N147   O148    1.300   .     A
N150   O152    1.299   .     A
N150   O151    1.301   .     A
N150   N186    1.383   .     S
O153   Zn165   1.980   .     S
O153   C157    1.285   .     A
O154   C158    1.281   .     A
O154   Zn166   1.980   .     S
O155   Zn166   1.994   .     S
O155   C157    1.294   .     A
O156   C158    1.302   .     A
O156   Zn165   1.994   .     S
C157   C183    1.413   .     S
C158   C184    1.420   .     S
O159   C163    1.290   .     A
O159   Zn165   1.990   .     S
O160   C164    1.294   .     A
O160   Zn166   1.990   .     S
O161   Zn166   2.013   .     S
O161   C163    1.295   .     A
O162   C164    1.298   .     A
O162   Zn165   2.013   .     S
C163   C170    1.429   .     S
C164   C169    1.443   .     S
Zn165  N186    2.035   .     S
Zn166  N185    2.035   .     S
C167   C177    1.407   .     A
C167   C187    1.520   .     S
C167   C169    1.405   .     A
C168   C178    1.415   .     A
C168   C191    1.520   .     S
C168   C170    1.409   .     A
C169   C171    1.408   .     A
C170   C172    1.395   .     A
C171   C173    1.409   .     A
C171   C195    1.523   .     S
C172   C174    1.397   .     A
C172   C199    1.519   .     S
C173   C179    1.417   .     A
C173   C175    1.414   .     A
C174   C180    1.411   .     A
C174   C176    1.413   .     A
C175   C177    1.420   .     A
C175   C860    1.402   1_554 S
C176   C178    1.423   .     A
C176   C859    1.402   .     S
C177   C182    1.420   .     A
C178   C181    1.420   .     A
C179   C203    1.514   .     S
C179   C865    1.399   1_554 S
C180   C207    1.517   .     S
C180   C866    1.400   .     S
C181   N211    1.434   .     S
C181   C863    1.399   .     S
C182   N214    1.435   .     S
C182   C864    1.400   1_554 S
C183   C412    1.358   .     S
C183   N445    1.437   .     S
C184   C639    1.358   1_545 S
C184   N676    1.435   1_545 S
N185   N34     1.280   1_655 S
N185   N71     1.379   1_655 S
C187   H190    1.104   .     S
C187   H189    1.099   .     S
C187   H188    1.109   .     S
C191   H193    1.107   .     S
C191   H192    1.103   .     S
C191   H194    1.106   .     S
C195   H197    1.110   .     S
C195   H196    1.105   .     S
C195   H198    1.105   .     S
C199   H201    1.110   .     S
C199   H202    1.111   .     S
C199   H200    1.107   .     S
C203   H204    1.107   .     S
C203   H205    1.109   .     S
C203   H434    1.110   .     S
H206   C659    1.110   1_545 S
C207   H209    1.109   .     S
C207   H208    1.108   .     S
H210   C55     1.111   1_655 S
N211   O213    1.301   .     A
N211   O440    1.301   .     S
O212   N667    1.301   1_545 S
N214   O215    1.301   .     A
O216   N62     1.301   1_655 S
N217   O219    1.302   .     A
N217   C639    1.437   1_545 S
N217   O674    1.301   1_545 S
O218   N445    1.301   .     S
N220   O222    1.298   .     A
N220   O221    1.301   .     A
N220   C412    1.435   .     S
N223   O225    1.298   .     A
N223   O224    1.300   .     A
N226   O228    1.299   .     A
N226   O227    1.301   .     A
N226   N34     1.383   1_655 S
O229   Zn241   1.980   .     S
O229   C233    1.285   .     A
O230   C234    1.281   .     A
O230   Zn242   1.980   .     S
O231   Zn242   1.994   .     S
O231   C233    1.294   .     A
O232   C234    1.302   .     A
O232   Zn241   1.994   .     S
C233   C259    1.413   .     S
C234   C260    1.420   .     S
O235   C239    1.290   .     A
O235   Zn241   1.990   .     S
O236   C240    1.294   .     A
O236   Zn242   1.990   .     S
O237   Zn242   2.013   .     S
O237   C239    1.295   .     A
O238   C240    1.298   .     A
O238   Zn241   2.013   .     S
C239   C246    1.429   .     S
C240   C245    1.443   .     S
Zn241  N262    2.035   .     S
Zn242  N261    2.035   .     S
C243   C253    1.407   .     A
C243   C263    1.520   .     S
C243   C245    1.405   .     A
C244   C254    1.415   .     A
C244   C267    1.520   .     S
C244   C246    1.409   .     A
C245   C247    1.408   .     A
C246   C248    1.395   .     A
C247   C249    1.409   .     A
C247   C271    1.523   .     S
C248   C250    1.397   .     A
C248   C275    1.519   .     S
C249   C255    1.417   .     A
C249   C251    1.414   .     A
C250   C256    1.411   .     A
C250   C252    1.413   .     A
C251   C253    1.420   .     A
C251   C936    1.402   1_554 S
C252   C254    1.423   .     A
C252   C935    1.402   .     S
C253   C258    1.420   .     A
C254   C257    1.420   .     A
C255   C279    1.514   .     S
C255   C941    1.399   1_554 S
C256   C283    1.517   .     S
C256   C942    1.400   .     S
C257   N287    1.434   .     S
C257   C939    1.399   .     S
C258   N290    1.435   .     S
C258   C940    1.400   1_554 S
C259   C488    1.358   .     S
C259   N521    1.437   .     S
N261   N338    1.280   .     S
N261   N375    1.379   .     S
N262   N413    1.280   1_455 S
N262   N454    1.383   1_455 S
C263   H266    1.104   .     S
C263   H265    1.099   .     S
C263   H264    1.109   .     S
C267   H269    1.107   .     S
C267   H268    1.103   .     S
C267   H270    1.106   .     S
C271   H273    1.110   .     S
C271   H272    1.105   .     S
C271   H274    1.105   .     S
C275   H277    1.110   .     S
C275   H278    1.111   .     S
C275   H276    1.107   .     S
C279   H280    1.107   .     S
C279   H281    1.109   .     S
C279   H510    1.110   .     S
C283   H285    1.109   .     S
C283   H284    1.108   .     S
C283   H438    1.111   1_455 S
H286   C359    1.111   .     S
N287   O289    1.301   .     A
N287   O516    1.301   .     S
N290   O291    1.301   .     A
N290   O444    1.301   1_455 S
O292   N366    1.301   .     S
N293   O295    1.302   .     A
O294   N521    1.301   .     S
N296   O298    1.298   .     A
N296   O297    1.301   .     A
N296   C488    1.435   .     S
N299   O301    1.298   .     A
N299   O300    1.300   .     A
N299   N413    1.379   1_455 S
N302   O304    1.299   .     A
N302   O303    1.301   .     A
N302   N338    1.383   .     S
O305   Zn317   1.980   .     S
O305   C309    1.285   .     A
O306   C310    1.281   .     A
O306   Zn318   1.980   .     S
O307   Zn318   1.994   .     S
O307   C309    1.294   .     A
O308   C310    1.302   .     A
O308   Zn317   1.994   .     S
C309   C335    1.413   .     S
C310   C336    1.420   .     S
O311   C315    1.290   .     A
O311   Zn317   1.990   .     S
O312   C316    1.294   .     A
O312   Zn318   1.990   .     S
O313   Zn318   2.013   .     S
O313   C315    1.295   .     A
O314   C316    1.298   .     A
O314   Zn317   2.013   .     S
C315   C322    1.429   .     S
C316   C321    1.443   .     S
Zn317  N338    2.035   .     S
Zn318  N337    2.035   .     S
C319   C329    1.407   .     A
C319   C339    1.520   .     S
C319   C321    1.405   .     A
C320   C330    1.415   .     A
C320   C343    1.520   .     S
C320   C322    1.409   .     A
C321   C323    1.408   .     A
C322   C324    1.395   .     A
C323   C325    1.409   .     A
C323   C347    1.523   .     S
C324   C326    1.397   .     A
C324   C351    1.519   .     S
C325   C331    1.417   .     A
C325   C327    1.414   .     A
C326   C332    1.411   .     A
C326   C328    1.413   .     A
C327   C329    1.420   .     A
C327   C1012   1.402   1_554 S
C328   C330    1.423   .     A
C328   C1011   1.402   .     S
C329   C334    1.420   .     A
C330   C333    1.420   .     A
C331   C355    1.514   .     S
C331   C1017   1.399   1_554 S
C332   C359    1.517   .     S
C332   C1018   1.400   .     S
C333   N363    1.434   .     S
C333   C1015   1.399   .     S
C334   N366    1.435   .     S
C334   C1016   1.400   1_554 S
C335   C564    1.358   .     S
C335   N597    1.437   .     S
N337   N414    1.280   .     S
N337   N451    1.379   .     S
C339   H342    1.104   .     S
C339   H341    1.099   .     S
C339   H340    1.109   .     S
C343   H345    1.107   .     S
C343   H344    1.103   .     S
C343   H346    1.106   .     S
C347   H349    1.110   .     S
C347   H348    1.105   .     S
C347   H350    1.105   .     S
C351   H353    1.110   .     S
C351   H354    1.111   .     S
C351   H352    1.107   .     S
C355   H356    1.107   .     S
C355   H357    1.109   .     S
C355   H586    1.110   .     S
C359   H361    1.109   .     S
C359   H360    1.108   .     S
H362   C435    1.111   .     S
N363   O365    1.301   .     A
N363   O592    1.301   .     S
N366   O367    1.301   .     A
O368   N442    1.301   .     S
N369   O371    1.302   .     A
O370   N597    1.301   .     S
N372   O374    1.298   .     A
N372   O373    1.301   .     A
N372   C564    1.435   .     S
N375   O377    1.298   .     A
N375   O376    1.300   .     A
N378   O380    1.299   .     A
N378   O379    1.301   .     A
N378   N414    1.383   .     S
O381   Zn393   1.980   .     S
O381   C385    1.285   .     A
O382   C386    1.281   .     A
O382   Zn394   1.980   .     S
O383   Zn394   1.994   .     S
O383   C385    1.294   .     A
O384   C386    1.302   .     A
O384   Zn393   1.994   .     S
C385   C411    1.413   .     S
C386   C412    1.420   .     S
O387   C391    1.290   .     A
O387   Zn393   1.990   .     S
O388   C392    1.294   .     A
O388   Zn394   1.990   .     S
O389   Zn394   2.013   .     S
O389   C391    1.295   .     A
O390   C392    1.298   .     A
O390   Zn393   2.013   .     S
C391   C398    1.429   .     S
C392   C397    1.443   .     S
Zn393  N414    2.035   .     S
Zn394  N413    2.035   .     S
C395   C405    1.407   .     A
C395   C415    1.520   .     S
C395   C397    1.405   .     A
C396   C406    1.415   .     A
C396   C419    1.520   .     S
C396   C398    1.409   .     A
C397   C399    1.408   .     A
C398   C400    1.395   .     A
C399   C401    1.409   .     A
C399   C423    1.523   .     S
C400   C402    1.397   .     A
C400   C427    1.519   .     S
C401   C407    1.417   .     A
C401   C403    1.414   .     A
C402   C408    1.411   .     A
C402   C404    1.413   .     A
C403   C405    1.420   .     A
C403   C1088   1.402   1_554 S
C404   C406    1.423   .     A
C404   C1087   1.402   .     S
C405   C410    1.420   .     A
C406   C409    1.420   .     A
C407   C431    1.514   .     S
C407   C1093   1.399   1_554 S
C408   C435    1.517   .     S
C408   C1094   1.400   .     S
C409   N439    1.434   .     S
C409   C1091   1.399   .     S
C410   N442    1.435   .     S
C410   C1092   1.400   1_554 S
C411   C640    1.358   .     S
C411   N673    1.437   .     S
N413   N262    1.280   1_655 S
N413   N299    1.379   1_655 S
C415   H418    1.104   .     S
C415   H417    1.099   .     S
C415   H416    1.109   .     S
C419   H421    1.107   .     S
C419   H420    1.103   .     S
C419   H422    1.106   .     S
C423   H425    1.110   .     S
C423   H424    1.105   .     S
C423   H426    1.105   .     S
C427   H429    1.110   .     S
C427   H430    1.111   .     S
C427   H428    1.107   .     S
C431   H432    1.107   .     S
C431   H433    1.109   .     S
C431   H662    1.110   .     S
C435   H437    1.109   .     S
C435   H436    1.108   .     S
H438   C283    1.111   1_655 S
N439   O441    1.301   .     A
N439   O668    1.301   .     S
N442   O443    1.301   .     A
O444   N290    1.301   1_655 S
N445   O447    1.302   .     A
O446   N673    1.301   .     S
N448   O450    1.298   .     A
N448   O449    1.301   .     A
N448   C640    1.435   .     S
N451   O453    1.298   .     A
N451   O452    1.300   .     A
N454   O456    1.299   .     A
N454   O455    1.301   .     A
N454   N262    1.383   1_655 S
O457   Zn469   1.980   .     S
O457   C461    1.285   .     A
O458   C462    1.281   .     A
O458   Zn470   1.980   .     S
O459   Zn470   1.994   .     S
O459   C461    1.294   .     A
O460   C462    1.302   .     A
O460   Zn469   1.994   .     S
C461   C487    1.413   .     S
C462   C488    1.420   .     S
O463   C467    1.290   .     A
O463   Zn469   1.990   .     S
O464   C468    1.294   .     A
O464   Zn470   1.990   .     S
O465   Zn470   2.013   .     S
O465   C467    1.295   .     A
O466   C468    1.298   .     A
O466   Zn469   2.013   .     S
C467   C474    1.429   .     S
C468   C473    1.443   .     S
Zn469  N490    2.035   .     S
Zn470  N489    2.035   .     S
C471   C481    1.407   .     A
C471   C491    1.520   .     S
C471   C473    1.405   .     A
C472   C482    1.415   .     A
C472   C495    1.520   .     S
C472   C474    1.409   .     A
C473   C475    1.408   .     A
C474   C476    1.395   .     A
C475   C477    1.409   .     A
C475   C499    1.523   .     S
C476   C478    1.397   .     A
C476   C503    1.519   .     S
C477   C483    1.417   .     A
C477   C479    1.414   .     A
C478   C484    1.411   .     A
C478   C480    1.413   .     A
C479   C481    1.420   .     A
C479   C1164   1.402   1_554 S
C480   C482    1.423   .     A
C480   C1163   1.402   .     S
C481   C486    1.420   .     A
C482   C485    1.420   .     A
C483   C507    1.514   .     S
C483   C1169   1.399   1_554 S
C484   C511    1.517   .     S
C484   C1170   1.400   .     S
C485   N515    1.434   .     S
C485   C1167   1.399   .     S
C486   N518    1.435   .     S
C486   C1168   1.400   1_554 S
C487   C32     1.358   1_565 S
C487   N65     1.437   1_565 S
N489   N566    1.280   .     S
N489   N603    1.379   .     S
N490   N641    1.280   1_455 S
N490   N682    1.383   1_455 S
C491   H494    1.104   .     S
C491   H493    1.099   .     S
C491   H492    1.109   .     S
C495   H497    1.107   .     S
C495   H496    1.103   .     S
C495   H498    1.106   .     S
C499   H501    1.110   .     S
C499   H500    1.105   .     S
C499   H502    1.105   .     S
C503   H505    1.110   .     S
C503   H506    1.111   .     S
C503   H504    1.107   .     S
C507   H508    1.107   .     S
C507   H509    1.109   .     S
C507   H54     1.110   1_565 S
C511   H513    1.109   .     S
C511   H512    1.108   .     S
C511   H666    1.111   1_455 S
H514   C587    1.111   .     S
N515   O517    1.301   .     A
N515   O60     1.301   1_565 S
N518   O519    1.301   .     A
N518   O672    1.301   1_455 S
O520   N594    1.301   .     S
N521   O523    1.302   .     A
O522   N65     1.301   1_565 S
N524   O526    1.298   .     A
N524   O525    1.301   .     A
N524   C32     1.435   1_565 S
N527   O529    1.298   .     A
N527   O528    1.300   .     A
N527   N641    1.379   1_455 S
N530   O532    1.299   .     A
N530   O531    1.301   .     A
N530   N566    1.383   .     S
O533   Zn545   1.980   .     S
O533   C537    1.285   .     A
O534   C538    1.281   .     A
O534   Zn546   1.980   .     S
O535   Zn546   1.994   .     S
O535   C537    1.294   .     A
O536   C538    1.302   .     A
O536   Zn545   1.994   .     S
C537   C563    1.413   .     S
C538   C564    1.420   .     S
O539   C543    1.290   .     A
O539   Zn545   1.990   .     S
O540   C544    1.294   .     A
O540   Zn546   1.990   .     S
O541   Zn546   2.013   .     S
O541   C543    1.295   .     A
O542   C544    1.298   .     A
O542   Zn545   2.013   .     S
C543   C550    1.429   .     S
C544   C549    1.443   .     S
Zn545  N566    2.035   .     S
Zn546  N565    2.035   .     S
C547   C557    1.407   .     A
C547   C567    1.520   .     S
C547   C549    1.405   .     A
C548   C558    1.415   .     A
C548   C571    1.520   .     S
C548   C550    1.409   .     A
C549   C551    1.408   .     A
C550   C552    1.395   .     A
C551   C553    1.409   .     A
C551   C575    1.523   .     S
C552   C554    1.397   .     A
C552   C579    1.519   .     S
C553   C559    1.417   .     A
C553   C555    1.414   .     A
C554   C560    1.411   .     A
C554   C556    1.413   .     A
C555   C557    1.420   .     A
C555   C1240   1.402   1_554 S
C556   C558    1.423   .     A
C556   C1239   1.402   .     S
C557   C562    1.420   .     A
C558   C561    1.420   .     A
C559   C583    1.514   .     S
C559   C1245   1.399   1_554 S
C560   C587    1.517   .     S
C560   C1246   1.400   .     S
C561   N591    1.434   .     S
C561   C1243   1.399   .     S
C562   N594    1.435   .     S
C562   C1244   1.400   1_554 S
C563   C108    1.358   1_565 S
C563   N141    1.437   1_565 S
N565   N642    1.280   .     S
N565   N679    1.379   .     S
C567   H570    1.104   .     S
C567   H569    1.099   .     S
C567   H568    1.109   .     S
C571   H573    1.107   .     S
C571   H572    1.103   .     S
C571   H574    1.106   .     S
C575   H577    1.110   .     S
C575   H576    1.105   .     S
C575   H578    1.105   .     S
C579   H581    1.110   .     S
C579   H582    1.111   .     S
C579   H580    1.107   .     S
C583   H584    1.107   .     S
C583   H585    1.109   .     S
C583   H130    1.110   1_565 S
C587   H589    1.109   .     S
C587   H588    1.108   .     S
H590   C663    1.111   .     S
N591   O593    1.301   .     A
N591   O136    1.301   1_565 S
N594   O595    1.301   .     A
O596   N670    1.301   .     S
N597   O599    1.302   .     A
O598   N141    1.301   1_565 S
N600   O602    1.298   .     A
N600   O601    1.301   .     A
N600   C108    1.435   1_565 S
N603   O605    1.298   .     A
N603   O604    1.300   .     A
N606   O608    1.299   .     A
N606   O607    1.301   .     A
N606   N642    1.383   .     S
O609   Zn621   1.980   .     S
O609   C613    1.285   .     A
O610   C614    1.281   .     A
O610   Zn622   1.980   .     S
O611   Zn622   1.994   .     S
O611   C613    1.294   .     A
O612   C614    1.302   .     A
O612   Zn621   1.994   .     S
C613   C639    1.413   .     S
C614   C640    1.420   .     S
O615   C619    1.290   .     A
O615   Zn621   1.990   .     S
O616   C620    1.294   .     A
O616   Zn622   1.990   .     S
O617   Zn622   2.013   .     S
O617   C619    1.295   .     A
O618   C620    1.298   .     A
O618   Zn621   2.013   .     S
C619   C626    1.429   .     S
C620   C625    1.443   .     S
Zn621  N642    2.035   .     S
Zn622  N641    2.035   .     S
C623   C633    1.407   .     A
C623   C643    1.520   .     S
C623   C625    1.405   .     A
C624   C634    1.415   .     A
C624   C647    1.520   .     S
C624   C626    1.409   .     A
C625   C627    1.408   .     A
C626   C628    1.395   .     A
C627   C629    1.409   .     A
C627   C651    1.523   .     S
C628   C630    1.397   .     A
C628   C655    1.519   .     S
C629   C635    1.417   .     A
C629   C631    1.414   .     A
C630   C636    1.411   .     A
C630   C632    1.413   .     A
C631   C633    1.420   .     A
C631   C1316   1.402   1_554 S
C632   C634    1.423   .     A
C632   C1315   1.402   .     S
C633   C638    1.420   .     A
C634   C637    1.420   .     A
C635   C659    1.514   .     S
C635   C1321   1.399   1_554 S
C636   C663    1.517   .     S
C636   C1322   1.400   .     S
C637   N667    1.434   .     S
C637   C1319   1.399   .     S
C638   N670    1.435   .     S
C638   C1320   1.400   1_554 S
C639   C184    1.358   1_565 S
C639   N217    1.437   1_565 S
N641   N490    1.280   1_655 S
N641   N527    1.379   1_655 S
C643   H646    1.104   .     S
C643   H645    1.099   .     S
C643   H644    1.109   .     S
C647   H649    1.107   .     S
C647   H648    1.103   .     S
C647   H650    1.106   .     S
C651   H653    1.110   .     S
C651   H652    1.105   .     S
C651   H654    1.105   .     S
C655   H657    1.110   .     S
C655   H658    1.111   .     S
C655   H656    1.107   .     S
C659   H660    1.107   .     S
C659   H661    1.109   .     S
C659   H206    1.110   1_565 S
C663   H665    1.109   .     S
C663   H664    1.108   .     S
H666   C511    1.111   1_655 S
N667   O669    1.301   .     A
N667   O212    1.301   1_565 S
N670   O671    1.301   .     A
O672   N518    1.301   1_655 S
N673   O675    1.302   .     A
O674   N217    1.301   1_565 S
N676   O678    1.298   .     A
N676   O677    1.301   .     A
N676   C184    1.435   1_565 S
N679   O681    1.298   .     A
N679   O680    1.300   .     A
N682   O684    1.299   .     A
N682   O683    1.301   .     A
N682   N490    1.383   1_655 S
O685   Zn697   1.980   .     S
O685   C689    1.285   .     A
O686   C690    1.281   .     A
O686   Zn698   1.980   .     S
O687   Zn698   1.994   .     S
O687   C689    1.294   .     A
O688   C690    1.302   .     A
O688   Zn697   1.994   .     S
C689   C715    1.413   .     S
C690   C716    1.420   .     S
O691   C695    1.290   .     A
O691   Zn697   1.990   .     S
O692   C696    1.294   .     A
O692   Zn698   1.990   .     S
O693   Zn698   2.013   .     S
O693   C695    1.295   .     A
O694   C696    1.298   .     A
O694   Zn697   2.013   .     S
C695   C702    1.429   .     S
C696   C701    1.443   .     S
Zn697  N718    2.035   .     S
Zn698  N717    2.035   .     S
C699   C709    1.407   .     A
C699   C719    1.520   .     S
C699   C701    1.405   .     A
C700   C710    1.415   .     A
C700   C723    1.520   .     S
C700   C702    1.409   .     A
C701   C703    1.408   .     A
C702   C704    1.395   .     A
C703   C705    1.409   .     A
C703   C727    1.523   .     S
C704   C706    1.397   .     A
C704   C731    1.519   .     S
C705   C711    1.417   .     A
C705   C707    1.414   .     A
C706   C712    1.411   .     A
C706   C708    1.413   .     A
C707   C709    1.420   .     A
C708   C710    1.423   .     A
C708   C23     1.402   1_556 S
C709   C714    1.420   .     A
C710   C713    1.420   .     A
C711   C735    1.514   .     S
C712   C739    1.517   .     S
C712   C30     1.400   1_556 S
C713   N743    1.434   .     S
C713   C27     1.399   1_556 S
C714   N746    1.435   .     S
C715   C944    1.358   .     S
C715   N977    1.437   .     S
C716   C1171   1.358   1_545 S
C716   N1208   1.435   1_545 S
N717   N794    1.280   .     S
N717   N831    1.379   .     S
N718   N869    1.280   1_455 S
N718   N910    1.383   1_455 S
C719   H722    1.104   .     S
C719   H721    1.099   .     S
C719   H720    1.109   .     S
C723   H725    1.107   .     S
C723   H724    1.103   .     S
C723   H726    1.106   .     S
C727   H729    1.110   .     S
C727   H728    1.105   .     S
C727   H730    1.105   .     S
C731   H733    1.110   .     S
C731   H734    1.111   .     S
C731   H732    1.107   .     S
C735   H736    1.107   .     S
C735   H737    1.109   .     S
C735   H966    1.110   .     S
H738   C1191   1.110   1_545 S
C739   H741    1.109   .     S
C739   H740    1.108   .     S
C739   H894    1.111   1_455 S
H742   C815    1.111   .     S
N743   O745    1.301   .     A
N743   O972    1.301   .     S
O744   N1199   1.301   1_545 S
N746   O747    1.301   .     A
N746   O900    1.301   1_455 S
O748   N822    1.301   .     S
N749   O751    1.302   .     A
N749   C1171   1.437   1_545 S
N749   O1206   1.301   1_545 S
O750   N977    1.301   .     S
N752   O754    1.298   .     A
N752   O753    1.301   .     A
N752   C944    1.435   .     S
N755   O757    1.298   .     A
N755   O756    1.300   .     A
N755   N869    1.379   1_455 S
N758   O760    1.299   .     A
N758   O759    1.301   .     A
N758   N794    1.383   .     S
O761   Zn773   1.980   .     S
O761   C765    1.285   .     A
O762   C766    1.281   .     A
O762   Zn774   1.980   .     S
O763   Zn774   1.994   .     S
O763   C765    1.294   .     A
O764   C766    1.302   .     A
O764   Zn773   1.994   .     S
C765   C791    1.413   .     S
C766   C792    1.420   .     S
O767   C771    1.290   .     A
O767   Zn773   1.990   .     S
O768   C772    1.294   .     A
O768   Zn774   1.990   .     S
O769   Zn774   2.013   .     S
O769   C771    1.295   .     A
O770   C772    1.298   .     A
O770   Zn773   2.013   .     S
C771   C778    1.429   .     S
C772   C777    1.443   .     S
Zn773  N794    2.035   .     S
Zn774  N793    2.035   .     S
C775   C785    1.407   .     A
C775   C795    1.520   .     S
C775   C777    1.405   .     A
C776   C786    1.415   .     A
C776   C799    1.520   .     S
C776   C778    1.409   .     A
C777   C779    1.408   .     A
C778   C780    1.395   .     A
C779   C781    1.409   .     A
C779   C803    1.523   .     S
C780   C782    1.397   .     A
C780   C807    1.519   .     S
C781   C787    1.417   .     A
C781   C783    1.414   .     A
C782   C788    1.411   .     A
C782   C784    1.413   .     A
C783   C785    1.420   .     A
C784   C786    1.423   .     A
C784   C99     1.402   1_556 S
C785   C790    1.420   .     A
C786   C789    1.420   .     A
C787   C811    1.514   .     S
C788   C815    1.517   .     S
C788   C106    1.400   1_556 S
C789   N819    1.434   .     S
C789   C103    1.399   1_556 S
C790   N822    1.435   .     S
C791   C1020   1.358   .     S
C791   N1053   1.437   .     S
C792   C1247   1.358   1_545 S
C792   N1284   1.435   1_545 S
N793   N870    1.280   .     S
N793   N907    1.379   .     S
C795   H798    1.104   .     S
C795   H797    1.099   .     S
C795   H796    1.109   .     S
C799   H801    1.107   .     S
C799   H800    1.103   .     S
C799   H802    1.106   .     S
C803   H805    1.110   .     S
C803   H804    1.105   .     S
C803   H806    1.105   .     S
C807   H809    1.110   .     S
C807   H810    1.111   .     S
C807   H808    1.107   .     S
C811   H812    1.107   .     S
C811   H813    1.109   .     S
C811   H1042   1.110   .     S
H814   C1267   1.110   1_545 S
C815   H817    1.109   .     S
C815   H816    1.108   .     S
H818   C891    1.111   .     S
N819   O821    1.301   .     A
N819   O1048   1.301   .     S
O820   N1275   1.301   1_545 S
N822   O823    1.301   .     A
O824   N898    1.301   .     S
N825   O827    1.302   .     A
N825   C1247   1.437   1_545 S
N825   O1282   1.301   1_545 S
O826   N1053   1.301   .     S
N828   O830    1.298   .     A
N828   O829    1.301   .     A
N828   C1020   1.435   .     S
N831   O833    1.298   .     A
N831   O832    1.300   .     A
N834   O836    1.299   .     A
N834   O835    1.301   .     A
N834   N870    1.383   .     S
O837   Zn849   1.980   .     S
O837   C841    1.285   .     A
O838   C842    1.281   .     A
O838   Zn850   1.980   .     S
O839   Zn850   1.994   .     S
O839   C841    1.294   .     A
O840   C842    1.302   .     A
O840   Zn849   1.994   .     S
C841   C867    1.413   .     S
C842   C868    1.420   .     S
O843   C847    1.290   .     A
O843   Zn849   1.990   .     S
O844   C848    1.294   .     A
O844   Zn850   1.990   .     S
O845   Zn850   2.013   .     S
O845   C847    1.295   .     A
O846   C848    1.298   .     A
O846   Zn849   2.013   .     S
C847   C854    1.429   .     S
C848   C853    1.443   .     S
Zn849  N870    2.035   .     S
Zn850  N869    2.035   .     S
C851   C861    1.407   .     A
C851   C871    1.520   .     S
C851   C853    1.405   .     A
C852   C862    1.415   .     A
C852   C875    1.520   .     S
C852   C854    1.409   .     A
C853   C855    1.408   .     A
C854   C856    1.395   .     A
C855   C857    1.409   .     A
C855   C879    1.523   .     S
C856   C858    1.397   .     A
C856   C883    1.519   .     S
C857   C863    1.417   .     A
C857   C859    1.414   .     A
C858   C864    1.411   .     A
C858   C860    1.413   .     A
C859   C861    1.420   .     A
C860   C862    1.423   .     A
C860   C175    1.402   1_556 S
C861   C866    1.420   .     A
C862   C865    1.420   .     A
C863   C887    1.514   .     S
C864   C891    1.517   .     S
C864   C182    1.400   1_556 S
C865   N895    1.434   .     S
C865   C179    1.399   1_556 S
C866   N898    1.435   .     S
C867   C1096   1.358   .     S
C867   N1129   1.437   .     S
C868   C1323   1.358   1_545 S
C868   N1360   1.435   1_545 S
N869   N718    1.280   1_655 S
N869   N755    1.379   1_655 S
C871   H874    1.104   .     S
C871   H873    1.099   .     S
C871   H872    1.109   .     S
C875   H877    1.107   .     S
C875   H876    1.103   .     S
C875   H878    1.106   .     S
C879   H881    1.110   .     S
C879   H880    1.105   .     S
C879   H882    1.105   .     S
C883   H885    1.110   .     S
C883   H886    1.111   .     S
C883   H884    1.107   .     S
C887   H888    1.107   .     S
C887   H889    1.109   .     S
C887   H1118   1.110   .     S
H890   C1343   1.110   1_545 S
C891   H893    1.109   .     S
C891   H892    1.108   .     S
H894   C739    1.111   1_655 S
N895   O897    1.301   .     A
N895   O1124   1.301   .     S
O896   N1351   1.301   1_545 S
N898   O899    1.301   .     A
O900   N746    1.301   1_655 S
N901   O903    1.302   .     A
N901   C1323   1.437   1_545 S
N901   O1358   1.301   1_545 S
O902   N1129   1.301   .     S
N904   O906    1.298   .     A
N904   O905    1.301   .     A
N904   C1096   1.435   .     S
N907   O909    1.298   .     A
N907   O908    1.300   .     A
N910   O912    1.299   .     A
N910   O911    1.301   .     A
N910   N718    1.383   1_655 S
O913   Zn925   1.980   .     S
O913   C917    1.285   .     A
O914   C918    1.281   .     A
O914   Zn926   1.980   .     S
O915   Zn926   1.994   .     S
O915   C917    1.294   .     A
O916   C918    1.302   .     A
O916   Zn925   1.994   .     S
C917   C943    1.413   .     S
C918   C944    1.420   .     S
O919   C923    1.290   .     A
O919   Zn925   1.990   .     S
O920   C924    1.294   .     A
O920   Zn926   1.990   .     S
O921   Zn926   2.013   .     S
O921   C923    1.295   .     A
O922   C924    1.298   .     A
O922   Zn925   2.013   .     S
C923   C930    1.429   .     S
C924   C929    1.443   .     S
Zn925  N946    2.035   .     S
Zn926  N945    2.035   .     S
C927   C937    1.407   .     A
C927   C947    1.520   .     S
C927   C929    1.405   .     A
C928   C938    1.415   .     A
C928   C951    1.520   .     S
C928   C930    1.409   .     A
C929   C931    1.408   .     A
C930   C932    1.395   .     A
C931   C933    1.409   .     A
C931   C955    1.523   .     S
C932   C934    1.397   .     A
C932   C959    1.519   .     S
C933   C939    1.417   .     A
C933   C935    1.414   .     A
C934   C940    1.411   .     A
C934   C936    1.413   .     A
C935   C937    1.420   .     A
C936   C938    1.423   .     A
C936   C251    1.402   1_556 S
C937   C942    1.420   .     A
C938   C941    1.420   .     A
C939   C963    1.514   .     S
C940   C967    1.517   .     S
C940   C258    1.400   1_556 S
C941   N971    1.434   .     S
C941   C255    1.399   1_556 S
C942   N974    1.435   .     S
C943   C1172   1.358   .     S
C943   N1205   1.437   .     S
N945   N1022   1.280   .     S
N945   N1059   1.379   .     S
N946   N1097   1.280   1_455 S
N946   N1138   1.383   1_455 S
C947   H950    1.104   .     S
C947   H949    1.099   .     S
C947   H948    1.109   .     S
C951   H953    1.107   .     S
C951   H952    1.103   .     S
C951   H954    1.106   .     S
C955   H957    1.110   .     S
C955   H956    1.105   .     S
C955   H958    1.105   .     S
C959   H961    1.110   .     S
C959   H962    1.111   .     S
C959   H960    1.107   .     S
C963   H964    1.107   .     S
C963   H965    1.109   .     S
C963   H1194   1.110   .     S
C967   H969    1.109   .     S
C967   H968    1.108   .     S
C967   H1122   1.111   1_455 S
H970   C1043   1.111   .     S
N971   O973    1.301   .     A
N971   O1200   1.301   .     S
N974   O975    1.301   .     A
N974   O1128   1.301   1_455 S
O976   N1050   1.301   .     S
N977   O979    1.302   .     A
O978   N1205   1.301   .     S
N980   O982    1.298   .     A
N980   O981    1.301   .     A
N980   C1172   1.435   .     S
N983   O985    1.298   .     A
N983   O984    1.300   .     A
N983   N1097   1.379   1_455 S
N986   O988    1.299   .     A
N986   O987    1.301   .     A
N986   N1022   1.383   .     S
O989   Zn1001  1.980   .     S
O989   C993    1.285   .     A
O990   C994    1.281   .     A
O990   Zn1002  1.980   .     S
O991   Zn1002  1.994   .     S
O991   C993    1.294   .     A
O992   C994    1.302   .     A
O992   Zn1001  1.994   .     S
C993   C1019   1.413   .     S
C994   C1020   1.420   .     S
O995   C999    1.290   .     A
O995   Zn1001  1.990   .     S
O996   C1000   1.294   .     A
O996   Zn1002  1.990   .     S
O997   Zn1002  2.013   .     S
O997   C999    1.295   .     A
O998   C1000   1.298   .     A
O998   Zn1001  2.013   .     S
C999   C1006   1.429   .     S
C1000  C1005   1.443   .     S
Zn1001 N1022   2.035   .     S
Zn1002 N1021   2.035   .     S
C1003  C1013   1.407   .     A
C1003  C1023   1.520   .     S
C1003  C1005   1.405   .     A
C1004  C1014   1.415   .     A
C1004  C1027   1.520   .     S
C1004  C1006   1.409   .     A
C1005  C1007   1.408   .     A
C1006  C1008   1.395   .     A
C1007  C1009   1.409   .     A
C1007  C1031   1.523   .     S
C1008  C1010   1.397   .     A
C1008  C1035   1.519   .     S
C1009  C1015   1.417   .     A
C1009  C1011   1.414   .     A
C1010  C1016   1.411   .     A
C1010  C1012   1.413   .     A
C1011  C1013   1.420   .     A
C1012  C1014   1.423   .     A
C1012  C327    1.402   1_556 S
C1013  C1018   1.420   .     A
C1014  C1017   1.420   .     A
C1015  C1039   1.514   .     S
C1016  C1043   1.517   .     S
C1016  C334    1.400   1_556 S
C1017  N1047   1.434   .     S
C1017  C331    1.399   1_556 S
C1018  N1050   1.435   .     S
C1019  C1248   1.358   .     S
C1019  N1281   1.437   .     S
N1021  N1098   1.280   .     S
N1021  N1135   1.379   .     S
C1023  H1026   1.104   .     S
C1023  H1025   1.099   .     S
C1023  H1024   1.109   .     S
C1027  H1029   1.107   .     S
C1027  H1028   1.103   .     S
C1027  H1030   1.106   .     S
C1031  H1033   1.110   .     S
C1031  H1032   1.105   .     S
C1031  H1034   1.105   .     S
C1035  H1037   1.110   .     S
C1035  H1038   1.111   .     S
C1035  H1036   1.107   .     S
C1039  H1040   1.107   .     S
C1039  H1041   1.109   .     S
C1039  H1270   1.110   .     S
C1043  H1045   1.109   .     S
C1043  H1044   1.108   .     S
H1046  C1119   1.111   .     S
N1047  O1049   1.301   .     A
N1047  O1276   1.301   .     S
N1050  O1051   1.301   .     A
O1052  N1126   1.301   .     S
N1053  O1055   1.302   .     A
O1054  N1281   1.301   .     S
N1056  O1058   1.298   .     A
N1056  O1057   1.301   .     A
N1056  C1248   1.435   .     S
N1059  O1061   1.298   .     A
N1059  O1060   1.300   .     A
N1062  O1064   1.299   .     A
N1062  O1063   1.301   .     A
N1062  N1098   1.383   .     S
O1065  Zn1077  1.980   .     S
O1065  C1069   1.285   .     A
O1066  C1070   1.281   .     A
O1066  Zn1078  1.980   .     S
O1067  Zn1078  1.994   .     S
O1067  C1069   1.294   .     A
O1068  C1070   1.302   .     A
O1068  Zn1077  1.994   .     S
C1069  C1095   1.413   .     S
C1070  C1096   1.420   .     S
O1071  C1075   1.290   .     A
O1071  Zn1077  1.990   .     S
O1072  C1076   1.294   .     A
O1072  Zn1078  1.990   .     S
O1073  Zn1078  2.013   .     S
O1073  C1075   1.295   .     A
O1074  C1076   1.298   .     A
O1074  Zn1077  2.013   .     S
C1075  C1082   1.429   .     S
C1076  C1081   1.443   .     S
Zn1077 N1098   2.035   .     S
Zn1078 N1097   2.035   .     S
C1079  C1089   1.407   .     A
C1079  C1099   1.520   .     S
C1079  C1081   1.405   .     A
C1080  C1090   1.415   .     A
C1080  C1103   1.520   .     S
C1080  C1082   1.409   .     A
C1081  C1083   1.408   .     A
C1082  C1084   1.395   .     A
C1083  C1085   1.409   .     A
C1083  C1107   1.523   .     S
C1084  C1086   1.397   .     A
C1084  C1111   1.519   .     S
C1085  C1091   1.417   .     A
C1085  C1087   1.414   .     A
C1086  C1092   1.411   .     A
C1086  C1088   1.413   .     A
C1087  C1089   1.420   .     A
C1088  C1090   1.423   .     A
C1088  C403    1.402   1_556 S
C1089  C1094   1.420   .     A
C1090  C1093   1.420   .     A
C1091  C1115   1.514   .     S
C1092  C1119   1.517   .     S
C1092  C410    1.400   1_556 S
C1093  N1123   1.434   .     S
C1093  C407    1.399   1_556 S
C1094  N1126   1.435   .     S
C1095  C1324   1.358   .     S
C1095  N1357   1.437   .     S
N1097  N946    1.280   1_655 S
N1097  N983    1.379   1_655 S
C1099  H1102   1.104   .     S
C1099  H1101   1.099   .     S
C1099  H1100   1.109   .     S
C1103  H1105   1.107   .     S
C1103  H1104   1.103   .     S
C1103  H1106   1.106   .     S
C1107  H1109   1.110   .     S
C1107  H1108   1.105   .     S
C1107  H1110   1.105   .     S
C1111  H1113   1.110   .     S
C1111  H1114   1.111   .     S
C1111  H1112   1.107   .     S
C1115  H1116   1.107   .     S
C1115  H1117   1.109   .     S
C1115  H1346   1.110   .     S
C1119  H1121   1.109   .     S
C1119  H1120   1.108   .     S
H1122  C967    1.111   1_655 S
N1123  O1125   1.301   .     A
N1123  O1352   1.301   .     S
N1126  O1127   1.301   .     A
O1128  N974    1.301   1_655 S
N1129  O1131   1.302   .     A
O1130  N1357   1.301   .     S
N1132  O1134   1.298   .     A
N1132  O1133   1.301   .     A
N1132  C1324   1.435   .     S
N1135  O1137   1.298   .     A
N1135  O1136   1.300   .     A
N1138  O1140   1.299   .     A
N1138  O1139   1.301   .     A
N1138  N946    1.383   1_655 S
O1141  Zn1153  1.980   .     S
O1141  C1145   1.285   .     A
O1142  C1146   1.281   .     A
O1142  Zn1154  1.980   .     S
O1143  Zn1154  1.994   .     S
O1143  C1145   1.294   .     A
O1144  C1146   1.302   .     A
O1144  Zn1153  1.994   .     S
C1145  C1171   1.413   .     S
C1146  C1172   1.420   .     S
O1147  C1151   1.290   .     A
O1147  Zn1153  1.990   .     S
O1148  C1152   1.294   .     A
O1148  Zn1154  1.990   .     S
O1149  Zn1154  2.013   .     S
O1149  C1151   1.295   .     A
O1150  C1152   1.298   .     A
O1150  Zn1153  2.013   .     S
C1151  C1158   1.429   .     S
C1152  C1157   1.443   .     S
Zn1153 N1174   2.035   .     S
Zn1154 N1173   2.035   .     S
C1155  C1165   1.407   .     A
C1155  C1175   1.520   .     S
C1155  C1157   1.405   .     A
C1156  C1166   1.415   .     A
C1156  C1179   1.520   .     S
C1156  C1158   1.409   .     A
C1157  C1159   1.408   .     A
C1158  C1160   1.395   .     A
C1159  C1161   1.409   .     A
C1159  C1183   1.523   .     S
C1160  C1162   1.397   .     A
C1160  C1187   1.519   .     S
C1161  C1167   1.417   .     A
C1161  C1163   1.414   .     A
C1162  C1168   1.411   .     A
C1162  C1164   1.413   .     A
C1163  C1165   1.420   .     A
C1164  C1166   1.423   .     A
C1164  C479    1.402   1_556 S
C1165  C1170   1.420   .     A
C1166  C1169   1.420   .     A
C1167  C1191   1.514   .     S
C1168  C1195   1.517   .     S
C1168  C486    1.400   1_556 S
C1169  N1199   1.434   .     S
C1169  C483    1.399   1_556 S
C1170  N1202   1.435   .     S
C1171  C716    1.358   1_565 S
C1171  N749    1.437   1_565 S
N1173  N1250   1.280   .     S
N1173  N1287   1.379   .     S
N1174  N1325   1.280   1_455 S
N1174  N1366   1.383   1_455 S
C1175  H1178   1.104   .     S
C1175  H1177   1.099   .     S
C1175  H1176   1.109   .     S
C1179  H1181   1.107   .     S
C1179  H1180   1.103   .     S
C1179  H1182   1.106   .     S
C1183  H1185   1.110   .     S
C1183  H1184   1.105   .     S
C1183  H1186   1.105   .     S
C1187  H1189   1.110   .     S
C1187  H1190   1.111   .     S
C1187  H1188   1.107   .     S
C1191  H1192   1.107   .     S
C1191  H1193   1.109   .     S
C1191  H738    1.110   1_565 S
C1195  H1197   1.109   .     S
C1195  H1196   1.108   .     S
C1195  H1350   1.111   1_455 S
H1198  C1271   1.111   .     S
N1199  O1201   1.301   .     A
N1199  O744    1.301   1_565 S
N1202  O1203   1.301   .     A
N1202  O1356   1.301   1_455 S
O1204  N1278   1.301   .     S
N1205  O1207   1.302   .     A
O1206  N749    1.301   1_565 S
N1208  O1210   1.298   .     A
N1208  O1209   1.301   .     A
N1208  C716    1.435   1_565 S
N1211  O1213   1.298   .     A
N1211  O1212   1.300   .     A
N1211  N1325   1.379   1_455 S
N1214  O1216   1.299   .     A
N1214  O1215   1.301   .     A
N1214  N1250   1.383   .     S
O1217  Zn1229  1.980   .     S
O1217  C1221   1.285   .     A
O1218  C1222   1.281   .     A
O1218  Zn1230  1.980   .     S
O1219  Zn1230  1.994   .     S
O1219  C1221   1.294   .     A
O1220  C1222   1.302   .     A
O1220  Zn1229  1.994   .     S
C1221  C1247   1.413   .     S
C1222  C1248   1.420   .     S
O1223  C1227   1.290   .     A
O1223  Zn1229  1.990   .     S
O1224  C1228   1.294   .     A
O1224  Zn1230  1.990   .     S
O1225  Zn1230  2.013   .     S
O1225  C1227   1.295   .     A
O1226  C1228   1.298   .     A
O1226  Zn1229  2.013   .     S
C1227  C1234   1.429   .     S
C1228  C1233   1.443   .     S
Zn1229 N1250   2.035   .     S
Zn1230 N1249   2.035   .     S
C1231  C1241   1.407   .     A
C1231  C1251   1.520   .     S
C1231  C1233   1.405   .     A
C1232  C1242   1.415   .     A
C1232  C1255   1.520   .     S
C1232  C1234   1.409   .     A
C1233  C1235   1.408   .     A
C1234  C1236   1.395   .     A
C1235  C1237   1.409   .     A
C1235  C1259   1.523   .     S
C1236  C1238   1.397   .     A
C1236  C1263   1.519   .     S
C1237  C1243   1.417   .     A
C1237  C1239   1.414   .     A
C1238  C1244   1.411   .     A
C1238  C1240   1.413   .     A
C1239  C1241   1.420   .     A
C1240  C1242   1.423   .     A
C1240  C555    1.402   1_556 S
C1241  C1246   1.420   .     A
C1242  C1245   1.420   .     A
C1243  C1267   1.514   .     S
C1244  C1271   1.517   .     S
C1244  C562    1.400   1_556 S
C1245  N1275   1.434   .     S
C1245  C559    1.399   1_556 S
C1246  N1278   1.435   .     S
C1247  C792    1.358   1_565 S
C1247  N825    1.437   1_565 S
N1249  N1326   1.280   .     S
N1249  N1363   1.379   .     S
C1251  H1254   1.104   .     S
C1251  H1253   1.099   .     S
C1251  H1252   1.109   .     S
C1255  H1257   1.107   .     S
C1255  H1256   1.103   .     S
C1255  H1258   1.106   .     S
C1259  H1261   1.110   .     S
C1259  H1260   1.105   .     S
C1259  H1262   1.105   .     S
C1263  H1265   1.110   .     S
C1263  H1266   1.111   .     S
C1263  H1264   1.107   .     S
C1267  H1268   1.107   .     S
C1267  H1269   1.109   .     S
C1267  H814    1.110   1_565 S
C1271  H1273   1.109   .     S
C1271  H1272   1.108   .     S
H1274  C1347   1.111   .     S
N1275  O1277   1.301   .     A
N1275  O820    1.301   1_565 S
N1278  O1279   1.301   .     A
O1280  N1354   1.301   .     S
N1281  O1283   1.302   .     A
O1282  N825    1.301   1_565 S
N1284  O1286   1.298   .     A
N1284  O1285   1.301   .     A
N1284  C792    1.435   1_565 S
N1287  O1289   1.298   .     A
N1287  O1288   1.300   .     A
N1290  O1292   1.299   .     A
N1290  O1291   1.301   .     A
N1290  N1326   1.383   .     S
O1293  Zn1305  1.980   .     S
O1293  C1297   1.285   .     A
O1294  C1298   1.281   .     A
O1294  Zn1306  1.980   .     S
O1295  Zn1306  1.994   .     S
O1295  C1297   1.294   .     A
O1296  C1298   1.302   .     A
O1296  Zn1305  1.994   .     S
C1297  C1323   1.413   .     S
C1298  C1324   1.420   .     S
O1299  C1303   1.290   .     A
O1299  Zn1305  1.990   .     S
O1300  C1304   1.294   .     A
O1300  Zn1306  1.990   .     S
O1301  Zn1306  2.013   .     S
O1301  C1303   1.295   .     A
O1302  C1304   1.298   .     A
O1302  Zn1305  2.013   .     S
C1303  C1310   1.429   .     S
C1304  C1309   1.443   .     S
Zn1305 N1326   2.035   .     S
Zn1306 N1325   2.035   .     S
C1307  C1317   1.407   .     A
C1307  C1327   1.520   .     S
C1307  C1309   1.405   .     A
C1308  C1318   1.415   .     A
C1308  C1331   1.520   .     S
C1308  C1310   1.409   .     A
C1309  C1311   1.408   .     A
C1310  C1312   1.395   .     A
C1311  C1313   1.409   .     A
C1311  C1335   1.523   .     S
C1312  C1314   1.397   .     A
C1312  C1339   1.519   .     S
C1313  C1319   1.417   .     A
C1313  C1315   1.414   .     A
C1314  C1320   1.411   .     A
C1314  C1316   1.413   .     A
C1315  C1317   1.420   .     A
C1316  C1318   1.423   .     A
C1316  C631    1.402   1_556 S
C1317  C1322   1.420   .     A
C1318  C1321   1.420   .     A
C1319  C1343   1.514   .     S
C1320  C1347   1.517   .     S
C1320  C638    1.400   1_556 S
C1321  N1351   1.434   .     S
C1321  C635    1.399   1_556 S
C1322  N1354   1.435   .     S
C1323  C868    1.358   1_565 S
C1323  N901    1.437   1_565 S
N1325  N1174   1.280   1_655 S
N1325  N1211   1.379   1_655 S
C1327  H1330   1.104   .     S
C1327  H1329   1.099   .     S
C1327  H1328   1.109   .     S
C1331  H1333   1.107   .     S
C1331  H1332   1.103   .     S
C1331  H1334   1.106   .     S
C1335  H1337   1.110   .     S
C1335  H1336   1.105   .     S
C1335  H1338   1.105   .     S
C1339  H1341   1.110   .     S
C1339  H1342   1.111   .     S
C1339  H1340   1.107   .     S
C1343  H1344   1.107   .     S
C1343  H1345   1.109   .     S
C1343  H890    1.110   1_565 S
C1347  H1349   1.109   .     S
C1347  H1348   1.108   .     S
H1350  C1195   1.111   1_655 S
N1351  O1353   1.301   .     A
N1351  O896    1.301   1_565 S
N1354  O1355   1.301   .     A
O1356  N1202   1.301   1_655 S
N1357  O1359   1.302   .     A
O1358  N901    1.301   1_565 S
N1360  O1362   1.298   .     A
N1360  O1361   1.301   .     A
N1360  C868    1.435   1_565 S
N1363  O1365   1.298   .     A
N1363  O1364   1.300   .     A
N1366  O1368   1.299   .     A
N1366  O1367   1.301   .     A
N1366  N1174   1.383   1_655 S
