data_str_m3_o2_o5_pcu_sym.40
_audit_creation_date              2020-01-03
_audit_creation_method            'Materials Studio'
_symmetry_space_group_name_H-M    'P1'
_symmetry_Int_Tables_number       1
_symmetry_cell_setting            triclinic
loop_
_symmetry_equiv_pos_as_xyz
  x,y,z
_cell_length_a                    29.9825
_cell_length_b                    28.6888
_cell_length_c                    26.6780
_cell_angle_alpha                 90.0000
_cell_angle_beta                  91.7743
_cell_angle_gamma                 90.0000
loop_
_atom_site_label
_atom_site_type_symbol
_atom_site_fract_x
_atom_site_fract_y
_atom_site_fract_z
_atom_site_U_iso_or_equiv
_atom_site_adp_type
_atom_site_occupancy
C1     C     0.16402   0.24999   0.16667   0.00000  Uiso   1.00
C2     C     0.21626   0.44782   0.14187   0.00000  Uiso   1.00
C3     C     0.24988   0.25000   0.07299   0.00000  Uiso   1.00
C4     C     0.25012   0.25000   0.26034   0.00000  Uiso   1.00
C5     C     0.25000   0.02650   0.16667   0.00000  Uiso   1.00
C6     C     0.25000   0.47352   0.16667   0.00000  Uiso   1.00
C7     C     0.24995   0.24998   0.02183   0.00000  Uiso   1.00
C8     C     0.25005   0.24998   0.31151   0.00000  Uiso   1.00
C9     C     0.04748   0.28857   0.18539   0.00000  Uiso   1.00
C10    C     0.45346   0.21106   0.18505   0.00000  Uiso   1.00
C11    C     0.45252   0.28857   0.14793   0.00000  Uiso   1.00
C12    C     0.33598   0.24999   0.16667   0.00000  Uiso   1.00
C13    C     0.04654   0.21106   0.14829   0.00000  Uiso   1.00
C14    C     0.09353   0.28864   0.18538   0.00000  Uiso   1.00
C15    C     0.40741   0.21102   0.18485   0.00000  Uiso   1.00
C16    C     0.40647   0.28864   0.14795   0.00000  Uiso   1.00
C17    C     0.09259   0.21102   0.14849   0.00000  Uiso   1.00
C18    C     0.11607   0.24991   0.16681   0.00000  Uiso   1.00
C19    C     0.38393   0.24991   0.16652   0.00000  Uiso   1.00
C20    C     0.02404   0.24983   0.16674   0.00000  Uiso   1.00
C21    C     0.47596   0.24983   0.16659   0.00000  Uiso   1.00
C22    C     0.20411   0.12537   0.08579   0.00000  Uiso   1.00
C23    C     0.22835   0.10149   0.12869   0.00000  Uiso   1.00
C24    C     0.32069   0.37472   0.22057   0.00000  Uiso   1.00
C25    C     0.29589   0.12537   0.24754   0.00000  Uiso   1.00
C26    C     0.17931   0.37472   0.11276   0.00000  Uiso   1.00
C27    C     0.28313   0.39853   0.19215   0.00000  Uiso   1.00
C28    C     0.27165   0.10149   0.20465   0.00000  Uiso   1.00
C29    C     0.21687   0.39853   0.14118   0.00000  Uiso   1.00
C30    C     0.22898   0.05220   0.12801   0.00000  Uiso   1.00
C31    C     0.28374   0.44782   0.19146   0.00000  Uiso   1.00
C32    C     0.27102   0.05220   0.20532   0.00000  Uiso   1.00
H33    H     0.03017   0.31838   0.20039   0.00000  Uiso   1.00
H34    H     0.31138   0.46589   0.20984   0.00000  Uiso   1.00
H35    H     0.28654   0.03414   0.23690   0.00000  Uiso   1.00
H36    H     0.18862   0.46589   0.12349   0.00000  Uiso   1.00
H37    H     0.18425   0.15505   0.09893   0.00000  Uiso   1.00
H38    H     0.22834   0.13656   0.05761   0.00000  Uiso   1.00
H39    H     0.18011   0.10141   0.06640   0.00000  Uiso   1.00
H40    H     0.30874   0.34487   0.24238   0.00000  Uiso   1.00
H41    H     0.34655   0.36390   0.19423   0.00000  Uiso   1.00
H42    H     0.33707   0.39868   0.24820   0.00000  Uiso   1.00
H43    H     0.31575   0.15505   0.23440   0.00000  Uiso   1.00
H44    H     0.47152   0.18118   0.20001   0.00000  Uiso   1.00
H45    H     0.27166   0.13656   0.27572   0.00000  Uiso   1.00
H46    H     0.31989   0.10141   0.26693   0.00000  Uiso   1.00
H47    H     0.19126   0.34487   0.09095   0.00000  Uiso   1.00
H48    H     0.15345   0.36390   0.13910   0.00000  Uiso   1.00
H49    H     0.16293   0.39868   0.08513   0.00000  Uiso   1.00
H50    H     0.46983   0.31838   0.13293   0.00000  Uiso   1.00
H51    H     0.02848   0.18118   0.13333   0.00000  Uiso   1.00
H52    H     0.11143   0.31854   0.20049   0.00000  Uiso   1.00
H53    H     0.39028   0.18097   0.19954   0.00000  Uiso   1.00
H54    H     0.38857   0.31853   0.13283   0.00000  Uiso   1.00
H55    H     0.10972   0.18097   0.13380   0.00000  Uiso   1.00
H56    H     0.21346   0.03414   0.09643   0.00000  Uiso   1.00
N57    N     0.25000   0.12623   0.16667   0.00000  Uiso   1.00
N58    N     0.25000   0.37376   0.16667   0.00000  Uiso   1.00
O59    O     0.18453   0.28974   0.16667   0.00000  Uiso   1.00
O60    O     0.31547   0.21026   0.16666   0.00000  Uiso   1.00
O61    O     0.31547   0.28974   0.16666   0.00000  Uiso   1.00
O62    O     0.18453   0.21026   0.16667   0.00000  Uiso   1.00
O63    O     0.25000   0.28973   0.09511   0.00000  Uiso   1.00
O64    O     0.25000   0.21027   0.23822   0.00000  Uiso   1.00
O65    O     0.25000   0.28973   0.23822   0.00000  Uiso   1.00
O66    O     0.25000   0.21027   0.09511   0.00000  Uiso   1.00
Zn67   Zn    0.25000   0.30307   0.16667   0.00000  Uiso   1.00
Zn68   Zn    0.25000   0.19693   0.16667   0.00000  Uiso   1.00
C69    C     0.66402   0.24999   0.16667   0.00000  Uiso   1.00
C70    C     0.71626   0.44782   0.14187   0.00000  Uiso   1.00
C71    C     0.74988   0.25000   0.07299   0.00000  Uiso   1.00
C72    C     0.75012   0.25000   0.26034   0.00000  Uiso   1.00
C73    C     0.75000   0.02650   0.16667   0.00000  Uiso   1.00
C74    C     0.75000   0.47352   0.16667   0.00000  Uiso   1.00
C75    C     0.74995   0.24998   0.02183   0.00000  Uiso   1.00
C76    C     0.75005   0.24998   0.31151   0.00000  Uiso   1.00
C77    C     0.54748   0.28857   0.18539   0.00000  Uiso   1.00
C78    C     0.95346   0.21106   0.18505   0.00000  Uiso   1.00
C79    C     0.95252   0.28857   0.14793   0.00000  Uiso   1.00
C80    C     0.83598   0.24999   0.16667   0.00000  Uiso   1.00
C81    C     0.54654   0.21106   0.14829   0.00000  Uiso   1.00
C82    C     0.59353   0.28864   0.18538   0.00000  Uiso   1.00
C83    C     0.90741   0.21102   0.18485   0.00000  Uiso   1.00
C84    C     0.90647   0.28864   0.14795   0.00000  Uiso   1.00
C85    C     0.59259   0.21102   0.14849   0.00000  Uiso   1.00
C86    C     0.61607   0.24991   0.16681   0.00000  Uiso   1.00
C87    C     0.88393   0.24991   0.16652   0.00000  Uiso   1.00
C88    C     0.52404   0.24983   0.16674   0.00000  Uiso   1.00
C89    C     0.97596   0.24983   0.16659   0.00000  Uiso   1.00
C90    C     0.70411   0.12537   0.08579   0.00000  Uiso   1.00
C91    C     0.72835   0.10149   0.12869   0.00000  Uiso   1.00
C92    C     0.82069   0.37472   0.22057   0.00000  Uiso   1.00
C93    C     0.79589   0.12537   0.24754   0.00000  Uiso   1.00
C94    C     0.67931   0.37472   0.11276   0.00000  Uiso   1.00
C95    C     0.78313   0.39853   0.19215   0.00000  Uiso   1.00
C96    C     0.77165   0.10149   0.20465   0.00000  Uiso   1.00
C97    C     0.71687   0.39853   0.14118   0.00000  Uiso   1.00
C98    C     0.72898   0.05220   0.12801   0.00000  Uiso   1.00
C99    C     0.78374   0.44782   0.19146   0.00000  Uiso   1.00
C100   C     0.77102   0.05220   0.20532   0.00000  Uiso   1.00
H101   H     0.53017   0.31838   0.20039   0.00000  Uiso   1.00
H102   H     0.81138   0.46589   0.20984   0.00000  Uiso   1.00
H103   H     0.78654   0.03414   0.23690   0.00000  Uiso   1.00
H104   H     0.68862   0.46589   0.12349   0.00000  Uiso   1.00
H105   H     0.68425   0.15505   0.09893   0.00000  Uiso   1.00
H106   H     0.72834   0.13656   0.05761   0.00000  Uiso   1.00
H107   H     0.68011   0.10141   0.06640   0.00000  Uiso   1.00
H108   H     0.80874   0.34487   0.24238   0.00000  Uiso   1.00
H109   H     0.84655   0.36390   0.19423   0.00000  Uiso   1.00
H110   H     0.83707   0.39868   0.24820   0.00000  Uiso   1.00
H111   H     0.81575   0.15505   0.23440   0.00000  Uiso   1.00
H112   H     0.97152   0.18118   0.20001   0.00000  Uiso   1.00
H113   H     0.77166   0.13656   0.27572   0.00000  Uiso   1.00
H114   H     0.81989   0.10141   0.26693   0.00000  Uiso   1.00
H115   H     0.69126   0.34487   0.09095   0.00000  Uiso   1.00
H116   H     0.65345   0.36390   0.13910   0.00000  Uiso   1.00
H117   H     0.66293   0.39868   0.08513   0.00000  Uiso   1.00
H118   H     0.96983   0.31838   0.13293   0.00000  Uiso   1.00
H119   H     0.52848   0.18118   0.13333   0.00000  Uiso   1.00
H120   H     0.61143   0.31854   0.20049   0.00000  Uiso   1.00
H121   H     0.89028   0.18097   0.19954   0.00000  Uiso   1.00
H122   H     0.88857   0.31853   0.13283   0.00000  Uiso   1.00
H123   H     0.60972   0.18097   0.13380   0.00000  Uiso   1.00
H124   H     0.71346   0.03414   0.09643   0.00000  Uiso   1.00
N125   N     0.75000   0.12623   0.16667   0.00000  Uiso   1.00
N126   N     0.75000   0.37376   0.16667   0.00000  Uiso   1.00
O127   O     0.68453   0.28974   0.16667   0.00000  Uiso   1.00
O128   O     0.81547   0.21026   0.16666   0.00000  Uiso   1.00
O129   O     0.81547   0.28974   0.16666   0.00000  Uiso   1.00
O130   O     0.68453   0.21026   0.16667   0.00000  Uiso   1.00
O131   O     0.75000   0.28973   0.09511   0.00000  Uiso   1.00
O132   O     0.75000   0.21027   0.23822   0.00000  Uiso   1.00
O133   O     0.75000   0.28973   0.23822   0.00000  Uiso   1.00
O134   O     0.75000   0.21027   0.09511   0.00000  Uiso   1.00
Zn135  Zn    0.75000   0.30307   0.16667   0.00000  Uiso   1.00
Zn136  Zn    0.75000   0.19693   0.16667   0.00000  Uiso   1.00
C137   C     0.16402   0.74999   0.16667   0.00000  Uiso   1.00
C138   C     0.21626   0.94782   0.14187   0.00000  Uiso   1.00
C139   C     0.24988   0.75000   0.07299   0.00000  Uiso   1.00
C140   C     0.25012   0.75000   0.26034   0.00000  Uiso   1.00
C141   C     0.25000   0.52650   0.16667   0.00000  Uiso   1.00
C142   C     0.25000   0.97352   0.16667   0.00000  Uiso   1.00
C143   C     0.24995   0.74998   0.02183   0.00000  Uiso   1.00
C144   C     0.25005   0.74998   0.31151   0.00000  Uiso   1.00
C145   C     0.04748   0.78857   0.18539   0.00000  Uiso   1.00
C146   C     0.45346   0.71106   0.18505   0.00000  Uiso   1.00
C147   C     0.45252   0.78857   0.14793   0.00000  Uiso   1.00
C148   C     0.33598   0.74999   0.16667   0.00000  Uiso   1.00
C149   C     0.04654   0.71106   0.14829   0.00000  Uiso   1.00
C150   C     0.09353   0.78864   0.18538   0.00000  Uiso   1.00
C151   C     0.40741   0.71102   0.18485   0.00000  Uiso   1.00
C152   C     0.40647   0.78864   0.14795   0.00000  Uiso   1.00
C153   C     0.09259   0.71102   0.14849   0.00000  Uiso   1.00
C154   C     0.11607   0.74991   0.16681   0.00000  Uiso   1.00
C155   C     0.38393   0.74991   0.16652   0.00000  Uiso   1.00
C156   C     0.02404   0.74983   0.16674   0.00000  Uiso   1.00
C157   C     0.47596   0.74983   0.16659   0.00000  Uiso   1.00
C158   C     0.20411   0.62537   0.08579   0.00000  Uiso   1.00
C159   C     0.22835   0.60149   0.12869   0.00000  Uiso   1.00
C160   C     0.32069   0.87472   0.22057   0.00000  Uiso   1.00
C161   C     0.29589   0.62537   0.24754   0.00000  Uiso   1.00
C162   C     0.17931   0.87472   0.11276   0.00000  Uiso   1.00
C163   C     0.28313   0.89853   0.19215   0.00000  Uiso   1.00
C164   C     0.27165   0.60149   0.20465   0.00000  Uiso   1.00
C165   C     0.21687   0.89853   0.14118   0.00000  Uiso   1.00
C166   C     0.22898   0.55220   0.12801   0.00000  Uiso   1.00
C167   C     0.28374   0.94782   0.19146   0.00000  Uiso   1.00
C168   C     0.27102   0.55220   0.20532   0.00000  Uiso   1.00
H169   H     0.03017   0.81838   0.20039   0.00000  Uiso   1.00
H170   H     0.31138   0.96589   0.20984   0.00000  Uiso   1.00
H171   H     0.28654   0.53414   0.23690   0.00000  Uiso   1.00
H172   H     0.18862   0.96589   0.12349   0.00000  Uiso   1.00
H173   H     0.18425   0.65505   0.09893   0.00000  Uiso   1.00
H174   H     0.22834   0.63656   0.05761   0.00000  Uiso   1.00
H175   H     0.18011   0.60141   0.06640   0.00000  Uiso   1.00
H176   H     0.30874   0.84487   0.24238   0.00000  Uiso   1.00
H177   H     0.34655   0.86390   0.19423   0.00000  Uiso   1.00
H178   H     0.33707   0.89868   0.24820   0.00000  Uiso   1.00
H179   H     0.31575   0.65505   0.23440   0.00000  Uiso   1.00
H180   H     0.47152   0.68118   0.20001   0.00000  Uiso   1.00
H181   H     0.27166   0.63656   0.27572   0.00000  Uiso   1.00
H182   H     0.31989   0.60141   0.26693   0.00000  Uiso   1.00
H183   H     0.19126   0.84487   0.09095   0.00000  Uiso   1.00
H184   H     0.15345   0.86390   0.13910   0.00000  Uiso   1.00
H185   H     0.16293   0.89868   0.08513   0.00000  Uiso   1.00
H186   H     0.46983   0.81838   0.13293   0.00000  Uiso   1.00
H187   H     0.02848   0.68118   0.13333   0.00000  Uiso   1.00
H188   H     0.11143   0.81854   0.20049   0.00000  Uiso   1.00
H189   H     0.39028   0.68097   0.19954   0.00000  Uiso   1.00
H190   H     0.38857   0.81853   0.13283   0.00000  Uiso   1.00
H191   H     0.10972   0.68097   0.13380   0.00000  Uiso   1.00
H192   H     0.21346   0.53414   0.09643   0.00000  Uiso   1.00
N193   N     0.25000   0.62623   0.16667   0.00000  Uiso   1.00
N194   N     0.25000   0.87376   0.16667   0.00000  Uiso   1.00
O195   O     0.18453   0.78974   0.16667   0.00000  Uiso   1.00
O196   O     0.31547   0.71026   0.16666   0.00000  Uiso   1.00
O197   O     0.31547   0.78974   0.16666   0.00000  Uiso   1.00
O198   O     0.18453   0.71026   0.16667   0.00000  Uiso   1.00
O199   O     0.25000   0.78973   0.09511   0.00000  Uiso   1.00
O200   O     0.25000   0.71027   0.23822   0.00000  Uiso   1.00
O201   O     0.25000   0.78973   0.23822   0.00000  Uiso   1.00
O202   O     0.25000   0.71027   0.09511   0.00000  Uiso   1.00
Zn203  Zn    0.25000   0.80307   0.16667   0.00000  Uiso   1.00
Zn204  Zn    0.25000   0.69693   0.16667   0.00000  Uiso   1.00
C205   C     0.66402   0.74999   0.16667   0.00000  Uiso   1.00
C206   C     0.71626   0.94782   0.14187   0.00000  Uiso   1.00
C207   C     0.74988   0.75000   0.07299   0.00000  Uiso   1.00
C208   C     0.75012   0.75000   0.26034   0.00000  Uiso   1.00
C209   C     0.75000   0.52650   0.16667   0.00000  Uiso   1.00
C210   C     0.75000   0.97352   0.16667   0.00000  Uiso   1.00
C211   C     0.74995   0.74998   0.02183   0.00000  Uiso   1.00
C212   C     0.75005   0.74998   0.31151   0.00000  Uiso   1.00
C213   C     0.54748   0.78857   0.18539   0.00000  Uiso   1.00
C214   C     0.95346   0.71106   0.18505   0.00000  Uiso   1.00
C215   C     0.95252   0.78857   0.14793   0.00000  Uiso   1.00
C216   C     0.83598   0.74999   0.16667   0.00000  Uiso   1.00
C217   C     0.54654   0.71106   0.14829   0.00000  Uiso   1.00
C218   C     0.59353   0.78864   0.18538   0.00000  Uiso   1.00
C219   C     0.90741   0.71102   0.18485   0.00000  Uiso   1.00
C220   C     0.90647   0.78864   0.14795   0.00000  Uiso   1.00
C221   C     0.59259   0.71102   0.14849   0.00000  Uiso   1.00
C222   C     0.61607   0.74991   0.16681   0.00000  Uiso   1.00
C223   C     0.88393   0.74991   0.16652   0.00000  Uiso   1.00
C224   C     0.52404   0.74983   0.16674   0.00000  Uiso   1.00
C225   C     0.97596   0.74983   0.16659   0.00000  Uiso   1.00
C226   C     0.70411   0.62537   0.08579   0.00000  Uiso   1.00
C227   C     0.72835   0.60149   0.12869   0.00000  Uiso   1.00
C228   C     0.82069   0.87472   0.22057   0.00000  Uiso   1.00
C229   C     0.79589   0.62537   0.24754   0.00000  Uiso   1.00
C230   C     0.67931   0.87472   0.11276   0.00000  Uiso   1.00
C231   C     0.78313   0.89853   0.19215   0.00000  Uiso   1.00
C232   C     0.77165   0.60149   0.20465   0.00000  Uiso   1.00
C233   C     0.71687   0.89853   0.14118   0.00000  Uiso   1.00
C234   C     0.72898   0.55220   0.12801   0.00000  Uiso   1.00
C235   C     0.78374   0.94782   0.19146   0.00000  Uiso   1.00
C236   C     0.77102   0.55220   0.20532   0.00000  Uiso   1.00
H237   H     0.53017   0.81838   0.20039   0.00000  Uiso   1.00
H238   H     0.81138   0.96589   0.20984   0.00000  Uiso   1.00
H239   H     0.78654   0.53414   0.23690   0.00000  Uiso   1.00
H240   H     0.68862   0.96589   0.12349   0.00000  Uiso   1.00
H241   H     0.68425   0.65505   0.09893   0.00000  Uiso   1.00
H242   H     0.72834   0.63656   0.05761   0.00000  Uiso   1.00
H243   H     0.68011   0.60141   0.06640   0.00000  Uiso   1.00
H244   H     0.80874   0.84487   0.24238   0.00000  Uiso   1.00
H245   H     0.84655   0.86390   0.19423   0.00000  Uiso   1.00
H246   H     0.83707   0.89868   0.24820   0.00000  Uiso   1.00
H247   H     0.81575   0.65505   0.23440   0.00000  Uiso   1.00
H248   H     0.97152   0.68118   0.20001   0.00000  Uiso   1.00
H249   H     0.77166   0.63656   0.27572   0.00000  Uiso   1.00
H250   H     0.81989   0.60141   0.26693   0.00000  Uiso   1.00
H251   H     0.69126   0.84487   0.09095   0.00000  Uiso   1.00
H252   H     0.65345   0.86390   0.13910   0.00000  Uiso   1.00
H253   H     0.66293   0.89868   0.08513   0.00000  Uiso   1.00
H254   H     0.96983   0.81838   0.13293   0.00000  Uiso   1.00
H255   H     0.52848   0.68118   0.13333   0.00000  Uiso   1.00
H256   H     0.61143   0.81854   0.20049   0.00000  Uiso   1.00
H257   H     0.89028   0.68097   0.19954   0.00000  Uiso   1.00
H258   H     0.88857   0.81853   0.13283   0.00000  Uiso   1.00
H259   H     0.60972   0.68097   0.13380   0.00000  Uiso   1.00
H260   H     0.71346   0.53414   0.09643   0.00000  Uiso   1.00
N261   N     0.75000   0.62623   0.16667   0.00000  Uiso   1.00
N262   N     0.75000   0.87376   0.16667   0.00000  Uiso   1.00
O263   O     0.68453   0.78974   0.16667   0.00000  Uiso   1.00
O264   O     0.81547   0.71026   0.16666   0.00000  Uiso   1.00
O265   O     0.81547   0.78974   0.16666   0.00000  Uiso   1.00
O266   O     0.68453   0.71026   0.16667   0.00000  Uiso   1.00
O267   O     0.75000   0.78973   0.09511   0.00000  Uiso   1.00
O268   O     0.75000   0.71027   0.23822   0.00000  Uiso   1.00
O269   O     0.75000   0.78973   0.23822   0.00000  Uiso   1.00
O270   O     0.75000   0.71027   0.09511   0.00000  Uiso   1.00
Zn271  Zn    0.75000   0.80307   0.16667   0.00000  Uiso   1.00
Zn272  Zn    0.75000   0.69693   0.16667   0.00000  Uiso   1.00
C273   C     0.16402   0.24999   0.50000   0.00000  Uiso   1.00
C274   C     0.21626   0.44782   0.47521   0.00000  Uiso   1.00
C275   C     0.24988   0.25000   0.40632   0.00000  Uiso   1.00
C276   C     0.25012   0.25000   0.59368   0.00000  Uiso   1.00
C277   C     0.25000   0.02650   0.50000   0.00000  Uiso   1.00
C278   C     0.25000   0.47352   0.50000   0.00000  Uiso   1.00
C279   C     0.24995   0.24998   0.35516   0.00000  Uiso   1.00
C280   C     0.25005   0.24998   0.64484   0.00000  Uiso   1.00
C281   C     0.04748   0.28857   0.51873   0.00000  Uiso   1.00
C282   C     0.45346   0.21106   0.51838   0.00000  Uiso   1.00
C283   C     0.45252   0.28857   0.48126   0.00000  Uiso   1.00
C284   C     0.33598   0.24999   0.50000   0.00000  Uiso   1.00
C285   C     0.04654   0.21106   0.48163   0.00000  Uiso   1.00
C286   C     0.09353   0.28864   0.51871   0.00000  Uiso   1.00
C287   C     0.40741   0.21102   0.51818   0.00000  Uiso   1.00
C288   C     0.40647   0.28864   0.48128   0.00000  Uiso   1.00
C289   C     0.09259   0.21102   0.48182   0.00000  Uiso   1.00
C290   C     0.11607   0.24991   0.50015   0.00000  Uiso   1.00
C291   C     0.38393   0.24991   0.49985   0.00000  Uiso   1.00
C292   C     0.02404   0.24983   0.50007   0.00000  Uiso   1.00
C293   C     0.47596   0.24983   0.49993   0.00000  Uiso   1.00
C294   C     0.20411   0.12537   0.41912   0.00000  Uiso   1.00
C295   C     0.22835   0.10149   0.46202   0.00000  Uiso   1.00
C296   C     0.32069   0.37472   0.55391   0.00000  Uiso   1.00
C297   C     0.29589   0.12537   0.58088   0.00000  Uiso   1.00
C298   C     0.17931   0.37472   0.44609   0.00000  Uiso   1.00
C299   C     0.28313   0.39853   0.52548   0.00000  Uiso   1.00
C300   C     0.27165   0.10149   0.53798   0.00000  Uiso   1.00
C301   C     0.21687   0.39853   0.47452   0.00000  Uiso   1.00
C302   C     0.22898   0.05220   0.46135   0.00000  Uiso   1.00
C303   C     0.28374   0.44782   0.52479   0.00000  Uiso   1.00
C304   C     0.27102   0.05220   0.53865   0.00000  Uiso   1.00
H305   H     0.03017   0.31838   0.53372   0.00000  Uiso   1.00
H306   H     0.31138   0.46589   0.54317   0.00000  Uiso   1.00
H307   H     0.28654   0.03414   0.57023   0.00000  Uiso   1.00
H308   H     0.18862   0.46589   0.45683   0.00000  Uiso   1.00
H309   H     0.18425   0.15505   0.43226   0.00000  Uiso   1.00
H310   H     0.22834   0.13656   0.39095   0.00000  Uiso   1.00
H311   H     0.18011   0.10141   0.39973   0.00000  Uiso   1.00
H312   H     0.30874   0.34487   0.57572   0.00000  Uiso   1.00
H313   H     0.34655   0.36390   0.52757   0.00000  Uiso   1.00
H314   H     0.33707   0.39868   0.58153   0.00000  Uiso   1.00
H315   H     0.31575   0.15505   0.56774   0.00000  Uiso   1.00
H316   H     0.47152   0.18118   0.53334   0.00000  Uiso   1.00
H317   H     0.27166   0.13656   0.60905   0.00000  Uiso   1.00
H318   H     0.31989   0.10141   0.60027   0.00000  Uiso   1.00
H319   H     0.19126   0.34487   0.42428   0.00000  Uiso   1.00
H320   H     0.15345   0.36390   0.47243   0.00000  Uiso   1.00
H321   H     0.16293   0.39868   0.41847   0.00000  Uiso   1.00
H322   H     0.46983   0.31838   0.46626   0.00000  Uiso   1.00
H323   H     0.02848   0.18118   0.46667   0.00000  Uiso   1.00
H324   H     0.11143   0.31854   0.53383   0.00000  Uiso   1.00
H325   H     0.39028   0.18097   0.53288   0.00000  Uiso   1.00
H326   H     0.38857   0.31853   0.46616   0.00000  Uiso   1.00
H327   H     0.10972   0.18097   0.46713   0.00000  Uiso   1.00
H328   H     0.21346   0.03414   0.42977   0.00000  Uiso   1.00
N329   N     0.25000   0.12623   0.50000   0.00000  Uiso   1.00
N330   N     0.25000   0.37376   0.50000   0.00000  Uiso   1.00
O331   O     0.18453   0.28974   0.50000   0.00000  Uiso   1.00
O332   O     0.31547   0.21026   0.50000   0.00000  Uiso   1.00
O333   O     0.31547   0.28974   0.50000   0.00000  Uiso   1.00
O334   O     0.18453   0.21026   0.50000   0.00000  Uiso   1.00
O335   O     0.25000   0.28973   0.42845   0.00000  Uiso   1.00
O336   O     0.25000   0.21027   0.57155   0.00000  Uiso   1.00
O337   O     0.25000   0.28973   0.57155   0.00000  Uiso   1.00
O338   O     0.25000   0.21027   0.42845   0.00000  Uiso   1.00
Zn339  Zn    0.25000   0.30307   0.50000   0.00000  Uiso   1.00
Zn340  Zn    0.25000   0.19693   0.50000   0.00000  Uiso   1.00
C341   C     0.66402   0.24999   0.50000   0.00000  Uiso   1.00
C342   C     0.71626   0.44782   0.47521   0.00000  Uiso   1.00
C343   C     0.74988   0.25000   0.40632   0.00000  Uiso   1.00
C344   C     0.75012   0.25000   0.59368   0.00000  Uiso   1.00
C345   C     0.75000   0.02650   0.50000   0.00000  Uiso   1.00
C346   C     0.75000   0.47352   0.50000   0.00000  Uiso   1.00
C347   C     0.74995   0.24998   0.35516   0.00000  Uiso   1.00
C348   C     0.75005   0.24998   0.64484   0.00000  Uiso   1.00
C349   C     0.54748   0.28857   0.51873   0.00000  Uiso   1.00
C350   C     0.95346   0.21106   0.51838   0.00000  Uiso   1.00
C351   C     0.95252   0.28857   0.48126   0.00000  Uiso   1.00
C352   C     0.83598   0.24999   0.50000   0.00000  Uiso   1.00
C353   C     0.54654   0.21106   0.48163   0.00000  Uiso   1.00
C354   C     0.59353   0.28864   0.51871   0.00000  Uiso   1.00
C355   C     0.90741   0.21102   0.51818   0.00000  Uiso   1.00
C356   C     0.90647   0.28864   0.48128   0.00000  Uiso   1.00
C357   C     0.59259   0.21102   0.48182   0.00000  Uiso   1.00
C358   C     0.61607   0.24991   0.50015   0.00000  Uiso   1.00
C359   C     0.88393   0.24991   0.49985   0.00000  Uiso   1.00
C360   C     0.52404   0.24983   0.50007   0.00000  Uiso   1.00
C361   C     0.97596   0.24983   0.49993   0.00000  Uiso   1.00
C362   C     0.70411   0.12537   0.41912   0.00000  Uiso   1.00
C363   C     0.72835   0.10149   0.46202   0.00000  Uiso   1.00
C364   C     0.82069   0.37472   0.55391   0.00000  Uiso   1.00
C365   C     0.79589   0.12537   0.58088   0.00000  Uiso   1.00
C366   C     0.67931   0.37472   0.44609   0.00000  Uiso   1.00
C367   C     0.78313   0.39853   0.52548   0.00000  Uiso   1.00
C368   C     0.77165   0.10149   0.53798   0.00000  Uiso   1.00
C369   C     0.71687   0.39853   0.47452   0.00000  Uiso   1.00
C370   C     0.72898   0.05220   0.46135   0.00000  Uiso   1.00
C371   C     0.78374   0.44782   0.52479   0.00000  Uiso   1.00
C372   C     0.77102   0.05220   0.53865   0.00000  Uiso   1.00
H373   H     0.53017   0.31838   0.53372   0.00000  Uiso   1.00
H374   H     0.81138   0.46589   0.54317   0.00000  Uiso   1.00
H375   H     0.78654   0.03414   0.57023   0.00000  Uiso   1.00
H376   H     0.68862   0.46589   0.45683   0.00000  Uiso   1.00
H377   H     0.68425   0.15505   0.43226   0.00000  Uiso   1.00
H378   H     0.72834   0.13656   0.39095   0.00000  Uiso   1.00
H379   H     0.68011   0.10141   0.39973   0.00000  Uiso   1.00
H380   H     0.80874   0.34487   0.57572   0.00000  Uiso   1.00
H381   H     0.84655   0.36390   0.52757   0.00000  Uiso   1.00
H382   H     0.83707   0.39868   0.58153   0.00000  Uiso   1.00
H383   H     0.81575   0.15505   0.56774   0.00000  Uiso   1.00
H384   H     0.97152   0.18118   0.53334   0.00000  Uiso   1.00
H385   H     0.77166   0.13656   0.60905   0.00000  Uiso   1.00
H386   H     0.81989   0.10141   0.60027   0.00000  Uiso   1.00
H387   H     0.69126   0.34487   0.42428   0.00000  Uiso   1.00
H388   H     0.65345   0.36390   0.47243   0.00000  Uiso   1.00
H389   H     0.66293   0.39868   0.41847   0.00000  Uiso   1.00
H390   H     0.96983   0.31838   0.46626   0.00000  Uiso   1.00
H391   H     0.52848   0.18118   0.46667   0.00000  Uiso   1.00
H392   H     0.61143   0.31854   0.53383   0.00000  Uiso   1.00
H393   H     0.89028   0.18097   0.53288   0.00000  Uiso   1.00
H394   H     0.88857   0.31853   0.46616   0.00000  Uiso   1.00
H395   H     0.60972   0.18097   0.46713   0.00000  Uiso   1.00
H396   H     0.71346   0.03414   0.42977   0.00000  Uiso   1.00
N397   N     0.75000   0.12623   0.50000   0.00000  Uiso   1.00
N398   N     0.75000   0.37376   0.50000   0.00000  Uiso   1.00
O399   O     0.68453   0.28974   0.50000   0.00000  Uiso   1.00
O400   O     0.81547   0.21026   0.50000   0.00000  Uiso   1.00
O401   O     0.81547   0.28974   0.50000   0.00000  Uiso   1.00
O402   O     0.68453   0.21026   0.50000   0.00000  Uiso   1.00
O403   O     0.75000   0.28973   0.42845   0.00000  Uiso   1.00
O404   O     0.75000   0.21027   0.57155   0.00000  Uiso   1.00
O405   O     0.75000   0.28973   0.57155   0.00000  Uiso   1.00
O406   O     0.75000   0.21027   0.42845   0.00000  Uiso   1.00
Zn407  Zn    0.75000   0.30307   0.50000   0.00000  Uiso   1.00
Zn408  Zn    0.75000   0.19693   0.50000   0.00000  Uiso   1.00
C409   C     0.16402   0.74999   0.50000   0.00000  Uiso   1.00
C410   C     0.21626   0.94782   0.47521   0.00000  Uiso   1.00
C411   C     0.24988   0.75000   0.40632   0.00000  Uiso   1.00
C412   C     0.25012   0.75000   0.59368   0.00000  Uiso   1.00
C413   C     0.25000   0.52650   0.50000   0.00000  Uiso   1.00
C414   C     0.25000   0.97352   0.50000   0.00000  Uiso   1.00
C415   C     0.24995   0.74998   0.35516   0.00000  Uiso   1.00
C416   C     0.25005   0.74998   0.64484   0.00000  Uiso   1.00
C417   C     0.04748   0.78857   0.51873   0.00000  Uiso   1.00
C418   C     0.45346   0.71106   0.51838   0.00000  Uiso   1.00
C419   C     0.45252   0.78857   0.48126   0.00000  Uiso   1.00
C420   C     0.33598   0.74999   0.50000   0.00000  Uiso   1.00
C421   C     0.04654   0.71106   0.48163   0.00000  Uiso   1.00
C422   C     0.09353   0.78864   0.51871   0.00000  Uiso   1.00
C423   C     0.40741   0.71102   0.51818   0.00000  Uiso   1.00
C424   C     0.40647   0.78864   0.48128   0.00000  Uiso   1.00
C425   C     0.09259   0.71102   0.48182   0.00000  Uiso   1.00
C426   C     0.11607   0.74991   0.50015   0.00000  Uiso   1.00
C427   C     0.38393   0.74991   0.49985   0.00000  Uiso   1.00
C428   C     0.02404   0.74983   0.50007   0.00000  Uiso   1.00
C429   C     0.47596   0.74983   0.49993   0.00000  Uiso   1.00
C430   C     0.20411   0.62537   0.41912   0.00000  Uiso   1.00
C431   C     0.22835   0.60149   0.46202   0.00000  Uiso   1.00
C432   C     0.32069   0.87472   0.55391   0.00000  Uiso   1.00
C433   C     0.29589   0.62537   0.58088   0.00000  Uiso   1.00
C434   C     0.17931   0.87472   0.44609   0.00000  Uiso   1.00
C435   C     0.28313   0.89853   0.52548   0.00000  Uiso   1.00
C436   C     0.27165   0.60149   0.53798   0.00000  Uiso   1.00
C437   C     0.21687   0.89853   0.47452   0.00000  Uiso   1.00
C438   C     0.22898   0.55220   0.46135   0.00000  Uiso   1.00
C439   C     0.28374   0.94782   0.52479   0.00000  Uiso   1.00
C440   C     0.27102   0.55220   0.53865   0.00000  Uiso   1.00
H441   H     0.03017   0.81838   0.53372   0.00000  Uiso   1.00
H442   H     0.31138   0.96589   0.54317   0.00000  Uiso   1.00
H443   H     0.28654   0.53414   0.57023   0.00000  Uiso   1.00
H444   H     0.18862   0.96589   0.45683   0.00000  Uiso   1.00
H445   H     0.18425   0.65505   0.43226   0.00000  Uiso   1.00
H446   H     0.22834   0.63656   0.39095   0.00000  Uiso   1.00
H447   H     0.18011   0.60141   0.39973   0.00000  Uiso   1.00
H448   H     0.30874   0.84487   0.57572   0.00000  Uiso   1.00
H449   H     0.34655   0.86390   0.52757   0.00000  Uiso   1.00
H450   H     0.33707   0.89868   0.58153   0.00000  Uiso   1.00
H451   H     0.31575   0.65505   0.56774   0.00000  Uiso   1.00
H452   H     0.47152   0.68118   0.53334   0.00000  Uiso   1.00
H453   H     0.27166   0.63656   0.60905   0.00000  Uiso   1.00
H454   H     0.31989   0.60141   0.60027   0.00000  Uiso   1.00
H455   H     0.19126   0.84487   0.42428   0.00000  Uiso   1.00
H456   H     0.15345   0.86390   0.47243   0.00000  Uiso   1.00
H457   H     0.16293   0.89868   0.41847   0.00000  Uiso   1.00
H458   H     0.46983   0.81838   0.46626   0.00000  Uiso   1.00
H459   H     0.02848   0.68118   0.46667   0.00000  Uiso   1.00
H460   H     0.11143   0.81854   0.53383   0.00000  Uiso   1.00
H461   H     0.39028   0.68097   0.53288   0.00000  Uiso   1.00
H462   H     0.38857   0.81853   0.46616   0.00000  Uiso   1.00
H463   H     0.10972   0.68097   0.46713   0.00000  Uiso   1.00
H464   H     0.21346   0.53414   0.42977   0.00000  Uiso   1.00
N465   N     0.25000   0.62623   0.50000   0.00000  Uiso   1.00
N466   N     0.25000   0.87376   0.50000   0.00000  Uiso   1.00
O467   O     0.18453   0.78974   0.50000   0.00000  Uiso   1.00
O468   O     0.31547   0.71026   0.50000   0.00000  Uiso   1.00
O469   O     0.31547   0.78974   0.50000   0.00000  Uiso   1.00
O470   O     0.18453   0.71026   0.50000   0.00000  Uiso   1.00
O471   O     0.25000   0.78973   0.42845   0.00000  Uiso   1.00
O472   O     0.25000   0.71027   0.57155   0.00000  Uiso   1.00
O473   O     0.25000   0.78973   0.57155   0.00000  Uiso   1.00
O474   O     0.25000   0.71027   0.42845   0.00000  Uiso   1.00
Zn475  Zn    0.25000   0.80307   0.50000   0.00000  Uiso   1.00
Zn476  Zn    0.25000   0.69693   0.50000   0.00000  Uiso   1.00
C477   C     0.66402   0.74999   0.50000   0.00000  Uiso   1.00
C478   C     0.71626   0.94782   0.47521   0.00000  Uiso   1.00
C479   C     0.74988   0.75000   0.40632   0.00000  Uiso   1.00
C480   C     0.75012   0.75000   0.59368   0.00000  Uiso   1.00
C481   C     0.75000   0.52650   0.50000   0.00000  Uiso   1.00
C482   C     0.75000   0.97352   0.50000   0.00000  Uiso   1.00
C483   C     0.74995   0.74998   0.35516   0.00000  Uiso   1.00
C484   C     0.75005   0.74998   0.64484   0.00000  Uiso   1.00
C485   C     0.54748   0.78857   0.51873   0.00000  Uiso   1.00
C486   C     0.95346   0.71106   0.51838   0.00000  Uiso   1.00
C487   C     0.95252   0.78857   0.48126   0.00000  Uiso   1.00
C488   C     0.83598   0.74999   0.50000   0.00000  Uiso   1.00
C489   C     0.54654   0.71106   0.48163   0.00000  Uiso   1.00
C490   C     0.59353   0.78864   0.51871   0.00000  Uiso   1.00
C491   C     0.90741   0.71102   0.51818   0.00000  Uiso   1.00
C492   C     0.90647   0.78864   0.48128   0.00000  Uiso   1.00
C493   C     0.59259   0.71102   0.48182   0.00000  Uiso   1.00
C494   C     0.61607   0.74991   0.50015   0.00000  Uiso   1.00
C495   C     0.88393   0.74991   0.49985   0.00000  Uiso   1.00
C496   C     0.52404   0.74983   0.50007   0.00000  Uiso   1.00
C497   C     0.97596   0.74983   0.49993   0.00000  Uiso   1.00
C498   C     0.70411   0.62537   0.41912   0.00000  Uiso   1.00
C499   C     0.72835   0.60149   0.46202   0.00000  Uiso   1.00
C500   C     0.82069   0.87472   0.55391   0.00000  Uiso   1.00
C501   C     0.79589   0.62537   0.58088   0.00000  Uiso   1.00
C502   C     0.67931   0.87472   0.44609   0.00000  Uiso   1.00
C503   C     0.78313   0.89853   0.52548   0.00000  Uiso   1.00
C504   C     0.77165   0.60149   0.53798   0.00000  Uiso   1.00
C505   C     0.71687   0.89853   0.47452   0.00000  Uiso   1.00
C506   C     0.72898   0.55220   0.46135   0.00000  Uiso   1.00
C507   C     0.78374   0.94782   0.52479   0.00000  Uiso   1.00
C508   C     0.77102   0.55220   0.53865   0.00000  Uiso   1.00
H509   H     0.53017   0.81838   0.53372   0.00000  Uiso   1.00
H510   H     0.81138   0.96589   0.54317   0.00000  Uiso   1.00
H511   H     0.78654   0.53414   0.57023   0.00000  Uiso   1.00
H512   H     0.68862   0.96589   0.45683   0.00000  Uiso   1.00
H513   H     0.68425   0.65505   0.43226   0.00000  Uiso   1.00
H514   H     0.72834   0.63656   0.39095   0.00000  Uiso   1.00
H515   H     0.68011   0.60141   0.39973   0.00000  Uiso   1.00
H516   H     0.80874   0.84487   0.57572   0.00000  Uiso   1.00
H517   H     0.84655   0.86390   0.52757   0.00000  Uiso   1.00
H518   H     0.83707   0.89868   0.58153   0.00000  Uiso   1.00
H519   H     0.81575   0.65505   0.56774   0.00000  Uiso   1.00
H520   H     0.97152   0.68118   0.53334   0.00000  Uiso   1.00
H521   H     0.77166   0.63656   0.60905   0.00000  Uiso   1.00
H522   H     0.81989   0.60141   0.60027   0.00000  Uiso   1.00
H523   H     0.69126   0.84487   0.42428   0.00000  Uiso   1.00
H524   H     0.65345   0.86390   0.47243   0.00000  Uiso   1.00
H525   H     0.66293   0.89868   0.41847   0.00000  Uiso   1.00
H526   H     0.96983   0.81838   0.46626   0.00000  Uiso   1.00
H527   H     0.52848   0.68118   0.46667   0.00000  Uiso   1.00
H528   H     0.61143   0.81854   0.53383   0.00000  Uiso   1.00
H529   H     0.89028   0.68097   0.53288   0.00000  Uiso   1.00
H530   H     0.88857   0.81853   0.46616   0.00000  Uiso   1.00
H531   H     0.60972   0.68097   0.46713   0.00000  Uiso   1.00
H532   H     0.71346   0.53414   0.42977   0.00000  Uiso   1.00
N533   N     0.75000   0.62623   0.50000   0.00000  Uiso   1.00
N534   N     0.75000   0.87376   0.50000   0.00000  Uiso   1.00
O535   O     0.68453   0.78974   0.50000   0.00000  Uiso   1.00
O536   O     0.81547   0.71026   0.50000   0.00000  Uiso   1.00
O537   O     0.81547   0.78974   0.50000   0.00000  Uiso   1.00
O538   O     0.68453   0.71026   0.50000   0.00000  Uiso   1.00
O539   O     0.75000   0.78973   0.42845   0.00000  Uiso   1.00
O540   O     0.75000   0.71027   0.57155   0.00000  Uiso   1.00
O541   O     0.75000   0.78973   0.57155   0.00000  Uiso   1.00
O542   O     0.75000   0.71027   0.42845   0.00000  Uiso   1.00
Zn543  Zn    0.75000   0.80307   0.50000   0.00000  Uiso   1.00
Zn544  Zn    0.75000   0.69693   0.50000   0.00000  Uiso   1.00
C545   C     0.16402   0.24999   0.83333   0.00000  Uiso   1.00
C546   C     0.21626   0.44782   0.80854   0.00000  Uiso   1.00
C547   C     0.24988   0.25000   0.73966   0.00000  Uiso   1.00
C548   C     0.25012   0.25000   0.92701   0.00000  Uiso   1.00
C549   C     0.25000   0.02650   0.83333   0.00000  Uiso   1.00
C550   C     0.25000   0.47352   0.83333   0.00000  Uiso   1.00
C551   C     0.24995   0.24998   0.68849   0.00000  Uiso   1.00
C552   C     0.25005   0.24998   0.97817   0.00000  Uiso   1.00
C553   C     0.04748   0.28857   0.85206   0.00000  Uiso   1.00
C554   C     0.45346   0.21106   0.85171   0.00000  Uiso   1.00
C555   C     0.45252   0.28857   0.81460   0.00000  Uiso   1.00
C556   C     0.33598   0.24999   0.83333   0.00000  Uiso   1.00
C557   C     0.04654   0.21106   0.81496   0.00000  Uiso   1.00
C558   C     0.09353   0.28864   0.85204   0.00000  Uiso   1.00
C559   C     0.40741   0.21102   0.85152   0.00000  Uiso   1.00
C560   C     0.40647   0.28864   0.81462   0.00000  Uiso   1.00
C561   C     0.09259   0.21102   0.81516   0.00000  Uiso   1.00
C562   C     0.11607   0.24991   0.83348   0.00000  Uiso   1.00
C563   C     0.38393   0.24991   0.83319   0.00000  Uiso   1.00
C564   C     0.02404   0.24983   0.83341   0.00000  Uiso   1.00
C565   C     0.47596   0.24983   0.83326   0.00000  Uiso   1.00
C566   C     0.20411   0.12537   0.75246   0.00000  Uiso   1.00
C567   C     0.22835   0.10149   0.79535   0.00000  Uiso   1.00
C568   C     0.32069   0.37472   0.88724   0.00000  Uiso   1.00
C569   C     0.29589   0.12537   0.91421   0.00000  Uiso   1.00
C570   C     0.17931   0.37472   0.77943   0.00000  Uiso   1.00
C571   C     0.28313   0.39853   0.85882   0.00000  Uiso   1.00
C572   C     0.27165   0.10149   0.87131   0.00000  Uiso   1.00
C573   C     0.21687   0.39853   0.80785   0.00000  Uiso   1.00
C574   C     0.22898   0.05220   0.79468   0.00000  Uiso   1.00
C575   C     0.28374   0.44782   0.85813   0.00000  Uiso   1.00
C576   C     0.27102   0.05220   0.87199   0.00000  Uiso   1.00
H577   H     0.03017   0.31838   0.86706   0.00000  Uiso   1.00
H578   H     0.31138   0.46589   0.87651   0.00000  Uiso   1.00
H579   H     0.28654   0.03414   0.90357   0.00000  Uiso   1.00
H580   H     0.18862   0.46589   0.79016   0.00000  Uiso   1.00
H581   H     0.18425   0.15505   0.76560   0.00000  Uiso   1.00
H582   H     0.22834   0.13656   0.72428   0.00000  Uiso   1.00
H583   H     0.18011   0.10141   0.73307   0.00000  Uiso   1.00
H584   H     0.30874   0.34487   0.90905   0.00000  Uiso   1.00
H585   H     0.34655   0.36390   0.86090   0.00000  Uiso   1.00
H586   H     0.33707   0.39868   0.91487   0.00000  Uiso   1.00
H587   H     0.31575   0.15505   0.90107   0.00000  Uiso   1.00
H588   H     0.47152   0.18118   0.86668   0.00000  Uiso   1.00
H589   H     0.27166   0.13656   0.94239   0.00000  Uiso   1.00
H590   H     0.31989   0.10141   0.93360   0.00000  Uiso   1.00
H591   H     0.19126   0.34487   0.75762   0.00000  Uiso   1.00
H592   H     0.15345   0.36390   0.80577   0.00000  Uiso   1.00
H593   H     0.16293   0.39868   0.75180   0.00000  Uiso   1.00
H594   H     0.46983   0.31838   0.79960   0.00000  Uiso   1.00
H595   H     0.02848   0.18118   0.80000   0.00000  Uiso   1.00
H596   H     0.11143   0.31854   0.86716   0.00000  Uiso   1.00
H597   H     0.39028   0.18097   0.86621   0.00000  Uiso   1.00
H598   H     0.38857   0.31853   0.79950   0.00000  Uiso   1.00
H599   H     0.10972   0.18097   0.80047   0.00000  Uiso   1.00
H600   H     0.21346   0.03414   0.76310   0.00000  Uiso   1.00
N601   N     0.25000   0.12623   0.83333   0.00000  Uiso   1.00
N602   N     0.25000   0.37376   0.83333   0.00000  Uiso   1.00
O603   O     0.18453   0.28974   0.83334   0.00000  Uiso   1.00
O604   O     0.31547   0.21026   0.83333   0.00000  Uiso   1.00
O605   O     0.31547   0.28974   0.83333   0.00000  Uiso   1.00
O606   O     0.18453   0.21026   0.83334   0.00000  Uiso   1.00
O607   O     0.25000   0.28973   0.76178   0.00000  Uiso   1.00
O608   O     0.25000   0.21027   0.90489   0.00000  Uiso   1.00
O609   O     0.25000   0.28973   0.90489   0.00000  Uiso   1.00
O610   O     0.25000   0.21027   0.76178   0.00000  Uiso   1.00
Zn611  Zn    0.25000   0.30307   0.83333   0.00000  Uiso   1.00
Zn612  Zn    0.25000   0.19693   0.83333   0.00000  Uiso   1.00
C613   C     0.66402   0.24999   0.83333   0.00000  Uiso   1.00
C614   C     0.71626   0.44782   0.80854   0.00000  Uiso   1.00
C615   C     0.74988   0.25000   0.73966   0.00000  Uiso   1.00
C616   C     0.75012   0.25000   0.92701   0.00000  Uiso   1.00
C617   C     0.75000   0.02650   0.83333   0.00000  Uiso   1.00
C618   C     0.75000   0.47352   0.83333   0.00000  Uiso   1.00
C619   C     0.74995   0.24998   0.68849   0.00000  Uiso   1.00
C620   C     0.75005   0.24998   0.97817   0.00000  Uiso   1.00
C621   C     0.54748   0.28857   0.85206   0.00000  Uiso   1.00
C622   C     0.95346   0.21106   0.85171   0.00000  Uiso   1.00
C623   C     0.95252   0.28857   0.81460   0.00000  Uiso   1.00
C624   C     0.83598   0.24999   0.83333   0.00000  Uiso   1.00
C625   C     0.54654   0.21106   0.81496   0.00000  Uiso   1.00
C626   C     0.59353   0.28864   0.85204   0.00000  Uiso   1.00
C627   C     0.90741   0.21102   0.85152   0.00000  Uiso   1.00
C628   C     0.90647   0.28864   0.81462   0.00000  Uiso   1.00
C629   C     0.59259   0.21102   0.81516   0.00000  Uiso   1.00
C630   C     0.61607   0.24991   0.83348   0.00000  Uiso   1.00
C631   C     0.88393   0.24991   0.83319   0.00000  Uiso   1.00
C632   C     0.52404   0.24983   0.83341   0.00000  Uiso   1.00
C633   C     0.97596   0.24983   0.83326   0.00000  Uiso   1.00
C634   C     0.70411   0.12537   0.75246   0.00000  Uiso   1.00
C635   C     0.72835   0.10149   0.79535   0.00000  Uiso   1.00
C636   C     0.82069   0.37472   0.88724   0.00000  Uiso   1.00
C637   C     0.79589   0.12537   0.91421   0.00000  Uiso   1.00
C638   C     0.67931   0.37472   0.77943   0.00000  Uiso   1.00
C639   C     0.78313   0.39853   0.85882   0.00000  Uiso   1.00
C640   C     0.77165   0.10149   0.87131   0.00000  Uiso   1.00
C641   C     0.71687   0.39853   0.80785   0.00000  Uiso   1.00
C642   C     0.72898   0.05220   0.79468   0.00000  Uiso   1.00
C643   C     0.78374   0.44782   0.85813   0.00000  Uiso   1.00
C644   C     0.77102   0.05220   0.87199   0.00000  Uiso   1.00
H645   H     0.53017   0.31838   0.86706   0.00000  Uiso   1.00
H646   H     0.81138   0.46589   0.87651   0.00000  Uiso   1.00
H647   H     0.78654   0.03414   0.90357   0.00000  Uiso   1.00
H648   H     0.68862   0.46589   0.79016   0.00000  Uiso   1.00
H649   H     0.68425   0.15505   0.76560   0.00000  Uiso   1.00
H650   H     0.72834   0.13656   0.72428   0.00000  Uiso   1.00
H651   H     0.68011   0.10141   0.73307   0.00000  Uiso   1.00
H652   H     0.80874   0.34487   0.90905   0.00000  Uiso   1.00
H653   H     0.84655   0.36390   0.86090   0.00000  Uiso   1.00
H654   H     0.83707   0.39868   0.91487   0.00000  Uiso   1.00
H655   H     0.81575   0.15505   0.90107   0.00000  Uiso   1.00
H656   H     0.97152   0.18118   0.86668   0.00000  Uiso   1.00
H657   H     0.77166   0.13656   0.94239   0.00000  Uiso   1.00
H658   H     0.81989   0.10141   0.93360   0.00000  Uiso   1.00
H659   H     0.69126   0.34487   0.75762   0.00000  Uiso   1.00
H660   H     0.65345   0.36390   0.80577   0.00000  Uiso   1.00
H661   H     0.66293   0.39868   0.75180   0.00000  Uiso   1.00
H662   H     0.96983   0.31838   0.79960   0.00000  Uiso   1.00
H663   H     0.52848   0.18118   0.80000   0.00000  Uiso   1.00
H664   H     0.61143   0.31854   0.86716   0.00000  Uiso   1.00
H665   H     0.89028   0.18097   0.86621   0.00000  Uiso   1.00
H666   H     0.88857   0.31853   0.79950   0.00000  Uiso   1.00
H667   H     0.60972   0.18097   0.80047   0.00000  Uiso   1.00
H668   H     0.71346   0.03414   0.76310   0.00000  Uiso   1.00
N669   N     0.75000   0.12623   0.83333   0.00000  Uiso   1.00
N670   N     0.75000   0.37376   0.83333   0.00000  Uiso   1.00
O671   O     0.68453   0.28974   0.83334   0.00000  Uiso   1.00
O672   O     0.81547   0.21026   0.83333   0.00000  Uiso   1.00
O673   O     0.81547   0.28974   0.83333   0.00000  Uiso   1.00
O674   O     0.68453   0.21026   0.83334   0.00000  Uiso   1.00
O675   O     0.75000   0.28973   0.76178   0.00000  Uiso   1.00
O676   O     0.75000   0.21027   0.90489   0.00000  Uiso   1.00
O677   O     0.75000   0.28973   0.90489   0.00000  Uiso   1.00
O678   O     0.75000   0.21027   0.76178   0.00000  Uiso   1.00
Zn679  Zn    0.75000   0.30307   0.83333   0.00000  Uiso   1.00
Zn680  Zn    0.75000   0.19693   0.83333   0.00000  Uiso   1.00
C681   C     0.16402   0.74999   0.83333   0.00000  Uiso   1.00
C682   C     0.21626   0.94782   0.80854   0.00000  Uiso   1.00
C683   C     0.24988   0.75000   0.73966   0.00000  Uiso   1.00
C684   C     0.25012   0.75000   0.92701   0.00000  Uiso   1.00
C685   C     0.25000   0.52650   0.83333   0.00000  Uiso   1.00
C686   C     0.25000   0.97352   0.83333   0.00000  Uiso   1.00
C687   C     0.24995   0.74998   0.68849   0.00000  Uiso   1.00
C688   C     0.25005   0.74998   0.97817   0.00000  Uiso   1.00
C689   C     0.04748   0.78857   0.85206   0.00000  Uiso   1.00
C690   C     0.45346   0.71106   0.85171   0.00000  Uiso   1.00
C691   C     0.45252   0.78857   0.81460   0.00000  Uiso   1.00
C692   C     0.33598   0.74999   0.83333   0.00000  Uiso   1.00
C693   C     0.04654   0.71106   0.81496   0.00000  Uiso   1.00
C694   C     0.09353   0.78864   0.85204   0.00000  Uiso   1.00
C695   C     0.40741   0.71102   0.85152   0.00000  Uiso   1.00
C696   C     0.40647   0.78864   0.81462   0.00000  Uiso   1.00
C697   C     0.09259   0.71102   0.81516   0.00000  Uiso   1.00
C698   C     0.11607   0.74991   0.83348   0.00000  Uiso   1.00
C699   C     0.38393   0.74991   0.83319   0.00000  Uiso   1.00
C700   C     0.02404   0.74983   0.83341   0.00000  Uiso   1.00
C701   C     0.47596   0.74983   0.83326   0.00000  Uiso   1.00
C702   C     0.20411   0.62537   0.75246   0.00000  Uiso   1.00
C703   C     0.22835   0.60149   0.79535   0.00000  Uiso   1.00
C704   C     0.32069   0.87472   0.88724   0.00000  Uiso   1.00
C705   C     0.29589   0.62537   0.91421   0.00000  Uiso   1.00
C706   C     0.17931   0.87472   0.77943   0.00000  Uiso   1.00
C707   C     0.28313   0.89853   0.85882   0.00000  Uiso   1.00
C708   C     0.27165   0.60149   0.87131   0.00000  Uiso   1.00
C709   C     0.21687   0.89853   0.80785   0.00000  Uiso   1.00
C710   C     0.22898   0.55220   0.79468   0.00000  Uiso   1.00
C711   C     0.28374   0.94782   0.85813   0.00000  Uiso   1.00
C712   C     0.27102   0.55220   0.87199   0.00000  Uiso   1.00
H713   H     0.03017   0.81838   0.86706   0.00000  Uiso   1.00
H714   H     0.31138   0.96589   0.87651   0.00000  Uiso   1.00
H715   H     0.28654   0.53414   0.90357   0.00000  Uiso   1.00
H716   H     0.18862   0.96589   0.79016   0.00000  Uiso   1.00
H717   H     0.18425   0.65505   0.76560   0.00000  Uiso   1.00
H718   H     0.22834   0.63656   0.72428   0.00000  Uiso   1.00
H719   H     0.18011   0.60141   0.73307   0.00000  Uiso   1.00
H720   H     0.30874   0.84487   0.90905   0.00000  Uiso   1.00
H721   H     0.34655   0.86390   0.86090   0.00000  Uiso   1.00
H722   H     0.33707   0.89868   0.91487   0.00000  Uiso   1.00
H723   H     0.31575   0.65505   0.90107   0.00000  Uiso   1.00
H724   H     0.47152   0.68118   0.86668   0.00000  Uiso   1.00
H725   H     0.27166   0.63656   0.94239   0.00000  Uiso   1.00
H726   H     0.31989   0.60141   0.93360   0.00000  Uiso   1.00
H727   H     0.19126   0.84487   0.75762   0.00000  Uiso   1.00
H728   H     0.15345   0.86390   0.80577   0.00000  Uiso   1.00
H729   H     0.16293   0.89868   0.75180   0.00000  Uiso   1.00
H730   H     0.46983   0.81838   0.79960   0.00000  Uiso   1.00
H731   H     0.02848   0.68118   0.80000   0.00000  Uiso   1.00
H732   H     0.11143   0.81854   0.86716   0.00000  Uiso   1.00
H733   H     0.39028   0.68097   0.86621   0.00000  Uiso   1.00
H734   H     0.38857   0.81853   0.79950   0.00000  Uiso   1.00
H735   H     0.10972   0.68097   0.80047   0.00000  Uiso   1.00
H736   H     0.21346   0.53414   0.76310   0.00000  Uiso   1.00
N737   N     0.25000   0.62623   0.83333   0.00000  Uiso   1.00
N738   N     0.25000   0.87376   0.83333   0.00000  Uiso   1.00
O739   O     0.18453   0.78974   0.83334   0.00000  Uiso   1.00
O740   O     0.31547   0.71026   0.83333   0.00000  Uiso   1.00
O741   O     0.31547   0.78974   0.83333   0.00000  Uiso   1.00
O742   O     0.18453   0.71026   0.83334   0.00000  Uiso   1.00
O743   O     0.25000   0.78973   0.76178   0.00000  Uiso   1.00
O744   O     0.25000   0.71027   0.90489   0.00000  Uiso   1.00
O745   O     0.25000   0.78973   0.90489   0.00000  Uiso   1.00
O746   O     0.25000   0.71027   0.76178   0.00000  Uiso   1.00
Zn747  Zn    0.25000   0.80307   0.83333   0.00000  Uiso   1.00
Zn748  Zn    0.25000   0.69693   0.83333   0.00000  Uiso   1.00
C749   C     0.66402   0.74999   0.83333   0.00000  Uiso   1.00
C750   C     0.71626   0.94782   0.80854   0.00000  Uiso   1.00
C751   C     0.74988   0.75000   0.73966   0.00000  Uiso   1.00
C752   C     0.75012   0.75000   0.92701   0.00000  Uiso   1.00
C753   C     0.75000   0.52650   0.83333   0.00000  Uiso   1.00
C754   C     0.75000   0.97352   0.83333   0.00000  Uiso   1.00
C755   C     0.74995   0.74998   0.68849   0.00000  Uiso   1.00
C756   C     0.75005   0.74998   0.97817   0.00000  Uiso   1.00
C757   C     0.54748   0.78857   0.85206   0.00000  Uiso   1.00
C758   C     0.95346   0.71106   0.85171   0.00000  Uiso   1.00
C759   C     0.95252   0.78857   0.81460   0.00000  Uiso   1.00
C760   C     0.83598   0.74999   0.83333   0.00000  Uiso   1.00
C761   C     0.54654   0.71106   0.81496   0.00000  Uiso   1.00
C762   C     0.59353   0.78864   0.85204   0.00000  Uiso   1.00
C763   C     0.90741   0.71102   0.85152   0.00000  Uiso   1.00
C764   C     0.90647   0.78864   0.81462   0.00000  Uiso   1.00
C765   C     0.59259   0.71102   0.81516   0.00000  Uiso   1.00
C766   C     0.61607   0.74991   0.83348   0.00000  Uiso   1.00
C767   C     0.88393   0.74991   0.83319   0.00000  Uiso   1.00
C768   C     0.52404   0.74983   0.83341   0.00000  Uiso   1.00
C769   C     0.97596   0.74983   0.83326   0.00000  Uiso   1.00
C770   C     0.70411   0.62537   0.75246   0.00000  Uiso   1.00
C771   C     0.72835   0.60149   0.79535   0.00000  Uiso   1.00
C772   C     0.82069   0.87472   0.88724   0.00000  Uiso   1.00
C773   C     0.79589   0.62537   0.91421   0.00000  Uiso   1.00
C774   C     0.67931   0.87472   0.77943   0.00000  Uiso   1.00
C775   C     0.78313   0.89853   0.85882   0.00000  Uiso   1.00
C776   C     0.77165   0.60149   0.87131   0.00000  Uiso   1.00
C777   C     0.71687   0.89853   0.80785   0.00000  Uiso   1.00
C778   C     0.72898   0.55220   0.79468   0.00000  Uiso   1.00
C779   C     0.78374   0.94782   0.85813   0.00000  Uiso   1.00
C780   C     0.77102   0.55220   0.87199   0.00000  Uiso   1.00
H781   H     0.53017   0.81838   0.86706   0.00000  Uiso   1.00
H782   H     0.81138   0.96589   0.87651   0.00000  Uiso   1.00
H783   H     0.78654   0.53414   0.90357   0.00000  Uiso   1.00
H784   H     0.68862   0.96589   0.79016   0.00000  Uiso   1.00
H785   H     0.68425   0.65505   0.76560   0.00000  Uiso   1.00
H786   H     0.72834   0.63656   0.72428   0.00000  Uiso   1.00
H787   H     0.68011   0.60141   0.73307   0.00000  Uiso   1.00
H788   H     0.80874   0.84487   0.90905   0.00000  Uiso   1.00
H789   H     0.84655   0.86390   0.86090   0.00000  Uiso   1.00
H790   H     0.83707   0.89868   0.91487   0.00000  Uiso   1.00
H791   H     0.81575   0.65505   0.90107   0.00000  Uiso   1.00
H792   H     0.97152   0.68118   0.86668   0.00000  Uiso   1.00
H793   H     0.77166   0.63656   0.94239   0.00000  Uiso   1.00
H794   H     0.81989   0.60141   0.93360   0.00000  Uiso   1.00
H795   H     0.69126   0.84487   0.75762   0.00000  Uiso   1.00
H796   H     0.65345   0.86390   0.80577   0.00000  Uiso   1.00
H797   H     0.66293   0.89868   0.75180   0.00000  Uiso   1.00
H798   H     0.96983   0.81838   0.79960   0.00000  Uiso   1.00
H799   H     0.52848   0.68118   0.80000   0.00000  Uiso   1.00
H800   H     0.61143   0.81854   0.86716   0.00000  Uiso   1.00
H801   H     0.89028   0.68097   0.86621   0.00000  Uiso   1.00
H802   H     0.88857   0.81853   0.79950   0.00000  Uiso   1.00
H803   H     0.60972   0.68097   0.80047   0.00000  Uiso   1.00
H804   H     0.71346   0.53414   0.76310   0.00000  Uiso   1.00
N805   N     0.75000   0.62623   0.83333   0.00000  Uiso   1.00
N806   N     0.75000   0.87376   0.83333   0.00000  Uiso   1.00
O807   O     0.68453   0.78974   0.83334   0.00000  Uiso   1.00
O808   O     0.81547   0.71026   0.83333   0.00000  Uiso   1.00
O809   O     0.81547   0.78974   0.83333   0.00000  Uiso   1.00
O810   O     0.68453   0.71026   0.83334   0.00000  Uiso   1.00
O811   O     0.75000   0.78973   0.76178   0.00000  Uiso   1.00
O812   O     0.75000   0.71027   0.90489   0.00000  Uiso   1.00
O813   O     0.75000   0.78973   0.90489   0.00000  Uiso   1.00
O814   O     0.75000   0.71027   0.76178   0.00000  Uiso   1.00
Zn815  Zn    0.75000   0.80307   0.83333   0.00000  Uiso   1.00
Zn816  Zn    0.75000   0.69693   0.83333   0.00000  Uiso   1.00
loop_
_geom_bond_atom_site_label_1
_geom_bond_atom_site_label_2
_geom_bond_distance
_geom_bond_site_symmetry_2
_ccdc_geom_bond_type
C1     O62     1.295   .     A
C1     C18     1.438   .     S
C1     O59     1.296   .     A
C2     C6      1.401   .     A
C2     C29     1.414   .     A
C2     H36     1.082   .     S
C3     O63     1.284   .     A
C3     C7      1.365   .     S
C3     O66     1.283   .     A
C4     O64     1.283   .     A
C4     C8      1.365   .     S
C4     O65     1.284   .     A
C5     C32     1.401   .     A
C5     C30     1.401   .     A
C5     C142    1.520   1_545 S
C6     C31     1.401   .     A
C6     C141    1.520   .     S
C7     C552    1.165   1_554 S
C8     C279    1.165   .     S
C9     C14     1.381   .     A
C9     C20     1.398   .     A
C9     H33     1.084   .     S
C10    C15     1.380   .     A
C10    C21     1.398   .     A
C10    H44     1.084   .     S
C11    C16     1.381   .     A
C11    H50     1.084   .     S
C11    C21     1.398   .     A
C12    O61     1.296   .     A
C12    C19     1.438   .     S
C12    O60     1.295   .     A
C13    C17     1.380   .     A
C13    C20     1.398   .     A
C13    H51     1.084   .     S
C14    C18     1.399   .     A
C14    H52     1.083   .     S
C15    C19     1.399   .     A
C15    H53     1.083   .     S
C16    C19     1.399   .     A
C16    H54     1.083   .     S
C17    C18     1.399   .     A
C17    H55     1.083   .     S
C20    C89     1.442   1_455 S
C21    C88     1.442   .     S
C22    H39     1.111   .     S
C22    H37     1.103   .     S
C22    C23     1.502   .     S
C22    H38     1.109   .     S
C23    C30     1.414   .     A
C23    N57     1.383   .     A
C24    H41     1.107   .     S
C24    H42     1.111   .     S
C24    C27     1.502   .     S
C24    H40     1.102   .     S
C25    H43     1.103   .     S
C25    C28     1.502   .     S
C25    H45     1.109   .     S
C25    H46     1.111   .     S
C26    H48     1.107   .     S
C26    H47     1.102   .     S
C26    C29     1.502   .     S
C26    H49     1.111   .     S
C27    C31     1.414   .     A
C27    N58     1.383   .     A
C28    N57     1.383   .     A
C28    C32     1.414   .     A
C29    N58     1.383   .     A
C30    H56     1.082   .     S
C31    H34     1.082   .     S
C32    H35     1.082   .     S
N57    Zn68    2.028   .     S
N58    Zn67    2.028   .     S
O59    Zn67    2.000   .     S
O60    Zn68    2.000   .     S
O61    Zn67    2.000   .     S
O62    Zn68    2.000   .     S
O63    Zn67    1.947   .     S
O64    Zn68    1.947   .     S
O65    Zn67    1.947   .     S
O66    Zn68    1.947   .     S
C69    O130    1.295   .     A
C69    C86     1.438   .     S
C69    O127    1.296   .     A
C70    C74     1.401   .     A
C70    C97     1.414   .     A
C70    H104    1.082   .     S
C71    O131    1.284   .     A
C71    C75     1.365   .     S
C71    O134    1.283   .     A
C72    O132    1.283   .     A
C72    C76     1.365   .     S
C72    O133    1.284   .     A
C73    C100    1.401   .     A
C73    C98     1.401   .     A
C73    C210    1.520   1_545 S
C74    C99     1.401   .     A
C74    C209    1.520   .     S
C75    C620    1.165   1_554 S
C76    C347    1.165   .     S
C77    C82     1.381   .     A
C77    C88     1.398   .     A
C77    H101    1.084   .     S
C78    C83     1.380   .     A
C78    C89     1.398   .     A
C78    H112    1.084   .     S
C79    C84     1.381   .     A
C79    H118    1.084   .     S
C79    C89     1.398   .     A
C80    O129    1.296   .     A
C80    C87     1.438   .     S
C80    O128    1.295   .     A
C81    C85     1.380   .     A
C81    C88     1.398   .     A
C81    H119    1.084   .     S
C82    C86     1.399   .     A
C82    H120    1.083   .     S
C83    C87     1.399   .     A
C83    H121    1.083   .     S
C84    C87     1.399   .     A
C84    H122    1.083   .     S
C85    C86     1.399   .     A
C85    H123    1.083   .     S
C89    C20     1.442   1_655 S
C90    H107    1.111   .     S
C90    H105    1.103   .     S
C90    C91     1.502   .     S
C90    H106    1.109   .     S
C91    C98     1.414   .     A
C91    N125    1.383   .     A
C92    H109    1.107   .     S
C92    H110    1.111   .     S
C92    C95     1.502   .     S
C92    H108    1.102   .     S
C93    H111    1.103   .     S
C93    C96     1.502   .     S
C93    H113    1.109   .     S
C93    H114    1.111   .     S
C94    H116    1.107   .     S
C94    H115    1.102   .     S
C94    C97     1.502   .     S
C94    H117    1.111   .     S
C95    C99     1.414   .     A
C95    N126    1.383   .     A
C96    N125    1.383   .     A
C96    C100    1.414   .     A
C97    N126    1.383   .     A
C98    H124    1.082   .     S
C99    H102    1.082   .     S
C100   H103    1.082   .     S
N125   Zn136   2.028   .     S
N126   Zn135   2.028   .     S
O127   Zn135   2.000   .     S
O128   Zn136   2.000   .     S
O129   Zn135   2.000   .     S
O130   Zn136   2.000   .     S
O131   Zn135   1.947   .     S
O132   Zn136   1.947   .     S
O133   Zn135   1.947   .     S
O134   Zn136   1.947   .     S
C137   O198    1.295   .     A
C137   C154    1.438   .     S
C137   O195    1.296   .     A
C138   C142    1.401   .     A
C138   C165    1.414   .     A
C138   H172    1.082   .     S
C139   O199    1.284   .     A
C139   C143    1.365   .     S
C139   O202    1.283   .     A
C140   O200    1.283   .     A
C140   C144    1.365   .     S
C140   O201    1.284   .     A
C141   C168    1.401   .     A
C141   C166    1.401   .     A
C142   C167    1.401   .     A
C142   C5      1.520   1_565 S
C143   C688    1.165   1_554 S
C144   C415    1.165   .     S
C145   C150    1.381   .     A
C145   C156    1.398   .     A
C145   H169    1.084   .     S
C146   C151    1.380   .     A
C146   C157    1.398   .     A
C146   H180    1.084   .     S
C147   C152    1.381   .     A
C147   H186    1.084   .     S
C147   C157    1.398   .     A
C148   O197    1.296   .     A
C148   C155    1.438   .     S
C148   O196    1.295   .     A
C149   C153    1.380   .     A
C149   C156    1.398   .     A
C149   H187    1.084   .     S
C150   C154    1.399   .     A
C150   H188    1.083   .     S
C151   C155    1.399   .     A
C151   H189    1.083   .     S
C152   C155    1.399   .     A
C152   H190    1.083   .     S
C153   C154    1.399   .     A
C153   H191    1.083   .     S
C156   C225    1.442   1_455 S
C157   C224    1.442   .     S
C158   H175    1.111   .     S
C158   H173    1.103   .     S
C158   C159    1.502   .     S
C158   H174    1.109   .     S
C159   C166    1.414   .     A
C159   N193    1.383   .     A
C160   H177    1.107   .     S
C160   H178    1.111   .     S
C160   C163    1.502   .     S
C160   H176    1.102   .     S
C161   H179    1.103   .     S
C161   C164    1.502   .     S
C161   H181    1.109   .     S
C161   H182    1.111   .     S
C162   H184    1.107   .     S
C162   H183    1.102   .     S
C162   C165    1.502   .     S
C162   H185    1.111   .     S
C163   C167    1.414   .     A
C163   N194    1.383   .     A
C164   N193    1.383   .     A
C164   C168    1.414   .     A
C165   N194    1.383   .     A
C166   H192    1.082   .     S
C167   H170    1.082   .     S
C168   H171    1.082   .     S
N193   Zn204   2.028   .     S
N194   Zn203   2.028   .     S
O195   Zn203   2.000   .     S
O196   Zn204   2.000   .     S
O197   Zn203   2.000   .     S
O198   Zn204   2.000   .     S
O199   Zn203   1.947   .     S
O200   Zn204   1.947   .     S
O201   Zn203   1.947   .     S
O202   Zn204   1.947   .     S
C205   O266    1.295   .     A
C205   C222    1.438   .     S
C205   O263    1.296   .     A
C206   C210    1.401   .     A
C206   C233    1.414   .     A
C206   H240    1.082   .     S
C207   O267    1.284   .     A
C207   C211    1.365   .     S
C207   O270    1.283   .     A
C208   O268    1.283   .     A
C208   C212    1.365   .     S
C208   O269    1.284   .     A
C209   C236    1.401   .     A
C209   C234    1.401   .     A
C210   C235    1.401   .     A
C210   C73     1.520   1_565 S
C211   C756    1.165   1_554 S
C212   C483    1.165   .     S
C213   C218    1.381   .     A
C213   C224    1.398   .     A
C213   H237    1.084   .     S
C214   C219    1.380   .     A
C214   C225    1.398   .     A
C214   H248    1.084   .     S
C215   C220    1.381   .     A
C215   H254    1.084   .     S
C215   C225    1.398   .     A
C216   O265    1.296   .     A
C216   C223    1.438   .     S
C216   O264    1.295   .     A
C217   C221    1.380   .     A
C217   C224    1.398   .     A
C217   H255    1.084   .     S
C218   C222    1.399   .     A
C218   H256    1.083   .     S
C219   C223    1.399   .     A
C219   H257    1.083   .     S
C220   C223    1.399   .     A
C220   H258    1.083   .     S
C221   C222    1.399   .     A
C221   H259    1.083   .     S
C225   C156    1.442   1_655 S
C226   H243    1.111   .     S
C226   H241    1.103   .     S
C226   C227    1.502   .     S
C226   H242    1.109   .     S
C227   C234    1.414   .     A
C227   N261    1.383   .     A
C228   H245    1.107   .     S
C228   H246    1.111   .     S
C228   C231    1.502   .     S
C228   H244    1.102   .     S
C229   H247    1.103   .     S
C229   C232    1.502   .     S
C229   H249    1.109   .     S
C229   H250    1.111   .     S
C230   H252    1.107   .     S
C230   H251    1.102   .     S
C230   C233    1.502   .     S
C230   H253    1.111   .     S
C231   C235    1.414   .     A
C231   N262    1.383   .     A
C232   N261    1.383   .     A
C232   C236    1.414   .     A
C233   N262    1.383   .     A
C234   H260    1.082   .     S
C235   H238    1.082   .     S
C236   H239    1.082   .     S
N261   Zn272   2.028   .     S
N262   Zn271   2.028   .     S
O263   Zn271   2.000   .     S
O264   Zn272   2.000   .     S
O265   Zn271   2.000   .     S
O266   Zn272   2.000   .     S
O267   Zn271   1.947   .     S
O268   Zn272   1.947   .     S
O269   Zn271   1.947   .     S
O270   Zn272   1.947   .     S
C273   O334    1.295   .     A
C273   C290    1.438   .     S
C273   O331    1.296   .     A
C274   C278    1.401   .     A
C274   C301    1.414   .     A
C274   H308    1.082   .     S
C275   O335    1.284   .     A
C275   C279    1.365   .     S
C275   O338    1.283   .     A
C276   O336    1.283   .     A
C276   C280    1.365   .     S
C276   O337    1.284   .     A
C277   C304    1.401   .     A
C277   C302    1.401   .     A
C277   C414    1.520   1_545 S
C278   C303    1.401   .     A
C278   C413    1.520   .     S
C280   C551    1.165   .     S
C281   C286    1.381   .     A
C281   C292    1.398   .     A
C281   H305    1.084   .     S
C282   C287    1.380   .     A
C282   C293    1.398   .     A
C282   H316    1.084   .     S
C283   C288    1.381   .     A
C283   H322    1.084   .     S
C283   C293    1.398   .     A
C284   O333    1.296   .     A
C284   C291    1.438   .     S
C284   O332    1.295   .     A
C285   C289    1.380   .     A
C285   C292    1.398   .     A
C285   H323    1.084   .     S
C286   C290    1.399   .     A
C286   H324    1.083   .     S
C287   C291    1.399   .     A
C287   H325    1.083   .     S
C288   C291    1.399   .     A
C288   H326    1.083   .     S
C289   C290    1.399   .     A
C289   H327    1.083   .     S
C292   C361    1.442   1_455 S
C293   C360    1.442   .     S
C294   H311    1.111   .     S
C294   H309    1.103   .     S
C294   C295    1.502   .     S
C294   H310    1.109   .     S
C295   C302    1.414   .     A
C295   N329    1.383   .     A
C296   H313    1.107   .     S
C296   H314    1.111   .     S
C296   C299    1.502   .     S
C296   H312    1.102   .     S
C297   H315    1.103   .     S
C297   C300    1.502   .     S
C297   H317    1.109   .     S
C297   H318    1.111   .     S
C298   H320    1.107   .     S
C298   H319    1.102   .     S
C298   C301    1.502   .     S
C298   H321    1.111   .     S
C299   C303    1.414   .     A
C299   N330    1.383   .     A
C300   N329    1.383   .     A
C300   C304    1.414   .     A
C301   N330    1.383   .     A
C302   H328    1.082   .     S
C303   H306    1.082   .     S
C304   H307    1.082   .     S
N329   Zn340   2.028   .     S
N330   Zn339   2.028   .     S
O331   Zn339   2.000   .     S
O332   Zn340   2.000   .     S
O333   Zn339   2.000   .     S
O334   Zn340   2.000   .     S
O335   Zn339   1.947   .     S
O336   Zn340   1.947   .     S
O337   Zn339   1.947   .     S
O338   Zn340   1.947   .     S
C341   O402    1.295   .     A
C341   C358    1.438   .     S
C341   O399    1.296   .     A
C342   C346    1.401   .     A
C342   C369    1.414   .     A
C342   H376    1.082   .     S
C343   O403    1.284   .     A
C343   C347    1.365   .     S
C343   O406    1.283   .     A
C344   O404    1.283   .     A
C344   C348    1.365   .     S
C344   O405    1.284   .     A
C345   C372    1.401   .     A
C345   C370    1.401   .     A
C345   C482    1.520   1_545 S
C346   C371    1.401   .     A
C346   C481    1.520   .     S
C348   C619    1.165   .     S
C349   C354    1.381   .     A
C349   C360    1.398   .     A
C349   H373    1.084   .     S
C350   C355    1.380   .     A
C350   C361    1.398   .     A
C350   H384    1.084   .     S
C351   C356    1.381   .     A
C351   H390    1.084   .     S
C351   C361    1.398   .     A
C352   O401    1.296   .     A
C352   C359    1.438   .     S
C352   O400    1.295   .     A
C353   C357    1.380   .     A
C353   C360    1.398   .     A
C353   H391    1.084   .     S
C354   C358    1.399   .     A
C354   H392    1.083   .     S
C355   C359    1.399   .     A
C355   H393    1.083   .     S
C356   C359    1.399   .     A
C356   H394    1.083   .     S
C357   C358    1.399   .     A
C357   H395    1.083   .     S
C361   C292    1.442   1_655 S
C362   H379    1.111   .     S
C362   H377    1.103   .     S
C362   C363    1.502   .     S
C362   H378    1.109   .     S
C363   C370    1.414   .     A
C363   N397    1.383   .     A
C364   H381    1.107   .     S
C364   H382    1.111   .     S
C364   C367    1.502   .     S
C364   H380    1.102   .     S
C365   H383    1.103   .     S
C365   C368    1.502   .     S
C365   H385    1.109   .     S
C365   H386    1.111   .     S
C366   H388    1.107   .     S
C366   H387    1.102   .     S
C366   C369    1.502   .     S
C366   H389    1.111   .     S
C367   C371    1.414   .     A
C367   N398    1.383   .     A
C368   N397    1.383   .     A
C368   C372    1.414   .     A
C369   N398    1.383   .     A
C370   H396    1.082   .     S
C371   H374    1.082   .     S
C372   H375    1.082   .     S
N397   Zn408   2.028   .     S
N398   Zn407   2.028   .     S
O399   Zn407   2.000   .     S
O400   Zn408   2.000   .     S
O401   Zn407   2.000   .     S
O402   Zn408   2.000   .     S
O403   Zn407   1.947   .     S
O404   Zn408   1.947   .     S
O405   Zn407   1.947   .     S
O406   Zn408   1.947   .     S
C409   O470    1.295   .     A
C409   C426    1.438   .     S
C409   O467    1.296   .     A
C410   C414    1.401   .     A
C410   C437    1.414   .     A
C410   H444    1.082   .     S
C411   O471    1.284   .     A
C411   C415    1.365   .     S
C411   O474    1.283   .     A
C412   O472    1.283   .     A
C412   C416    1.365   .     S
C412   O473    1.284   .     A
C413   C440    1.401   .     A
C413   C438    1.401   .     A
C414   C439    1.401   .     A
C414   C277    1.520   1_565 S
C416   C687    1.165   .     S
C417   C422    1.381   .     A
C417   C428    1.398   .     A
C417   H441    1.084   .     S
C418   C423    1.380   .     A
C418   C429    1.398   .     A
C418   H452    1.084   .     S
C419   C424    1.381   .     A
C419   H458    1.084   .     S
C419   C429    1.398   .     A
C420   O469    1.296   .     A
C420   C427    1.438   .     S
C420   O468    1.295   .     A
C421   C425    1.380   .     A
C421   C428    1.398   .     A
C421   H459    1.084   .     S
C422   C426    1.399   .     A
C422   H460    1.083   .     S
C423   C427    1.399   .     A
C423   H461    1.083   .     S
C424   C427    1.399   .     A
C424   H462    1.083   .     S
C425   C426    1.399   .     A
C425   H463    1.083   .     S
C428   C497    1.442   1_455 S
C429   C496    1.442   .     S
C430   H447    1.111   .     S
C430   H445    1.103   .     S
C430   C431    1.502   .     S
C430   H446    1.109   .     S
C431   C438    1.414   .     A
C431   N465    1.383   .     A
C432   H449    1.107   .     S
C432   H450    1.111   .     S
C432   C435    1.502   .     S
C432   H448    1.102   .     S
C433   H451    1.103   .     S
C433   C436    1.502   .     S
C433   H453    1.109   .     S
C433   H454    1.111   .     S
C434   H456    1.107   .     S
C434   H455    1.102   .     S
C434   C437    1.502   .     S
C434   H457    1.111   .     S
C435   C439    1.414   .     A
C435   N466    1.383   .     A
C436   N465    1.383   .     A
C436   C440    1.414   .     A
C437   N466    1.383   .     A
C438   H464    1.082   .     S
C439   H442    1.082   .     S
C440   H443    1.082   .     S
N465   Zn476   2.028   .     S
N466   Zn475   2.028   .     S
O467   Zn475   2.000   .     S
O468   Zn476   2.000   .     S
O469   Zn475   2.000   .     S
O470   Zn476   2.000   .     S
O471   Zn475   1.947   .     S
O472   Zn476   1.947   .     S
O473   Zn475   1.947   .     S
O474   Zn476   1.947   .     S
C477   O538    1.295   .     A
C477   C494    1.438   .     S
C477   O535    1.296   .     A
C478   C482    1.401   .     A
C478   C505    1.414   .     A
C478   H512    1.082   .     S
C479   O539    1.284   .     A
C479   C483    1.365   .     S
C479   O542    1.283   .     A
C480   O540    1.283   .     A
C480   C484    1.365   .     S
C480   O541    1.284   .     A
C481   C508    1.401   .     A
C481   C506    1.401   .     A
C482   C507    1.401   .     A
C482   C345    1.520   1_565 S
C484   C755    1.165   .     S
C485   C490    1.381   .     A
C485   C496    1.398   .     A
C485   H509    1.084   .     S
C486   C491    1.380   .     A
C486   C497    1.398   .     A
C486   H520    1.084   .     S
C487   C492    1.381   .     A
C487   H526    1.084   .     S
C487   C497    1.398   .     A
C488   O537    1.296   .     A
C488   C495    1.438   .     S
C488   O536    1.295   .     A
C489   C493    1.380   .     A
C489   C496    1.398   .     A
C489   H527    1.084   .     S
C490   C494    1.399   .     A
C490   H528    1.083   .     S
C491   C495    1.399   .     A
C491   H529    1.083   .     S
C492   C495    1.399   .     A
C492   H530    1.083   .     S
C493   C494    1.399   .     A
C493   H531    1.083   .     S
C497   C428    1.442   1_655 S
C498   H515    1.111   .     S
C498   H513    1.103   .     S
C498   C499    1.502   .     S
C498   H514    1.109   .     S
C499   C506    1.414   .     A
C499   N533    1.383   .     A
C500   H517    1.107   .     S
C500   H518    1.111   .     S
C500   C503    1.502   .     S
C500   H516    1.102   .     S
C501   H519    1.103   .     S
C501   C504    1.502   .     S
C501   H521    1.109   .     S
C501   H522    1.111   .     S
C502   H524    1.107   .     S
C502   H523    1.102   .     S
C502   C505    1.502   .     S
C502   H525    1.111   .     S
C503   C507    1.414   .     A
C503   N534    1.383   .     A
C504   N533    1.383   .     A
C504   C508    1.414   .     A
C505   N534    1.383   .     A
C506   H532    1.082   .     S
C507   H510    1.082   .     S
C508   H511    1.082   .     S
N533   Zn544   2.028   .     S
N534   Zn543   2.028   .     S
O535   Zn543   2.000   .     S
O536   Zn544   2.000   .     S
O537   Zn543   2.000   .     S
O538   Zn544   2.000   .     S
O539   Zn543   1.947   .     S
O540   Zn544   1.947   .     S
O541   Zn543   1.947   .     S
O542   Zn544   1.947   .     S
C545   O606    1.295   .     A
C545   C562    1.438   .     S
C545   O603    1.296   .     A
C546   C550    1.401   .     A
C546   C573    1.414   .     A
C546   H580    1.082   .     S
C547   O607    1.284   .     A
C547   C551    1.365   .     S
C547   O610    1.283   .     A
C548   O608    1.283   .     A
C548   C552    1.365   .     S
C548   O609    1.284   .     A
C549   C576    1.401   .     A
C549   C574    1.401   .     A
C549   C686    1.520   1_545 S
C550   C575    1.401   .     A
C550   C685    1.520   .     S
C552   C7      1.165   1_556 S
C553   C558    1.381   .     A
C553   C564    1.398   .     A
C553   H577    1.084   .     S
C554   C559    1.380   .     A
C554   C565    1.398   .     A
C554   H588    1.084   .     S
C555   C560    1.381   .     A
C555   H594    1.084   .     S
C555   C565    1.398   .     A
C556   O605    1.296   .     A
C556   C563    1.438   .     S
C556   O604    1.295   .     A
C557   C561    1.380   .     A
C557   C564    1.398   .     A
C557   H595    1.084   .     S
C558   C562    1.399   .     A
C558   H596    1.083   .     S
C559   C563    1.399   .     A
C559   H597    1.083   .     S
C560   C563    1.399   .     A
C560   H598    1.083   .     S
C561   C562    1.399   .     A
C561   H599    1.083   .     S
C564   C633    1.442   1_455 S
C565   C632    1.442   .     S
C566   H583    1.111   .     S
C566   H581    1.103   .     S
C566   C567    1.502   .     S
C566   H582    1.109   .     S
C567   C574    1.414   .     A
C567   N601    1.383   .     A
C568   H585    1.107   .     S
C568   H586    1.111   .     S
C568   C571    1.502   .     S
C568   H584    1.102   .     S
C569   H587    1.103   .     S
C569   C572    1.502   .     S
C569   H589    1.109   .     S
C569   H590    1.111   .     S
C570   H592    1.107   .     S
C570   H591    1.102   .     S
C570   C573    1.502   .     S
C570   H593    1.111   .     S
C571   C575    1.414   .     A
C571   N602    1.383   .     A
C572   N601    1.383   .     A
C572   C576    1.414   .     A
C573   N602    1.383   .     A
C574   H600    1.082   .     S
C575   H578    1.082   .     S
C576   H579    1.082   .     S
N601   Zn612   2.028   .     S
N602   Zn611   2.028   .     S
O603   Zn611   2.000   .     S
O604   Zn612   2.000   .     S
O605   Zn611   2.000   .     S
O606   Zn612   2.000   .     S
O607   Zn611   1.947   .     S
O608   Zn612   1.947   .     S
O609   Zn611   1.947   .     S
O610   Zn612   1.947   .     S
C613   O674    1.295   .     A
C613   C630    1.438   .     S
C613   O671    1.296   .     A
C614   C618    1.401   .     A
C614   C641    1.414   .     A
C614   H648    1.082   .     S
C615   O675    1.284   .     A
C615   C619    1.365   .     S
C615   O678    1.283   .     A
C616   O676    1.283   .     A
C616   C620    1.365   .     S
C616   O677    1.284   .     A
C617   C644    1.401   .     A
C617   C642    1.401   .     A
C617   C754    1.520   1_545 S
C618   C643    1.401   .     A
C618   C753    1.520   .     S
C620   C75     1.165   1_556 S
C621   C626    1.381   .     A
C621   C632    1.398   .     A
C621   H645    1.084   .     S
C622   C627    1.380   .     A
C622   C633    1.398   .     A
C622   H656    1.084   .     S
C623   C628    1.381   .     A
C623   H662    1.084   .     S
C623   C633    1.398   .     A
C624   O673    1.296   .     A
C624   C631    1.438   .     S
C624   O672    1.295   .     A
C625   C629    1.380   .     A
C625   C632    1.398   .     A
C625   H663    1.084   .     S
C626   C630    1.399   .     A
C626   H664    1.083   .     S
C627   C631    1.399   .     A
C627   H665    1.083   .     S
C628   C631    1.399   .     A
C628   H666    1.083   .     S
C629   C630    1.399   .     A
C629   H667    1.083   .     S
C633   C564    1.442   1_655 S
C634   H651    1.111   .     S
C634   H649    1.103   .     S
C634   C635    1.502   .     S
C634   H650    1.109   .     S
C635   C642    1.414   .     A
C635   N669    1.383   .     A
C636   H653    1.107   .     S
C636   H654    1.111   .     S
C636   C639    1.502   .     S
C636   H652    1.102   .     S
C637   H655    1.103   .     S
C637   C640    1.502   .     S
C637   H657    1.109   .     S
C637   H658    1.111   .     S
C638   H660    1.107   .     S
C638   H659    1.102   .     S
C638   C641    1.502   .     S
C638   H661    1.111   .     S
C639   C643    1.414   .     A
C639   N670    1.383   .     A
C640   N669    1.383   .     A
C640   C644    1.414   .     A
C641   N670    1.383   .     A
C642   H668    1.082   .     S
C643   H646    1.082   .     S
C644   H647    1.082   .     S
N669   Zn680   2.028   .     S
N670   Zn679   2.028   .     S
O671   Zn679   2.000   .     S
O672   Zn680   2.000   .     S
O673   Zn679   2.000   .     S
O674   Zn680   2.000   .     S
O675   Zn679   1.947   .     S
O676   Zn680   1.947   .     S
O677   Zn679   1.947   .     S
O678   Zn680   1.947   .     S
C681   O742    1.295   .     A
C681   C698    1.438   .     S
C681   O739    1.296   .     A
C682   C686    1.401   .     A
C682   C709    1.414   .     A
C682   H716    1.082   .     S
C683   O743    1.284   .     A
C683   C687    1.365   .     S
C683   O746    1.283   .     A
C684   O744    1.283   .     A
C684   C688    1.365   .     S
C684   O745    1.284   .     A
C685   C712    1.401   .     A
C685   C710    1.401   .     A
C686   C711    1.401   .     A
C686   C549    1.520   1_565 S
C688   C143    1.165   1_556 S
C689   C694    1.381   .     A
C689   C700    1.398   .     A
C689   H713    1.084   .     S
C690   C695    1.380   .     A
C690   C701    1.398   .     A
C690   H724    1.084   .     S
C691   C696    1.381   .     A
C691   H730    1.084   .     S
C691   C701    1.398   .     A
C692   O741    1.296   .     A
C692   C699    1.438   .     S
C692   O740    1.295   .     A
C693   C697    1.380   .     A
C693   C700    1.398   .     A
C693   H731    1.084   .     S
C694   C698    1.399   .     A
C694   H732    1.083   .     S
C695   C699    1.399   .     A
C695   H733    1.083   .     S
C696   C699    1.399   .     A
C696   H734    1.083   .     S
C697   C698    1.399   .     A
C697   H735    1.083   .     S
C700   C769    1.442   1_455 S
C701   C768    1.442   .     S
C702   H719    1.111   .     S
C702   H717    1.103   .     S
C702   C703    1.502   .     S
C702   H718    1.109   .     S
C703   C710    1.414   .     A
C703   N737    1.383   .     A
C704   H721    1.107   .     S
C704   H722    1.111   .     S
C704   C707    1.502   .     S
C704   H720    1.102   .     S
C705   H723    1.103   .     S
C705   C708    1.502   .     S
C705   H725    1.109   .     S
C705   H726    1.111   .     S
C706   H728    1.107   .     S
C706   H727    1.102   .     S
C706   C709    1.502   .     S
C706   H729    1.111   .     S
C707   C711    1.414   .     A
C707   N738    1.383   .     A
C708   N737    1.383   .     A
C708   C712    1.414   .     A
C709   N738    1.383   .     A
C710   H736    1.082   .     S
C711   H714    1.082   .     S
C712   H715    1.082   .     S
N737   Zn748   2.028   .     S
N738   Zn747   2.028   .     S
O739   Zn747   2.000   .     S
O740   Zn748   2.000   .     S
O741   Zn747   2.000   .     S
O742   Zn748   2.000   .     S
O743   Zn747   1.947   .     S
O744   Zn748   1.947   .     S
O745   Zn747   1.947   .     S
O746   Zn748   1.947   .     S
C749   O810    1.295   .     A
C749   C766    1.438   .     S
C749   O807    1.296   .     A
C750   C754    1.401   .     A
C750   C777    1.414   .     A
C750   H784    1.082   .     S
C751   O811    1.284   .     A
C751   C755    1.365   .     S
C751   O814    1.283   .     A
C752   O812    1.283   .     A
C752   C756    1.365   .     S
C752   O813    1.284   .     A
C753   C780    1.401   .     A
C753   C778    1.401   .     A
C754   C779    1.401   .     A
C754   C617    1.520   1_565 S
C756   C211    1.165   1_556 S
C757   C762    1.381   .     A
C757   C768    1.398   .     A
C757   H781    1.084   .     S
C758   C763    1.380   .     A
C758   C769    1.398   .     A
C758   H792    1.084   .     S
C759   C764    1.381   .     A
C759   H798    1.084   .     S
C759   C769    1.398   .     A
C760   O809    1.296   .     A
C760   C767    1.438   .     S
C760   O808    1.295   .     A
C761   C765    1.380   .     A
C761   C768    1.398   .     A
C761   H799    1.084   .     S
C762   C766    1.399   .     A
C762   H800    1.083   .     S
C763   C767    1.399   .     A
C763   H801    1.083   .     S
C764   C767    1.399   .     A
C764   H802    1.083   .     S
C765   C766    1.399   .     A
C765   H803    1.083   .     S
C769   C700    1.442   1_655 S
C770   H787    1.111   .     S
C770   H785    1.103   .     S
C770   C771    1.502   .     S
C770   H786    1.109   .     S
C771   C778    1.414   .     A
C771   N805    1.383   .     A
C772   H789    1.107   .     S
C772   H790    1.111   .     S
C772   C775    1.502   .     S
C772   H788    1.102   .     S
C773   H791    1.103   .     S
C773   C776    1.502   .     S
C773   H793    1.109   .     S
C773   H794    1.111   .     S
C774   H796    1.107   .     S
C774   H795    1.102   .     S
C774   C777    1.502   .     S
C774   H797    1.111   .     S
C775   C779    1.414   .     A
C775   N806    1.383   .     A
C776   N805    1.383   .     A
C776   C780    1.414   .     A
C777   N806    1.383   .     A
C778   H804    1.082   .     S
C779   H782    1.082   .     S
C780   H783    1.082   .     S
N805   Zn816   2.028   .     S
N806   Zn815   2.028   .     S
O807   Zn815   2.000   .     S
O808   Zn816   2.000   .     S
O809   Zn815   2.000   .     S
O810   Zn816   2.000   .     S
O811   Zn815   1.947   .     S
O812   Zn816   1.947   .     S
O813   Zn815   1.947   .     S
O814   Zn816   1.947   .     S
