data_str_m3_o1_o5_pcu_sym.68
_audit_creation_date              2020-01-03
_audit_creation_method            'Materials Studio'
_symmetry_space_group_name_H-M    'P1'
_symmetry_Int_Tables_number       1
_symmetry_cell_setting            triclinic
loop_
_symmetry_equiv_pos_as_xyz
  x,y,z
_cell_length_a                    32.2241
_cell_length_b                    29.5930
_cell_length_c                    26.7145
_cell_angle_alpha                 89.9980
_cell_angle_beta                  92.4407
_cell_angle_gamma                 89.9822
loop_
_atom_site_label
_atom_site_type_symbol
_atom_site_fract_x
_atom_site_fract_y
_atom_site_fract_z
_atom_site_U_iso_or_equiv
_atom_site_adp_type
_atom_site_occupancy
O1     O     0.10559   0.20487   0.16666   0.00000  Uiso   1.00
O2     O     0.22774   0.12846   0.16667   0.00000  Uiso   1.00
O3     O     0.22774   0.20487   0.16667   0.00000  Uiso   1.00
O4     O     0.10559   0.12846   0.16666   0.00000  Uiso   1.00
C5     C     0.08678   0.16690   0.17118   0.00000  Uiso   1.00
C6     C     0.24654   0.16689   0.16211   0.00000  Uiso   1.00
O7     O     0.16667   0.20488   0.09511   0.00000  Uiso   1.00
O8     O     0.16666   0.12845   0.23822   0.00000  Uiso   1.00
O9     O     0.16666   0.20488   0.23822   0.00000  Uiso   1.00
O10    O     0.16667   0.12845   0.09511   0.00000  Uiso   1.00
C11    C     0.16658   0.16664   0.07289   0.00000  Uiso   1.00
C12    C     0.16671   0.16664   0.26044   0.00000  Uiso   1.00
Zn13   Zn    0.16667   0.21771   0.16667   0.00000  Uiso   1.00
Zn14   Zn    0.16667   0.11563   0.16667   0.00000  Uiso   1.00
C15    C     0.16664   0.16653   0.02180   0.00000  Uiso   1.00
C16    C     0.16662   0.16653   0.31153   0.00000  Uiso   1.00
C17    C     0.02023   0.12696   0.17729   0.00000  Uiso   1.00
C18    C     0.31213   0.20978   0.16155   0.00000  Uiso   1.00
C19    C     0.31311   0.12694   0.15596   0.00000  Uiso   1.00
C20    C     0.02116   0.20980   0.17140   0.00000  Uiso   1.00
C21    C     0.29105   0.16804   0.15685   0.00000  Uiso   1.00
C22    C     0.04226   0.16807   0.17631   0.00000  Uiso   1.00
C23    C     0.18926   0.02436   0.20272   0.00000  Uiso   1.00
C24    C     0.14409   0.30915   0.13044   0.00000  Uiso   1.00
C25    C     0.14409   0.02439   0.13060   0.00000  Uiso   1.00
C26    C     0.18928   0.30913   0.20285   0.00000  Uiso   1.00
N27    N     0.16667   0.28573   0.16667   0.00000  Uiso   1.00
N28    N     0.16667   0.04760   0.16667   0.00000  Uiso   1.00
N29    N     0.03596   0.08960   0.20779   0.00000  Uiso   1.00
O30    O     0.06486   0.09696   0.24238   0.00000  Uiso   1.00
O31    O     0.01561   0.05180   0.21026   0.00000  Uiso   1.00
N32    N     0.29123   0.25236   0.15412   0.00000  Uiso   1.00
O33    O     0.27331   0.26180   0.11081   0.00000  Uiso   1.00
O34    O     0.29391   0.28346   0.18853   0.00000  Uiso   1.00
N35    N     0.29740   0.08952   0.12554   0.00000  Uiso   1.00
O36    O     0.26843   0.09681   0.09100   0.00000  Uiso   1.00
O37    O     0.31781   0.05175   0.12309   0.00000  Uiso   1.00
N38    N     0.04202   0.25241   0.17862   0.00000  Uiso   1.00
O39    O     0.05980   0.26207   0.22194   0.00000  Uiso   1.00
O40    O     0.03936   0.28334   0.14402   0.00000  Uiso   1.00
O41    O     0.20739   0.04882   0.24196   0.00000  Uiso   1.00
C42    C     0.25103   0.04869   0.24002   0.00000  Uiso   1.00
H43    H     0.26129   0.05608   0.20179   0.00000  Uiso   1.00
H44    H     0.26421   0.01569   0.25226   0.00000  Uiso   1.00
C45    C     0.26832   0.08462   0.27605   0.00000  Uiso   1.00
H46    H     0.25754   0.07809   0.31432   0.00000  Uiso   1.00
H47    H     0.30274   0.08406   0.27755   0.00000  Uiso   1.00
H48    H     0.25758   0.11867   0.26381   0.00000  Uiso   1.00
O49    O     0.11700   0.28511   0.09892   0.00000  Uiso   1.00
C50    C     0.12872   0.28737   0.04865   0.00000  Uiso   1.00
H51    H     0.15993   0.27256   0.04462   0.00000  Uiso   1.00
H52    H     0.12931   0.32231   0.03384   0.00000  Uiso   1.00
C53    C     0.09699   0.26097   0.01644   0.00000  Uiso   1.00
H54    H     0.06595   0.27712   0.01825   0.00000  Uiso   1.00
H55    H     0.10597   0.26050   0.31020   0.00000  Uiso   1.00
H56    H     0.09482   0.22565   0.03012   0.00000  Uiso   1.00
O57    O     0.12596   0.04889   0.09139   0.00000  Uiso   1.00
C58    C     0.08231   0.04868   0.09325   0.00000  Uiso   1.00
H59    H     0.07200   0.05602   0.13147   0.00000  Uiso   1.00
H60    H     0.06921   0.01567   0.08095   0.00000  Uiso   1.00
C61    C     0.06499   0.08461   0.05722   0.00000  Uiso   1.00
H62    H     0.07583   0.07812   0.01897   0.00000  Uiso   1.00
H63    H     0.03057   0.08400   0.05566   0.00000  Uiso   1.00
H64    H     0.07565   0.11866   0.06950   0.00000  Uiso   1.00
O65    O     0.21649   0.28508   0.23424   0.00000  Uiso   1.00
C66    C     0.20487   0.28724   0.28456   0.00000  Uiso   1.00
H67    H     0.17354   0.27278   0.28859   0.00000  Uiso   1.00
H68    H     0.20467   0.32211   0.29956   0.00000  Uiso   1.00
C69    C     0.23639   0.26034   0.31652   0.00000  Uiso   1.00
H70    H     0.26755   0.27616   0.31480   0.00000  Uiso   1.00
H71    H     0.22742   0.25970   0.02276   0.00000  Uiso   1.00
H72    H     0.23826   0.22510   0.30255   0.00000  Uiso   1.00
O73    O     0.43892   0.20487   0.16666   0.00000  Uiso   1.00
O74    O     0.56108   0.12846   0.16667   0.00000  Uiso   1.00
O75    O     0.56108   0.20487   0.16667   0.00000  Uiso   1.00
O76    O     0.43892   0.12846   0.16666   0.00000  Uiso   1.00
C77    C     0.42011   0.16690   0.17118   0.00000  Uiso   1.00
C78    C     0.57988   0.16689   0.16211   0.00000  Uiso   1.00
O79    O     0.50000   0.20488   0.09511   0.00000  Uiso   1.00
O80    O     0.50000   0.12845   0.23822   0.00000  Uiso   1.00
O81    O     0.50000   0.20488   0.23822   0.00000  Uiso   1.00
O82    O     0.50000   0.12845   0.09511   0.00000  Uiso   1.00
C83    C     0.49992   0.16664   0.07289   0.00000  Uiso   1.00
C84    C     0.50005   0.16664   0.26044   0.00000  Uiso   1.00
Zn85   Zn    0.50000   0.21771   0.16667   0.00000  Uiso   1.00
Zn86   Zn    0.50000   0.11563   0.16667   0.00000  Uiso   1.00
C87    C     0.49997   0.16653   0.02180   0.00000  Uiso   1.00
C88    C     0.49995   0.16653   0.31153   0.00000  Uiso   1.00
C89    C     0.35356   0.12696   0.17729   0.00000  Uiso   1.00
C90    C     0.64546   0.20978   0.16155   0.00000  Uiso   1.00
C91    C     0.64644   0.12694   0.15596   0.00000  Uiso   1.00
C92    C     0.35449   0.20980   0.17140   0.00000  Uiso   1.00
C93    C     0.62438   0.16804   0.15685   0.00000  Uiso   1.00
C94    C     0.37559   0.16807   0.17631   0.00000  Uiso   1.00
C95    C     0.52260   0.02436   0.20272   0.00000  Uiso   1.00
C96    C     0.47743   0.30915   0.13044   0.00000  Uiso   1.00
C97    C     0.47742   0.02439   0.13060   0.00000  Uiso   1.00
C98    C     0.52262   0.30913   0.20285   0.00000  Uiso   1.00
N99    N     0.50000   0.28573   0.16667   0.00000  Uiso   1.00
N100   N     0.50000   0.04760   0.16667   0.00000  Uiso   1.00
N101   N     0.36930   0.08960   0.20779   0.00000  Uiso   1.00
O102   O     0.39820   0.09696   0.24238   0.00000  Uiso   1.00
O103   O     0.34895   0.05180   0.21026   0.00000  Uiso   1.00
N104   N     0.62456   0.25236   0.15412   0.00000  Uiso   1.00
O105   O     0.60665   0.26180   0.11081   0.00000  Uiso   1.00
O106   O     0.62724   0.28346   0.18853   0.00000  Uiso   1.00
N107   N     0.63073   0.08952   0.12554   0.00000  Uiso   1.00
O108   O     0.60177   0.09681   0.09100   0.00000  Uiso   1.00
O109   O     0.65114   0.05175   0.12309   0.00000  Uiso   1.00
N110   N     0.37535   0.25241   0.17862   0.00000  Uiso   1.00
O111   O     0.39314   0.26207   0.22194   0.00000  Uiso   1.00
O112   O     0.37269   0.28334   0.14402   0.00000  Uiso   1.00
O113   O     0.54072   0.04882   0.24196   0.00000  Uiso   1.00
C114   C     0.58437   0.04869   0.24002   0.00000  Uiso   1.00
H115   H     0.59462   0.05608   0.20179   0.00000  Uiso   1.00
H116   H     0.59754   0.01569   0.25226   0.00000  Uiso   1.00
C117   C     0.60166   0.08462   0.27605   0.00000  Uiso   1.00
H118   H     0.59087   0.07809   0.31432   0.00000  Uiso   1.00
H119   H     0.63607   0.08406   0.27755   0.00000  Uiso   1.00
H120   H     0.59092   0.11867   0.26381   0.00000  Uiso   1.00
O121   O     0.45033   0.28511   0.09892   0.00000  Uiso   1.00
C122   C     0.46205   0.28737   0.04865   0.00000  Uiso   1.00
H123   H     0.49326   0.27256   0.04462   0.00000  Uiso   1.00
H124   H     0.46264   0.32231   0.03384   0.00000  Uiso   1.00
C125   C     0.43032   0.26097   0.01644   0.00000  Uiso   1.00
H126   H     0.39929   0.27712   0.01825   0.00000  Uiso   1.00
H127   H     0.43930   0.26050   0.31020   0.00000  Uiso   1.00
H128   H     0.42815   0.22565   0.03012   0.00000  Uiso   1.00
O129   O     0.45929   0.04889   0.09139   0.00000  Uiso   1.00
C130   C     0.41564   0.04868   0.09325   0.00000  Uiso   1.00
H131   H     0.40533   0.05602   0.13147   0.00000  Uiso   1.00
H132   H     0.40255   0.01567   0.08095   0.00000  Uiso   1.00
C133   C     0.39832   0.08461   0.05722   0.00000  Uiso   1.00
H134   H     0.40916   0.07812   0.01897   0.00000  Uiso   1.00
H135   H     0.36391   0.08400   0.05566   0.00000  Uiso   1.00
H136   H     0.40899   0.11866   0.06950   0.00000  Uiso   1.00
O137   O     0.54982   0.28508   0.23424   0.00000  Uiso   1.00
C138   C     0.53821   0.28724   0.28456   0.00000  Uiso   1.00
H139   H     0.50688   0.27278   0.28859   0.00000  Uiso   1.00
H140   H     0.53801   0.32211   0.29956   0.00000  Uiso   1.00
C141   C     0.56972   0.26034   0.31652   0.00000  Uiso   1.00
H142   H     0.60088   0.27616   0.31480   0.00000  Uiso   1.00
H143   H     0.56075   0.25970   0.02276   0.00000  Uiso   1.00
H144   H     0.57160   0.22510   0.30255   0.00000  Uiso   1.00
O145   O     0.77226   0.20487   0.16666   0.00000  Uiso   1.00
O146   O     0.89441   0.12846   0.16667   0.00000  Uiso   1.00
O147   O     0.89441   0.20487   0.16667   0.00000  Uiso   1.00
O148   O     0.77226   0.12846   0.16666   0.00000  Uiso   1.00
C149   C     0.75345   0.16690   0.17118   0.00000  Uiso   1.00
C150   C     0.91321   0.16689   0.16211   0.00000  Uiso   1.00
O151   O     0.83334   0.20488   0.09511   0.00000  Uiso   1.00
O152   O     0.83333   0.12845   0.23822   0.00000  Uiso   1.00
O153   O     0.83333   0.20488   0.23822   0.00000  Uiso   1.00
O154   O     0.83334   0.12845   0.09511   0.00000  Uiso   1.00
C155   C     0.83325   0.16664   0.07289   0.00000  Uiso   1.00
C156   C     0.83338   0.16664   0.26044   0.00000  Uiso   1.00
Zn157  Zn    0.83333   0.21771   0.16667   0.00000  Uiso   1.00
Zn158  Zn    0.83333   0.11563   0.16667   0.00000  Uiso   1.00
C159   C     0.83331   0.16653   0.02180   0.00000  Uiso   1.00
C160   C     0.83329   0.16653   0.31153   0.00000  Uiso   1.00
C161   C     0.68689   0.12696   0.17729   0.00000  Uiso   1.00
C162   C     0.97879   0.20978   0.16155   0.00000  Uiso   1.00
C163   C     0.97978   0.12694   0.15596   0.00000  Uiso   1.00
C164   C     0.68782   0.20980   0.17140   0.00000  Uiso   1.00
C165   C     0.95772   0.16804   0.15685   0.00000  Uiso   1.00
C166   C     0.70893   0.16807   0.17631   0.00000  Uiso   1.00
C167   C     0.85593   0.02436   0.20272   0.00000  Uiso   1.00
C168   C     0.81076   0.30915   0.13044   0.00000  Uiso   1.00
C169   C     0.81075   0.02439   0.13060   0.00000  Uiso   1.00
C170   C     0.85595   0.30913   0.20285   0.00000  Uiso   1.00
N171   N     0.83333   0.28573   0.16667   0.00000  Uiso   1.00
N172   N     0.83333   0.04760   0.16667   0.00000  Uiso   1.00
N173   N     0.70263   0.08960   0.20779   0.00000  Uiso   1.00
O174   O     0.73153   0.09696   0.24238   0.00000  Uiso   1.00
O175   O     0.68228   0.05180   0.21026   0.00000  Uiso   1.00
N176   N     0.95789   0.25236   0.15412   0.00000  Uiso   1.00
O177   O     0.93998   0.26180   0.11081   0.00000  Uiso   1.00
O178   O     0.96057   0.28346   0.18853   0.00000  Uiso   1.00
N179   N     0.96406   0.08952   0.12554   0.00000  Uiso   1.00
O180   O     0.93510   0.09681   0.09100   0.00000  Uiso   1.00
O181   O     0.98448   0.05175   0.12309   0.00000  Uiso   1.00
N182   N     0.70869   0.25241   0.17862   0.00000  Uiso   1.00
O183   O     0.72647   0.26207   0.22194   0.00000  Uiso   1.00
O184   O     0.70602   0.28334   0.14402   0.00000  Uiso   1.00
O185   O     0.87405   0.04882   0.24196   0.00000  Uiso   1.00
C186   C     0.91770   0.04869   0.24002   0.00000  Uiso   1.00
H187   H     0.92795   0.05608   0.20179   0.00000  Uiso   1.00
H188   H     0.93087   0.01569   0.25226   0.00000  Uiso   1.00
C189   C     0.93499   0.08462   0.27605   0.00000  Uiso   1.00
H190   H     0.92421   0.07809   0.31432   0.00000  Uiso   1.00
H191   H     0.96940   0.08406   0.27755   0.00000  Uiso   1.00
H192   H     0.92425   0.11867   0.26381   0.00000  Uiso   1.00
O193   O     0.78367   0.28511   0.09892   0.00000  Uiso   1.00
C194   C     0.79538   0.28737   0.04865   0.00000  Uiso   1.00
H195   H     0.82659   0.27256   0.04462   0.00000  Uiso   1.00
H196   H     0.79597   0.32231   0.03384   0.00000  Uiso   1.00
C197   C     0.76366   0.26097   0.01644   0.00000  Uiso   1.00
H198   H     0.73262   0.27712   0.01825   0.00000  Uiso   1.00
H199   H     0.77264   0.26050   0.31020   0.00000  Uiso   1.00
H200   H     0.76149   0.22565   0.03012   0.00000  Uiso   1.00
O201   O     0.79262   0.04889   0.09139   0.00000  Uiso   1.00
C202   C     0.74897   0.04868   0.09325   0.00000  Uiso   1.00
H203   H     0.73866   0.05602   0.13147   0.00000  Uiso   1.00
H204   H     0.73588   0.01567   0.08095   0.00000  Uiso   1.00
C205   C     0.73165   0.08461   0.05722   0.00000  Uiso   1.00
H206   H     0.74249   0.07812   0.01897   0.00000  Uiso   1.00
H207   H     0.69724   0.08400   0.05566   0.00000  Uiso   1.00
H208   H     0.74232   0.11866   0.06950   0.00000  Uiso   1.00
O209   O     0.88315   0.28508   0.23424   0.00000  Uiso   1.00
C210   C     0.87154   0.28724   0.28456   0.00000  Uiso   1.00
H211   H     0.84021   0.27278   0.28859   0.00000  Uiso   1.00
H212   H     0.87134   0.32211   0.29956   0.00000  Uiso   1.00
C213   C     0.90305   0.26034   0.31652   0.00000  Uiso   1.00
H214   H     0.93422   0.27616   0.31480   0.00000  Uiso   1.00
H215   H     0.89408   0.25970   0.02276   0.00000  Uiso   1.00
H216   H     0.90493   0.22510   0.30255   0.00000  Uiso   1.00
O217   O     0.10559   0.53821   0.16666   0.00000  Uiso   1.00
O218   O     0.22774   0.46179   0.16667   0.00000  Uiso   1.00
O219   O     0.22774   0.53821   0.16667   0.00000  Uiso   1.00
O220   O     0.10559   0.46179   0.16666   0.00000  Uiso   1.00
C221   C     0.08678   0.50023   0.17118   0.00000  Uiso   1.00
C222   C     0.24654   0.50022   0.16211   0.00000  Uiso   1.00
O223   O     0.16667   0.53821   0.09511   0.00000  Uiso   1.00
O224   O     0.16666   0.46179   0.23822   0.00000  Uiso   1.00
O225   O     0.16666   0.53821   0.23822   0.00000  Uiso   1.00
O226   O     0.16667   0.46179   0.09511   0.00000  Uiso   1.00
C227   C     0.16658   0.49998   0.07289   0.00000  Uiso   1.00
C228   C     0.16671   0.49997   0.26044   0.00000  Uiso   1.00
Zn229  Zn    0.16667   0.55104   0.16667   0.00000  Uiso   1.00
Zn230  Zn    0.16667   0.44896   0.16667   0.00000  Uiso   1.00
C231   C     0.16664   0.49987   0.02180   0.00000  Uiso   1.00
C232   C     0.16662   0.49986   0.31153   0.00000  Uiso   1.00
C233   C     0.02023   0.46029   0.17729   0.00000  Uiso   1.00
C234   C     0.31213   0.54311   0.16155   0.00000  Uiso   1.00
C235   C     0.31311   0.46027   0.15596   0.00000  Uiso   1.00
C236   C     0.02116   0.54313   0.17140   0.00000  Uiso   1.00
C237   C     0.29105   0.50137   0.15685   0.00000  Uiso   1.00
C238   C     0.04226   0.50140   0.17631   0.00000  Uiso   1.00
C239   C     0.18926   0.35770   0.20272   0.00000  Uiso   1.00
C240   C     0.14409   0.64248   0.13044   0.00000  Uiso   1.00
C241   C     0.14409   0.35772   0.13060   0.00000  Uiso   1.00
C242   C     0.18928   0.64246   0.20285   0.00000  Uiso   1.00
N243   N     0.16667   0.61907   0.16667   0.00000  Uiso   1.00
N244   N     0.16667   0.38093   0.16667   0.00000  Uiso   1.00
N245   N     0.03596   0.42293   0.20779   0.00000  Uiso   1.00
O246   O     0.06486   0.43030   0.24238   0.00000  Uiso   1.00
O247   O     0.01561   0.38514   0.21026   0.00000  Uiso   1.00
N248   N     0.29123   0.58570   0.15412   0.00000  Uiso   1.00
O249   O     0.27331   0.59513   0.11081   0.00000  Uiso   1.00
O250   O     0.29391   0.61679   0.18853   0.00000  Uiso   1.00
N251   N     0.29740   0.42285   0.12554   0.00000  Uiso   1.00
O252   O     0.26843   0.43014   0.09100   0.00000  Uiso   1.00
O253   O     0.31781   0.38509   0.12309   0.00000  Uiso   1.00
N254   N     0.04202   0.58574   0.17862   0.00000  Uiso   1.00
O255   O     0.05980   0.59541   0.22194   0.00000  Uiso   1.00
O256   O     0.03936   0.61667   0.14402   0.00000  Uiso   1.00
O257   O     0.20739   0.38216   0.24196   0.00000  Uiso   1.00
C258   C     0.25103   0.38202   0.24002   0.00000  Uiso   1.00
H259   H     0.26129   0.38941   0.20179   0.00000  Uiso   1.00
H260   H     0.26421   0.34902   0.25226   0.00000  Uiso   1.00
C261   C     0.26832   0.41795   0.27605   0.00000  Uiso   1.00
H262   H     0.25754   0.41142   0.31432   0.00000  Uiso   1.00
H263   H     0.30274   0.41739   0.27755   0.00000  Uiso   1.00
H264   H     0.25758   0.45200   0.26381   0.00000  Uiso   1.00
O265   O     0.11700   0.61844   0.09892   0.00000  Uiso   1.00
C266   C     0.12872   0.62071   0.04865   0.00000  Uiso   1.00
H267   H     0.15993   0.60589   0.04462   0.00000  Uiso   1.00
H268   H     0.12931   0.65565   0.03384   0.00000  Uiso   1.00
C269   C     0.09699   0.59431   0.01644   0.00000  Uiso   1.00
H270   H     0.06595   0.61046   0.01825   0.00000  Uiso   1.00
H271   H     0.10597   0.59383   0.31020   0.00000  Uiso   1.00
H272   H     0.09482   0.55898   0.03012   0.00000  Uiso   1.00
O273   O     0.12596   0.38222   0.09139   0.00000  Uiso   1.00
C274   C     0.08231   0.38201   0.09325   0.00000  Uiso   1.00
H275   H     0.07200   0.38936   0.13147   0.00000  Uiso   1.00
H276   H     0.06921   0.34900   0.08095   0.00000  Uiso   1.00
C277   C     0.06499   0.41794   0.05722   0.00000  Uiso   1.00
H278   H     0.07583   0.41146   0.01897   0.00000  Uiso   1.00
H279   H     0.03057   0.41733   0.05566   0.00000  Uiso   1.00
H280   H     0.07565   0.45200   0.06950   0.00000  Uiso   1.00
O281   O     0.21649   0.61841   0.23424   0.00000  Uiso   1.00
C282   C     0.20487   0.62057   0.28456   0.00000  Uiso   1.00
H283   H     0.17354   0.60612   0.28859   0.00000  Uiso   1.00
H284   H     0.20467   0.65544   0.29956   0.00000  Uiso   1.00
C285   C     0.23639   0.59367   0.31652   0.00000  Uiso   1.00
H286   H     0.26755   0.60950   0.31480   0.00000  Uiso   1.00
H287   H     0.22742   0.59303   0.02276   0.00000  Uiso   1.00
H288   H     0.23826   0.55843   0.30255   0.00000  Uiso   1.00
O289   O     0.43892   0.53821   0.16666   0.00000  Uiso   1.00
O290   O     0.56108   0.46179   0.16667   0.00000  Uiso   1.00
O291   O     0.56108   0.53821   0.16667   0.00000  Uiso   1.00
O292   O     0.43892   0.46179   0.16666   0.00000  Uiso   1.00
C293   C     0.42011   0.50023   0.17118   0.00000  Uiso   1.00
C294   C     0.57988   0.50022   0.16211   0.00000  Uiso   1.00
O295   O     0.50000   0.53821   0.09511   0.00000  Uiso   1.00
O296   O     0.50000   0.46179   0.23822   0.00000  Uiso   1.00
O297   O     0.50000   0.53821   0.23822   0.00000  Uiso   1.00
O298   O     0.50000   0.46179   0.09511   0.00000  Uiso   1.00
C299   C     0.49992   0.49998   0.07289   0.00000  Uiso   1.00
C300   C     0.50005   0.49997   0.26044   0.00000  Uiso   1.00
Zn301  Zn    0.50000   0.55104   0.16667   0.00000  Uiso   1.00
Zn302  Zn    0.50000   0.44896   0.16667   0.00000  Uiso   1.00
C303   C     0.49997   0.49987   0.02180   0.00000  Uiso   1.00
C304   C     0.49995   0.49986   0.31153   0.00000  Uiso   1.00
C305   C     0.35356   0.46029   0.17729   0.00000  Uiso   1.00
C306   C     0.64546   0.54311   0.16155   0.00000  Uiso   1.00
C307   C     0.64644   0.46027   0.15596   0.00000  Uiso   1.00
C308   C     0.35449   0.54313   0.17140   0.00000  Uiso   1.00
C309   C     0.62438   0.50137   0.15685   0.00000  Uiso   1.00
C310   C     0.37559   0.50140   0.17631   0.00000  Uiso   1.00
C311   C     0.52260   0.35770   0.20272   0.00000  Uiso   1.00
C312   C     0.47743   0.64248   0.13044   0.00000  Uiso   1.00
C313   C     0.47742   0.35772   0.13060   0.00000  Uiso   1.00
C314   C     0.52262   0.64246   0.20285   0.00000  Uiso   1.00
N315   N     0.50000   0.61907   0.16667   0.00000  Uiso   1.00
N316   N     0.50000   0.38093   0.16667   0.00000  Uiso   1.00
N317   N     0.36930   0.42293   0.20779   0.00000  Uiso   1.00
O318   O     0.39820   0.43030   0.24238   0.00000  Uiso   1.00
O319   O     0.34895   0.38514   0.21026   0.00000  Uiso   1.00
N320   N     0.62456   0.58570   0.15412   0.00000  Uiso   1.00
O321   O     0.60665   0.59513   0.11081   0.00000  Uiso   1.00
O322   O     0.62724   0.61679   0.18853   0.00000  Uiso   1.00
N323   N     0.63073   0.42285   0.12554   0.00000  Uiso   1.00
O324   O     0.60177   0.43014   0.09100   0.00000  Uiso   1.00
O325   O     0.65114   0.38509   0.12309   0.00000  Uiso   1.00
N326   N     0.37535   0.58574   0.17862   0.00000  Uiso   1.00
O327   O     0.39314   0.59541   0.22194   0.00000  Uiso   1.00
O328   O     0.37269   0.61667   0.14402   0.00000  Uiso   1.00
O329   O     0.54072   0.38216   0.24196   0.00000  Uiso   1.00
C330   C     0.58437   0.38202   0.24002   0.00000  Uiso   1.00
H331   H     0.59462   0.38941   0.20179   0.00000  Uiso   1.00
H332   H     0.59754   0.34902   0.25226   0.00000  Uiso   1.00
C333   C     0.60166   0.41795   0.27605   0.00000  Uiso   1.00
H334   H     0.59087   0.41142   0.31432   0.00000  Uiso   1.00
H335   H     0.63607   0.41739   0.27755   0.00000  Uiso   1.00
H336   H     0.59092   0.45200   0.26381   0.00000  Uiso   1.00
O337   O     0.45033   0.61844   0.09892   0.00000  Uiso   1.00
C338   C     0.46205   0.62071   0.04865   0.00000  Uiso   1.00
H339   H     0.49326   0.60589   0.04462   0.00000  Uiso   1.00
H340   H     0.46264   0.65565   0.03384   0.00000  Uiso   1.00
C341   C     0.43032   0.59431   0.01644   0.00000  Uiso   1.00
H342   H     0.39929   0.61046   0.01825   0.00000  Uiso   1.00
H343   H     0.43930   0.59383   0.31020   0.00000  Uiso   1.00
H344   H     0.42815   0.55898   0.03012   0.00000  Uiso   1.00
O345   O     0.45929   0.38222   0.09139   0.00000  Uiso   1.00
C346   C     0.41564   0.38201   0.09325   0.00000  Uiso   1.00
H347   H     0.40533   0.38936   0.13147   0.00000  Uiso   1.00
H348   H     0.40255   0.34900   0.08095   0.00000  Uiso   1.00
C349   C     0.39832   0.41794   0.05722   0.00000  Uiso   1.00
H350   H     0.40916   0.41146   0.01897   0.00000  Uiso   1.00
H351   H     0.36391   0.41733   0.05566   0.00000  Uiso   1.00
H352   H     0.40899   0.45200   0.06950   0.00000  Uiso   1.00
O353   O     0.54982   0.61841   0.23424   0.00000  Uiso   1.00
C354   C     0.53821   0.62057   0.28456   0.00000  Uiso   1.00
H355   H     0.50688   0.60612   0.28859   0.00000  Uiso   1.00
H356   H     0.53801   0.65544   0.29956   0.00000  Uiso   1.00
C357   C     0.56972   0.59367   0.31652   0.00000  Uiso   1.00
H358   H     0.60088   0.60950   0.31480   0.00000  Uiso   1.00
H359   H     0.56075   0.59303   0.02276   0.00000  Uiso   1.00
H360   H     0.57160   0.55843   0.30255   0.00000  Uiso   1.00
O361   O     0.77226   0.53821   0.16666   0.00000  Uiso   1.00
O362   O     0.89441   0.46179   0.16667   0.00000  Uiso   1.00
O363   O     0.89441   0.53821   0.16667   0.00000  Uiso   1.00
O364   O     0.77226   0.46179   0.16666   0.00000  Uiso   1.00
C365   C     0.75345   0.50023   0.17118   0.00000  Uiso   1.00
C366   C     0.91321   0.50022   0.16211   0.00000  Uiso   1.00
O367   O     0.83334   0.53821   0.09511   0.00000  Uiso   1.00
O368   O     0.83333   0.46179   0.23822   0.00000  Uiso   1.00
O369   O     0.83333   0.53821   0.23822   0.00000  Uiso   1.00
O370   O     0.83334   0.46179   0.09511   0.00000  Uiso   1.00
C371   C     0.83325   0.49998   0.07289   0.00000  Uiso   1.00
C372   C     0.83338   0.49997   0.26044   0.00000  Uiso   1.00
Zn373  Zn    0.83333   0.55104   0.16667   0.00000  Uiso   1.00
Zn374  Zn    0.83333   0.44896   0.16667   0.00000  Uiso   1.00
C375   C     0.83331   0.49987   0.02180   0.00000  Uiso   1.00
C376   C     0.83329   0.49986   0.31153   0.00000  Uiso   1.00
C377   C     0.68689   0.46029   0.17729   0.00000  Uiso   1.00
C378   C     0.97879   0.54311   0.16155   0.00000  Uiso   1.00
C379   C     0.97978   0.46027   0.15596   0.00000  Uiso   1.00
C380   C     0.68782   0.54313   0.17140   0.00000  Uiso   1.00
C381   C     0.95772   0.50137   0.15685   0.00000  Uiso   1.00
C382   C     0.70893   0.50140   0.17631   0.00000  Uiso   1.00
C383   C     0.85593   0.35770   0.20272   0.00000  Uiso   1.00
C384   C     0.81076   0.64248   0.13044   0.00000  Uiso   1.00
C385   C     0.81075   0.35772   0.13060   0.00000  Uiso   1.00
C386   C     0.85595   0.64246   0.20285   0.00000  Uiso   1.00
N387   N     0.83333   0.61907   0.16667   0.00000  Uiso   1.00
N388   N     0.83333   0.38093   0.16667   0.00000  Uiso   1.00
N389   N     0.70263   0.42293   0.20779   0.00000  Uiso   1.00
O390   O     0.73153   0.43030   0.24238   0.00000  Uiso   1.00
O391   O     0.68228   0.38514   0.21026   0.00000  Uiso   1.00
N392   N     0.95789   0.58570   0.15412   0.00000  Uiso   1.00
O393   O     0.93998   0.59513   0.11081   0.00000  Uiso   1.00
O394   O     0.96057   0.61679   0.18853   0.00000  Uiso   1.00
N395   N     0.96406   0.42285   0.12554   0.00000  Uiso   1.00
O396   O     0.93510   0.43014   0.09100   0.00000  Uiso   1.00
O397   O     0.98448   0.38509   0.12309   0.00000  Uiso   1.00
N398   N     0.70869   0.58574   0.17862   0.00000  Uiso   1.00
O399   O     0.72647   0.59541   0.22194   0.00000  Uiso   1.00
O400   O     0.70602   0.61667   0.14402   0.00000  Uiso   1.00
O401   O     0.87405   0.38216   0.24196   0.00000  Uiso   1.00
C402   C     0.91770   0.38202   0.24002   0.00000  Uiso   1.00
H403   H     0.92795   0.38941   0.20179   0.00000  Uiso   1.00
H404   H     0.93087   0.34902   0.25226   0.00000  Uiso   1.00
C405   C     0.93499   0.41795   0.27605   0.00000  Uiso   1.00
H406   H     0.92421   0.41142   0.31432   0.00000  Uiso   1.00
H407   H     0.96940   0.41739   0.27755   0.00000  Uiso   1.00
H408   H     0.92425   0.45200   0.26381   0.00000  Uiso   1.00
O409   O     0.78367   0.61844   0.09892   0.00000  Uiso   1.00
C410   C     0.79538   0.62071   0.04865   0.00000  Uiso   1.00
H411   H     0.82659   0.60589   0.04462   0.00000  Uiso   1.00
H412   H     0.79597   0.65565   0.03384   0.00000  Uiso   1.00
C413   C     0.76366   0.59431   0.01644   0.00000  Uiso   1.00
H414   H     0.73262   0.61046   0.01825   0.00000  Uiso   1.00
H415   H     0.77264   0.59383   0.31020   0.00000  Uiso   1.00
H416   H     0.76149   0.55898   0.03012   0.00000  Uiso   1.00
O417   O     0.79262   0.38222   0.09139   0.00000  Uiso   1.00
C418   C     0.74897   0.38201   0.09325   0.00000  Uiso   1.00
H419   H     0.73866   0.38936   0.13147   0.00000  Uiso   1.00
H420   H     0.73588   0.34900   0.08095   0.00000  Uiso   1.00
C421   C     0.73165   0.41794   0.05722   0.00000  Uiso   1.00
H422   H     0.74249   0.41146   0.01897   0.00000  Uiso   1.00
H423   H     0.69724   0.41733   0.05566   0.00000  Uiso   1.00
H424   H     0.74232   0.45200   0.06950   0.00000  Uiso   1.00
O425   O     0.88315   0.61841   0.23424   0.00000  Uiso   1.00
C426   C     0.87154   0.62057   0.28456   0.00000  Uiso   1.00
H427   H     0.84021   0.60612   0.28859   0.00000  Uiso   1.00
H428   H     0.87134   0.65544   0.29956   0.00000  Uiso   1.00
C429   C     0.90305   0.59367   0.31652   0.00000  Uiso   1.00
H430   H     0.93422   0.60950   0.31480   0.00000  Uiso   1.00
H431   H     0.89408   0.59303   0.02276   0.00000  Uiso   1.00
H432   H     0.90493   0.55843   0.30255   0.00000  Uiso   1.00
O433   O     0.10559   0.87154   0.16666   0.00000  Uiso   1.00
O434   O     0.22774   0.79513   0.16667   0.00000  Uiso   1.00
O435   O     0.22774   0.87154   0.16667   0.00000  Uiso   1.00
O436   O     0.10559   0.79513   0.16666   0.00000  Uiso   1.00
C437   C     0.08678   0.83357   0.17118   0.00000  Uiso   1.00
C438   C     0.24654   0.83355   0.16211   0.00000  Uiso   1.00
O439   O     0.16667   0.87155   0.09511   0.00000  Uiso   1.00
O440   O     0.16666   0.79512   0.23822   0.00000  Uiso   1.00
O441   O     0.16666   0.87155   0.23822   0.00000  Uiso   1.00
O442   O     0.16667   0.79512   0.09511   0.00000  Uiso   1.00
C443   C     0.16658   0.83331   0.07289   0.00000  Uiso   1.00
C444   C     0.16671   0.83331   0.26044   0.00000  Uiso   1.00
Zn445  Zn    0.16667   0.88437   0.16667   0.00000  Uiso   1.00
Zn446  Zn    0.16667   0.78229   0.16667   0.00000  Uiso   1.00
C447   C     0.16664   0.83320   0.02180   0.00000  Uiso   1.00
C448   C     0.16662   0.83320   0.31153   0.00000  Uiso   1.00
C449   C     0.02023   0.79363   0.17729   0.00000  Uiso   1.00
C450   C     0.31213   0.87645   0.16155   0.00000  Uiso   1.00
C451   C     0.31311   0.79360   0.15596   0.00000  Uiso   1.00
C452   C     0.02116   0.87646   0.17140   0.00000  Uiso   1.00
C453   C     0.29105   0.83471   0.15685   0.00000  Uiso   1.00
C454   C     0.04226   0.83474   0.17631   0.00000  Uiso   1.00
C455   C     0.18926   0.69103   0.20272   0.00000  Uiso   1.00
C456   C     0.14409   0.97582   0.13044   0.00000  Uiso   1.00
C457   C     0.14409   0.69106   0.13060   0.00000  Uiso   1.00
C458   C     0.18928   0.97580   0.20285   0.00000  Uiso   1.00
N459   N     0.16667   0.95240   0.16667   0.00000  Uiso   1.00
N460   N     0.16667   0.71427   0.16667   0.00000  Uiso   1.00
N461   N     0.03596   0.75626   0.20779   0.00000  Uiso   1.00
O462   O     0.06486   0.76363   0.24238   0.00000  Uiso   1.00
O463   O     0.01561   0.71847   0.21026   0.00000  Uiso   1.00
N464   N     0.29123   0.91903   0.15412   0.00000  Uiso   1.00
O465   O     0.27331   0.92847   0.11081   0.00000  Uiso   1.00
O466   O     0.29391   0.95012   0.18853   0.00000  Uiso   1.00
N467   N     0.29740   0.75619   0.12554   0.00000  Uiso   1.00
O468   O     0.26843   0.76348   0.09100   0.00000  Uiso   1.00
O469   O     0.31781   0.71842   0.12309   0.00000  Uiso   1.00
N470   N     0.04202   0.91907   0.17862   0.00000  Uiso   1.00
O471   O     0.05980   0.92874   0.22194   0.00000  Uiso   1.00
O472   O     0.03936   0.95000   0.14402   0.00000  Uiso   1.00
O473   O     0.20739   0.71549   0.24196   0.00000  Uiso   1.00
C474   C     0.25103   0.71535   0.24002   0.00000  Uiso   1.00
H475   H     0.26129   0.72274   0.20179   0.00000  Uiso   1.00
H476   H     0.26421   0.68236   0.25226   0.00000  Uiso   1.00
C477   C     0.26832   0.75129   0.27605   0.00000  Uiso   1.00
H478   H     0.25754   0.74476   0.31432   0.00000  Uiso   1.00
H479   H     0.30274   0.75073   0.27755   0.00000  Uiso   1.00
H480   H     0.25758   0.78533   0.26381   0.00000  Uiso   1.00
O481   O     0.11700   0.95178   0.09892   0.00000  Uiso   1.00
C482   C     0.12872   0.95404   0.04865   0.00000  Uiso   1.00
H483   H     0.15993   0.93923   0.04462   0.00000  Uiso   1.00
H484   H     0.12931   0.98898   0.03384   0.00000  Uiso   1.00
C485   C     0.09699   0.92764   0.01644   0.00000  Uiso   1.00
H486   H     0.06595   0.94379   0.01825   0.00000  Uiso   1.00
H487   H     0.10597   0.92716   0.31020   0.00000  Uiso   1.00
H488   H     0.09482   0.89232   0.03012   0.00000  Uiso   1.00
O489   O     0.12596   0.71555   0.09139   0.00000  Uiso   1.00
C490   C     0.08231   0.71534   0.09325   0.00000  Uiso   1.00
H491   H     0.07200   0.72269   0.13147   0.00000  Uiso   1.00
H492   H     0.06921   0.68234   0.08095   0.00000  Uiso   1.00
C493   C     0.06499   0.75128   0.05722   0.00000  Uiso   1.00
H494   H     0.07583   0.74479   0.01897   0.00000  Uiso   1.00
H495   H     0.03057   0.75066   0.05566   0.00000  Uiso   1.00
H496   H     0.07565   0.78533   0.06950   0.00000  Uiso   1.00
O497   O     0.21649   0.95175   0.23424   0.00000  Uiso   1.00
C498   C     0.20487   0.95391   0.28456   0.00000  Uiso   1.00
H499   H     0.17354   0.93945   0.28859   0.00000  Uiso   1.00
H500   H     0.20467   0.98878   0.29956   0.00000  Uiso   1.00
C501   C     0.23639   0.92700   0.31652   0.00000  Uiso   1.00
H502   H     0.26755   0.94283   0.31480   0.00000  Uiso   1.00
H503   H     0.22742   0.92637   0.02276   0.00000  Uiso   1.00
H504   H     0.23826   0.89176   0.30255   0.00000  Uiso   1.00
O505   O     0.43892   0.87154   0.16666   0.00000  Uiso   1.00
O506   O     0.56108   0.79513   0.16667   0.00000  Uiso   1.00
O507   O     0.56108   0.87154   0.16667   0.00000  Uiso   1.00
O508   O     0.43892   0.79513   0.16666   0.00000  Uiso   1.00
C509   C     0.42011   0.83357   0.17118   0.00000  Uiso   1.00
C510   C     0.57988   0.83355   0.16211   0.00000  Uiso   1.00
O511   O     0.50000   0.87155   0.09511   0.00000  Uiso   1.00
O512   O     0.50000   0.79512   0.23822   0.00000  Uiso   1.00
O513   O     0.50000   0.87155   0.23822   0.00000  Uiso   1.00
O514   O     0.50000   0.79512   0.09511   0.00000  Uiso   1.00
C515   C     0.49992   0.83331   0.07289   0.00000  Uiso   1.00
C516   C     0.50005   0.83331   0.26044   0.00000  Uiso   1.00
Zn517  Zn    0.50000   0.88437   0.16667   0.00000  Uiso   1.00
Zn518  Zn    0.50000   0.78229   0.16667   0.00000  Uiso   1.00
C519   C     0.49997   0.83320   0.02180   0.00000  Uiso   1.00
C520   C     0.49995   0.83320   0.31153   0.00000  Uiso   1.00
C521   C     0.35356   0.79363   0.17729   0.00000  Uiso   1.00
C522   C     0.64546   0.87645   0.16155   0.00000  Uiso   1.00
C523   C     0.64644   0.79360   0.15596   0.00000  Uiso   1.00
C524   C     0.35449   0.87646   0.17140   0.00000  Uiso   1.00
C525   C     0.62438   0.83471   0.15685   0.00000  Uiso   1.00
C526   C     0.37559   0.83474   0.17631   0.00000  Uiso   1.00
C527   C     0.52260   0.69103   0.20272   0.00000  Uiso   1.00
C528   C     0.47743   0.97582   0.13044   0.00000  Uiso   1.00
C529   C     0.47742   0.69106   0.13060   0.00000  Uiso   1.00
C530   C     0.52262   0.97580   0.20285   0.00000  Uiso   1.00
N531   N     0.50000   0.95240   0.16667   0.00000  Uiso   1.00
N532   N     0.50000   0.71427   0.16667   0.00000  Uiso   1.00
N533   N     0.36930   0.75626   0.20779   0.00000  Uiso   1.00
O534   O     0.39820   0.76363   0.24238   0.00000  Uiso   1.00
O535   O     0.34895   0.71847   0.21026   0.00000  Uiso   1.00
N536   N     0.62456   0.91903   0.15412   0.00000  Uiso   1.00
O537   O     0.60665   0.92847   0.11081   0.00000  Uiso   1.00
O538   O     0.62724   0.95012   0.18853   0.00000  Uiso   1.00
N539   N     0.63073   0.75619   0.12554   0.00000  Uiso   1.00
O540   O     0.60177   0.76348   0.09100   0.00000  Uiso   1.00
O541   O     0.65114   0.71842   0.12309   0.00000  Uiso   1.00
N542   N     0.37535   0.91907   0.17862   0.00000  Uiso   1.00
O543   O     0.39314   0.92874   0.22194   0.00000  Uiso   1.00
O544   O     0.37269   0.95000   0.14402   0.00000  Uiso   1.00
O545   O     0.54072   0.71549   0.24196   0.00000  Uiso   1.00
C546   C     0.58437   0.71535   0.24002   0.00000  Uiso   1.00
H547   H     0.59462   0.72274   0.20179   0.00000  Uiso   1.00
H548   H     0.59754   0.68236   0.25226   0.00000  Uiso   1.00
C549   C     0.60166   0.75129   0.27605   0.00000  Uiso   1.00
H550   H     0.59087   0.74476   0.31432   0.00000  Uiso   1.00
H551   H     0.63607   0.75073   0.27755   0.00000  Uiso   1.00
H552   H     0.59092   0.78533   0.26381   0.00000  Uiso   1.00
O553   O     0.45033   0.95178   0.09892   0.00000  Uiso   1.00
C554   C     0.46205   0.95404   0.04865   0.00000  Uiso   1.00
H555   H     0.49326   0.93923   0.04462   0.00000  Uiso   1.00
H556   H     0.46264   0.98898   0.03384   0.00000  Uiso   1.00
C557   C     0.43032   0.92764   0.01644   0.00000  Uiso   1.00
H558   H     0.39929   0.94379   0.01825   0.00000  Uiso   1.00
H559   H     0.43930   0.92716   0.31020   0.00000  Uiso   1.00
H560   H     0.42815   0.89232   0.03012   0.00000  Uiso   1.00
O561   O     0.45929   0.71555   0.09139   0.00000  Uiso   1.00
C562   C     0.41564   0.71534   0.09325   0.00000  Uiso   1.00
H563   H     0.40533   0.72269   0.13147   0.00000  Uiso   1.00
H564   H     0.40255   0.68234   0.08095   0.00000  Uiso   1.00
C565   C     0.39832   0.75128   0.05722   0.00000  Uiso   1.00
H566   H     0.40916   0.74479   0.01897   0.00000  Uiso   1.00
H567   H     0.36391   0.75066   0.05566   0.00000  Uiso   1.00
H568   H     0.40899   0.78533   0.06950   0.00000  Uiso   1.00
O569   O     0.54982   0.95175   0.23424   0.00000  Uiso   1.00
C570   C     0.53821   0.95391   0.28456   0.00000  Uiso   1.00
H571   H     0.50688   0.93945   0.28859   0.00000  Uiso   1.00
H572   H     0.53801   0.98878   0.29956   0.00000  Uiso   1.00
C573   C     0.56972   0.92700   0.31652   0.00000  Uiso   1.00
H574   H     0.60088   0.94283   0.31480   0.00000  Uiso   1.00
H575   H     0.56075   0.92637   0.02276   0.00000  Uiso   1.00
H576   H     0.57160   0.89176   0.30255   0.00000  Uiso   1.00
O577   O     0.77226   0.87154   0.16666   0.00000  Uiso   1.00
O578   O     0.89441   0.79513   0.16667   0.00000  Uiso   1.00
O579   O     0.89441   0.87154   0.16667   0.00000  Uiso   1.00
O580   O     0.77226   0.79513   0.16666   0.00000  Uiso   1.00
C581   C     0.75345   0.83357   0.17118   0.00000  Uiso   1.00
C582   C     0.91321   0.83355   0.16211   0.00000  Uiso   1.00
O583   O     0.83334   0.87155   0.09511   0.00000  Uiso   1.00
O584   O     0.83333   0.79512   0.23822   0.00000  Uiso   1.00
O585   O     0.83333   0.87155   0.23822   0.00000  Uiso   1.00
O586   O     0.83334   0.79512   0.09511   0.00000  Uiso   1.00
C587   C     0.83325   0.83331   0.07289   0.00000  Uiso   1.00
C588   C     0.83338   0.83331   0.26044   0.00000  Uiso   1.00
Zn589  Zn    0.83333   0.88437   0.16667   0.00000  Uiso   1.00
Zn590  Zn    0.83333   0.78229   0.16667   0.00000  Uiso   1.00
C591   C     0.83331   0.83320   0.02180   0.00000  Uiso   1.00
C592   C     0.83329   0.83320   0.31153   0.00000  Uiso   1.00
C593   C     0.68689   0.79363   0.17729   0.00000  Uiso   1.00
C594   C     0.97879   0.87645   0.16155   0.00000  Uiso   1.00
C595   C     0.97978   0.79360   0.15596   0.00000  Uiso   1.00
C596   C     0.68782   0.87646   0.17140   0.00000  Uiso   1.00
C597   C     0.95772   0.83471   0.15685   0.00000  Uiso   1.00
C598   C     0.70893   0.83474   0.17631   0.00000  Uiso   1.00
C599   C     0.85593   0.69103   0.20272   0.00000  Uiso   1.00
C600   C     0.81076   0.97582   0.13044   0.00000  Uiso   1.00
C601   C     0.81075   0.69106   0.13060   0.00000  Uiso   1.00
C602   C     0.85595   0.97580   0.20285   0.00000  Uiso   1.00
N603   N     0.83333   0.95240   0.16667   0.00000  Uiso   1.00
N604   N     0.83333   0.71427   0.16667   0.00000  Uiso   1.00
N605   N     0.70263   0.75626   0.20779   0.00000  Uiso   1.00
O606   O     0.73153   0.76363   0.24238   0.00000  Uiso   1.00
O607   O     0.68228   0.71847   0.21026   0.00000  Uiso   1.00
N608   N     0.95789   0.91903   0.15412   0.00000  Uiso   1.00
O609   O     0.93998   0.92847   0.11081   0.00000  Uiso   1.00
O610   O     0.96057   0.95012   0.18853   0.00000  Uiso   1.00
N611   N     0.96406   0.75619   0.12554   0.00000  Uiso   1.00
O612   O     0.93510   0.76348   0.09100   0.00000  Uiso   1.00
O613   O     0.98448   0.71842   0.12309   0.00000  Uiso   1.00
N614   N     0.70869   0.91907   0.17862   0.00000  Uiso   1.00
O615   O     0.72647   0.92874   0.22194   0.00000  Uiso   1.00
O616   O     0.70602   0.95000   0.14402   0.00000  Uiso   1.00
O617   O     0.87405   0.71549   0.24196   0.00000  Uiso   1.00
C618   C     0.91770   0.71535   0.24002   0.00000  Uiso   1.00
H619   H     0.92795   0.72274   0.20179   0.00000  Uiso   1.00
H620   H     0.93087   0.68236   0.25226   0.00000  Uiso   1.00
C621   C     0.93499   0.75129   0.27605   0.00000  Uiso   1.00
H622   H     0.92421   0.74476   0.31432   0.00000  Uiso   1.00
H623   H     0.96940   0.75073   0.27755   0.00000  Uiso   1.00
H624   H     0.92425   0.78533   0.26381   0.00000  Uiso   1.00
O625   O     0.78367   0.95178   0.09892   0.00000  Uiso   1.00
C626   C     0.79538   0.95404   0.04865   0.00000  Uiso   1.00
H627   H     0.82659   0.93923   0.04462   0.00000  Uiso   1.00
H628   H     0.79597   0.98898   0.03384   0.00000  Uiso   1.00
C629   C     0.76366   0.92764   0.01644   0.00000  Uiso   1.00
H630   H     0.73262   0.94379   0.01825   0.00000  Uiso   1.00
H631   H     0.77264   0.92716   0.31020   0.00000  Uiso   1.00
H632   H     0.76149   0.89232   0.03012   0.00000  Uiso   1.00
O633   O     0.79262   0.71555   0.09139   0.00000  Uiso   1.00
C634   C     0.74897   0.71534   0.09325   0.00000  Uiso   1.00
H635   H     0.73866   0.72269   0.13147   0.00000  Uiso   1.00
H636   H     0.73588   0.68234   0.08095   0.00000  Uiso   1.00
C637   C     0.73165   0.75128   0.05722   0.00000  Uiso   1.00
H638   H     0.74249   0.74479   0.01897   0.00000  Uiso   1.00
H639   H     0.69724   0.75066   0.05566   0.00000  Uiso   1.00
H640   H     0.74232   0.78533   0.06950   0.00000  Uiso   1.00
O641   O     0.88315   0.95175   0.23424   0.00000  Uiso   1.00
C642   C     0.87154   0.95391   0.28456   0.00000  Uiso   1.00
H643   H     0.84021   0.93945   0.28859   0.00000  Uiso   1.00
H644   H     0.87134   0.98878   0.29956   0.00000  Uiso   1.00
C645   C     0.90305   0.92700   0.31652   0.00000  Uiso   1.00
H646   H     0.93422   0.94283   0.31480   0.00000  Uiso   1.00
H647   H     0.89408   0.92637   0.02276   0.00000  Uiso   1.00
H648   H     0.90493   0.89176   0.30255   0.00000  Uiso   1.00
O649   O     0.10559   0.20487   0.50000   0.00000  Uiso   1.00
O650   O     0.22774   0.12846   0.50000   0.00000  Uiso   1.00
O651   O     0.22774   0.20487   0.50000   0.00000  Uiso   1.00
O652   O     0.10559   0.12846   0.50000   0.00000  Uiso   1.00
C653   C     0.08678   0.16690   0.50451   0.00000  Uiso   1.00
C654   C     0.24654   0.16689   0.49544   0.00000  Uiso   1.00
O655   O     0.16667   0.20488   0.42845   0.00000  Uiso   1.00
O656   O     0.16666   0.12845   0.57155   0.00000  Uiso   1.00
O657   O     0.16666   0.20488   0.57155   0.00000  Uiso   1.00
O658   O     0.16667   0.12845   0.42845   0.00000  Uiso   1.00
C659   C     0.16658   0.16664   0.40622   0.00000  Uiso   1.00
C660   C     0.16671   0.16664   0.59378   0.00000  Uiso   1.00
Zn661  Zn    0.16667   0.21771   0.50000   0.00000  Uiso   1.00
Zn662  Zn    0.16667   0.11563   0.50000   0.00000  Uiso   1.00
C663   C     0.16664   0.16653   0.35513   0.00000  Uiso   1.00
C664   C     0.16662   0.16653   0.64487   0.00000  Uiso   1.00
C665   C     0.02023   0.12696   0.51062   0.00000  Uiso   1.00
C666   C     0.31213   0.20978   0.49489   0.00000  Uiso   1.00
C667   C     0.31311   0.12694   0.48930   0.00000  Uiso   1.00
C668   C     0.02116   0.20980   0.50473   0.00000  Uiso   1.00
C669   C     0.29105   0.16804   0.49018   0.00000  Uiso   1.00
C670   C     0.04226   0.16807   0.50964   0.00000  Uiso   1.00
C671   C     0.18926   0.02436   0.53606   0.00000  Uiso   1.00
C672   C     0.14409   0.30915   0.46377   0.00000  Uiso   1.00
C673   C     0.14409   0.02439   0.46393   0.00000  Uiso   1.00
C674   C     0.18928   0.30913   0.53619   0.00000  Uiso   1.00
N675   N     0.16667   0.28573   0.50000   0.00000  Uiso   1.00
N676   N     0.16667   0.04760   0.50000   0.00000  Uiso   1.00
N677   N     0.03596   0.08960   0.54113   0.00000  Uiso   1.00
O678   O     0.06486   0.09696   0.57572   0.00000  Uiso   1.00
O679   O     0.01561   0.05180   0.54359   0.00000  Uiso   1.00
N680   N     0.29123   0.25236   0.48745   0.00000  Uiso   1.00
O681   O     0.27331   0.26180   0.44414   0.00000  Uiso   1.00
O682   O     0.29391   0.28346   0.52187   0.00000  Uiso   1.00
N683   N     0.29740   0.08952   0.45888   0.00000  Uiso   1.00
O684   O     0.26843   0.09681   0.42433   0.00000  Uiso   1.00
O685   O     0.31781   0.05175   0.45642   0.00000  Uiso   1.00
N686   N     0.04202   0.25241   0.51196   0.00000  Uiso   1.00
O687   O     0.05980   0.26207   0.55527   0.00000  Uiso   1.00
O688   O     0.03936   0.28334   0.47736   0.00000  Uiso   1.00
O689   O     0.20739   0.04882   0.57529   0.00000  Uiso   1.00
C690   C     0.25103   0.04869   0.57335   0.00000  Uiso   1.00
H691   H     0.26129   0.05608   0.53513   0.00000  Uiso   1.00
H692   H     0.26421   0.01569   0.58559   0.00000  Uiso   1.00
C693   C     0.26832   0.08462   0.60938   0.00000  Uiso   1.00
H694   H     0.25754   0.07809   0.64765   0.00000  Uiso   1.00
H695   H     0.30274   0.08406   0.61089   0.00000  Uiso   1.00
H696   H     0.25758   0.11867   0.59714   0.00000  Uiso   1.00
O697   O     0.11700   0.28511   0.43226   0.00000  Uiso   1.00
C698   C     0.12872   0.28737   0.38198   0.00000  Uiso   1.00
H699   H     0.15993   0.27256   0.37795   0.00000  Uiso   1.00
H700   H     0.12931   0.32231   0.36717   0.00000  Uiso   1.00
C701   C     0.09699   0.26097   0.34977   0.00000  Uiso   1.00
H702   H     0.06595   0.27712   0.35158   0.00000  Uiso   1.00
H703   H     0.10597   0.26050   0.64353   0.00000  Uiso   1.00
H704   H     0.09482   0.22565   0.36346   0.00000  Uiso   1.00
O705   O     0.12596   0.04889   0.42472   0.00000  Uiso   1.00
C706   C     0.08231   0.04868   0.42658   0.00000  Uiso   1.00
H707   H     0.07200   0.05602   0.46480   0.00000  Uiso   1.00
H708   H     0.06921   0.01567   0.41429   0.00000  Uiso   1.00
C709   C     0.06499   0.08461   0.39056   0.00000  Uiso   1.00
H710   H     0.07583   0.07812   0.35230   0.00000  Uiso   1.00
H711   H     0.03057   0.08400   0.38900   0.00000  Uiso   1.00
H712   H     0.07565   0.11866   0.40284   0.00000  Uiso   1.00
O713   O     0.21649   0.28508   0.56757   0.00000  Uiso   1.00
C714   C     0.20487   0.28724   0.61789   0.00000  Uiso   1.00
H715   H     0.17354   0.27278   0.62192   0.00000  Uiso   1.00
H716   H     0.20467   0.32211   0.63289   0.00000  Uiso   1.00
C717   C     0.23639   0.26034   0.64985   0.00000  Uiso   1.00
H718   H     0.26755   0.27616   0.64813   0.00000  Uiso   1.00
H719   H     0.22742   0.25970   0.35609   0.00000  Uiso   1.00
H720   H     0.23826   0.22510   0.63588   0.00000  Uiso   1.00
O721   O     0.43892   0.20487   0.50000   0.00000  Uiso   1.00
O722   O     0.56108   0.12846   0.50000   0.00000  Uiso   1.00
O723   O     0.56108   0.20487   0.50000   0.00000  Uiso   1.00
O724   O     0.43892   0.12846   0.50000   0.00000  Uiso   1.00
C725   C     0.42011   0.16690   0.50451   0.00000  Uiso   1.00
C726   C     0.57988   0.16689   0.49544   0.00000  Uiso   1.00
O727   O     0.50000   0.20488   0.42845   0.00000  Uiso   1.00
O728   O     0.50000   0.12845   0.57155   0.00000  Uiso   1.00
O729   O     0.50000   0.20488   0.57155   0.00000  Uiso   1.00
O730   O     0.50000   0.12845   0.42845   0.00000  Uiso   1.00
C731   C     0.49992   0.16664   0.40622   0.00000  Uiso   1.00
C732   C     0.50005   0.16664   0.59378   0.00000  Uiso   1.00
Zn733  Zn    0.50000   0.21771   0.50000   0.00000  Uiso   1.00
Zn734  Zn    0.50000   0.11563   0.50000   0.00000  Uiso   1.00
C735   C     0.49997   0.16653   0.35513   0.00000  Uiso   1.00
C736   C     0.49995   0.16653   0.64487   0.00000  Uiso   1.00
C737   C     0.35356   0.12696   0.51062   0.00000  Uiso   1.00
C738   C     0.64546   0.20978   0.49489   0.00000  Uiso   1.00
C739   C     0.64644   0.12694   0.48930   0.00000  Uiso   1.00
C740   C     0.35449   0.20980   0.50473   0.00000  Uiso   1.00
C741   C     0.62438   0.16804   0.49018   0.00000  Uiso   1.00
C742   C     0.37559   0.16807   0.50964   0.00000  Uiso   1.00
C743   C     0.52260   0.02436   0.53606   0.00000  Uiso   1.00
C744   C     0.47743   0.30915   0.46377   0.00000  Uiso   1.00
C745   C     0.47742   0.02439   0.46393   0.00000  Uiso   1.00
C746   C     0.52262   0.30913   0.53619   0.00000  Uiso   1.00
N747   N     0.50000   0.28573   0.50000   0.00000  Uiso   1.00
N748   N     0.50000   0.04760   0.50000   0.00000  Uiso   1.00
N749   N     0.36930   0.08960   0.54113   0.00000  Uiso   1.00
O750   O     0.39820   0.09696   0.57572   0.00000  Uiso   1.00
O751   O     0.34895   0.05180   0.54359   0.00000  Uiso   1.00
N752   N     0.62456   0.25236   0.48745   0.00000  Uiso   1.00
O753   O     0.60665   0.26180   0.44414   0.00000  Uiso   1.00
O754   O     0.62724   0.28346   0.52187   0.00000  Uiso   1.00
N755   N     0.63073   0.08952   0.45888   0.00000  Uiso   1.00
O756   O     0.60177   0.09681   0.42433   0.00000  Uiso   1.00
O757   O     0.65114   0.05175   0.45642   0.00000  Uiso   1.00
N758   N     0.37535   0.25241   0.51196   0.00000  Uiso   1.00
O759   O     0.39314   0.26207   0.55527   0.00000  Uiso   1.00
O760   O     0.37269   0.28334   0.47736   0.00000  Uiso   1.00
O761   O     0.54072   0.04882   0.57529   0.00000  Uiso   1.00
C762   C     0.58437   0.04869   0.57335   0.00000  Uiso   1.00
H763   H     0.59462   0.05608   0.53513   0.00000  Uiso   1.00
H764   H     0.59754   0.01569   0.58559   0.00000  Uiso   1.00
C765   C     0.60166   0.08462   0.60938   0.00000  Uiso   1.00
H766   H     0.59087   0.07809   0.64765   0.00000  Uiso   1.00
H767   H     0.63607   0.08406   0.61089   0.00000  Uiso   1.00
H768   H     0.59092   0.11867   0.59714   0.00000  Uiso   1.00
O769   O     0.45033   0.28511   0.43226   0.00000  Uiso   1.00
C770   C     0.46205   0.28737   0.38198   0.00000  Uiso   1.00
H771   H     0.49326   0.27256   0.37795   0.00000  Uiso   1.00
H772   H     0.46264   0.32231   0.36717   0.00000  Uiso   1.00
C773   C     0.43032   0.26097   0.34977   0.00000  Uiso   1.00
H774   H     0.39929   0.27712   0.35158   0.00000  Uiso   1.00
H775   H     0.43930   0.26050   0.64353   0.00000  Uiso   1.00
H776   H     0.42815   0.22565   0.36346   0.00000  Uiso   1.00
O777   O     0.45929   0.04889   0.42472   0.00000  Uiso   1.00
C778   C     0.41564   0.04868   0.42658   0.00000  Uiso   1.00
H779   H     0.40533   0.05602   0.46480   0.00000  Uiso   1.00
H780   H     0.40255   0.01567   0.41429   0.00000  Uiso   1.00
C781   C     0.39832   0.08461   0.39056   0.00000  Uiso   1.00
H782   H     0.40916   0.07812   0.35230   0.00000  Uiso   1.00
H783   H     0.36391   0.08400   0.38900   0.00000  Uiso   1.00
H784   H     0.40899   0.11866   0.40284   0.00000  Uiso   1.00
O785   O     0.54982   0.28508   0.56757   0.00000  Uiso   1.00
C786   C     0.53821   0.28724   0.61789   0.00000  Uiso   1.00
H787   H     0.50688   0.27278   0.62192   0.00000  Uiso   1.00
H788   H     0.53801   0.32211   0.63289   0.00000  Uiso   1.00
C789   C     0.56972   0.26034   0.64985   0.00000  Uiso   1.00
H790   H     0.60088   0.27616   0.64813   0.00000  Uiso   1.00
H791   H     0.56075   0.25970   0.35609   0.00000  Uiso   1.00
H792   H     0.57160   0.22510   0.63588   0.00000  Uiso   1.00
O793   O     0.77226   0.20487   0.50000   0.00000  Uiso   1.00
O794   O     0.89441   0.12846   0.50000   0.00000  Uiso   1.00
O795   O     0.89441   0.20487   0.50000   0.00000  Uiso   1.00
O796   O     0.77226   0.12846   0.50000   0.00000  Uiso   1.00
C797   C     0.75345   0.16690   0.50451   0.00000  Uiso   1.00
C798   C     0.91321   0.16689   0.49544   0.00000  Uiso   1.00
O799   O     0.83334   0.20488   0.42845   0.00000  Uiso   1.00
O800   O     0.83333   0.12845   0.57155   0.00000  Uiso   1.00
O801   O     0.83333   0.20488   0.57155   0.00000  Uiso   1.00
O802   O     0.83334   0.12845   0.42845   0.00000  Uiso   1.00
C803   C     0.83325   0.16664   0.40622   0.00000  Uiso   1.00
C804   C     0.83338   0.16664   0.59378   0.00000  Uiso   1.00
Zn805  Zn    0.83333   0.21771   0.50000   0.00000  Uiso   1.00
Zn806  Zn    0.83333   0.11563   0.50000   0.00000  Uiso   1.00
C807   C     0.83331   0.16653   0.35513   0.00000  Uiso   1.00
C808   C     0.83329   0.16653   0.64487   0.00000  Uiso   1.00
C809   C     0.68689   0.12696   0.51062   0.00000  Uiso   1.00
C810   C     0.97879   0.20978   0.49489   0.00000  Uiso   1.00
C811   C     0.97978   0.12694   0.48930   0.00000  Uiso   1.00
C812   C     0.68782   0.20980   0.50473   0.00000  Uiso   1.00
C813   C     0.95772   0.16804   0.49018   0.00000  Uiso   1.00
C814   C     0.70893   0.16807   0.50964   0.00000  Uiso   1.00
C815   C     0.85593   0.02436   0.53606   0.00000  Uiso   1.00
C816   C     0.81076   0.30915   0.46377   0.00000  Uiso   1.00
C817   C     0.81075   0.02439   0.46393   0.00000  Uiso   1.00
C818   C     0.85595   0.30913   0.53619   0.00000  Uiso   1.00
N819   N     0.83333   0.28573   0.50000   0.00000  Uiso   1.00
N820   N     0.83333   0.04760   0.50000   0.00000  Uiso   1.00
N821   N     0.70263   0.08960   0.54113   0.00000  Uiso   1.00
O822   O     0.73153   0.09696   0.57572   0.00000  Uiso   1.00
O823   O     0.68228   0.05180   0.54359   0.00000  Uiso   1.00
N824   N     0.95789   0.25236   0.48745   0.00000  Uiso   1.00
O825   O     0.93998   0.26180   0.44414   0.00000  Uiso   1.00
O826   O     0.96057   0.28346   0.52187   0.00000  Uiso   1.00
N827   N     0.96406   0.08952   0.45888   0.00000  Uiso   1.00
O828   O     0.93510   0.09681   0.42433   0.00000  Uiso   1.00
O829   O     0.98448   0.05175   0.45642   0.00000  Uiso   1.00
N830   N     0.70869   0.25241   0.51196   0.00000  Uiso   1.00
O831   O     0.72647   0.26207   0.55527   0.00000  Uiso   1.00
O832   O     0.70602   0.28334   0.47736   0.00000  Uiso   1.00
O833   O     0.87405   0.04882   0.57529   0.00000  Uiso   1.00
C834   C     0.91770   0.04869   0.57335   0.00000  Uiso   1.00
H835   H     0.92795   0.05608   0.53513   0.00000  Uiso   1.00
H836   H     0.93087   0.01569   0.58559   0.00000  Uiso   1.00
C837   C     0.93499   0.08462   0.60938   0.00000  Uiso   1.00
H838   H     0.92421   0.07809   0.64765   0.00000  Uiso   1.00
H839   H     0.96940   0.08406   0.61089   0.00000  Uiso   1.00
H840   H     0.92425   0.11867   0.59714   0.00000  Uiso   1.00
O841   O     0.78367   0.28511   0.43226   0.00000  Uiso   1.00
C842   C     0.79538   0.28737   0.38198   0.00000  Uiso   1.00
H843   H     0.82659   0.27256   0.37795   0.00000  Uiso   1.00
H844   H     0.79597   0.32231   0.36717   0.00000  Uiso   1.00
C845   C     0.76366   0.26097   0.34977   0.00000  Uiso   1.00
H846   H     0.73262   0.27712   0.35158   0.00000  Uiso   1.00
H847   H     0.77264   0.26050   0.64353   0.00000  Uiso   1.00
H848   H     0.76149   0.22565   0.36346   0.00000  Uiso   1.00
O849   O     0.79262   0.04889   0.42472   0.00000  Uiso   1.00
C850   C     0.74897   0.04868   0.42658   0.00000  Uiso   1.00
H851   H     0.73866   0.05602   0.46480   0.00000  Uiso   1.00
H852   H     0.73588   0.01567   0.41429   0.00000  Uiso   1.00
C853   C     0.73165   0.08461   0.39056   0.00000  Uiso   1.00
H854   H     0.74249   0.07812   0.35230   0.00000  Uiso   1.00
H855   H     0.69724   0.08400   0.38900   0.00000  Uiso   1.00
H856   H     0.74232   0.11866   0.40284   0.00000  Uiso   1.00
O857   O     0.88315   0.28508   0.56757   0.00000  Uiso   1.00
C858   C     0.87154   0.28724   0.61789   0.00000  Uiso   1.00
H859   H     0.84021   0.27278   0.62192   0.00000  Uiso   1.00
H860   H     0.87134   0.32211   0.63289   0.00000  Uiso   1.00
C861   C     0.90305   0.26034   0.64985   0.00000  Uiso   1.00
H862   H     0.93422   0.27616   0.64813   0.00000  Uiso   1.00
H863   H     0.89408   0.25970   0.35609   0.00000  Uiso   1.00
H864   H     0.90493   0.22510   0.63588   0.00000  Uiso   1.00
O865   O     0.10559   0.53821   0.50000   0.00000  Uiso   1.00
O866   O     0.22774   0.46179   0.50000   0.00000  Uiso   1.00
O867   O     0.22774   0.53821   0.50000   0.00000  Uiso   1.00
O868   O     0.10559   0.46179   0.50000   0.00000  Uiso   1.00
C869   C     0.08678   0.50023   0.50451   0.00000  Uiso   1.00
C870   C     0.24654   0.50022   0.49544   0.00000  Uiso   1.00
O871   O     0.16667   0.53821   0.42845   0.00000  Uiso   1.00
O872   O     0.16666   0.46179   0.57155   0.00000  Uiso   1.00
O873   O     0.16666   0.53821   0.57155   0.00000  Uiso   1.00
O874   O     0.16667   0.46179   0.42845   0.00000  Uiso   1.00
C875   C     0.16658   0.49998   0.40622   0.00000  Uiso   1.00
C876   C     0.16671   0.49997   0.59378   0.00000  Uiso   1.00
Zn877  Zn    0.16667   0.55104   0.50000   0.00000  Uiso   1.00
Zn878  Zn    0.16667   0.44896   0.50000   0.00000  Uiso   1.00
C879   C     0.16664   0.49987   0.35513   0.00000  Uiso   1.00
C880   C     0.16662   0.49986   0.64487   0.00000  Uiso   1.00
C881   C     0.02023   0.46029   0.51062   0.00000  Uiso   1.00
C882   C     0.31213   0.54311   0.49489   0.00000  Uiso   1.00
C883   C     0.31311   0.46027   0.48930   0.00000  Uiso   1.00
C884   C     0.02116   0.54313   0.50473   0.00000  Uiso   1.00
C885   C     0.29105   0.50137   0.49018   0.00000  Uiso   1.00
C886   C     0.04226   0.50140   0.50964   0.00000  Uiso   1.00
C887   C     0.18926   0.35770   0.53606   0.00000  Uiso   1.00
C888   C     0.14409   0.64248   0.46377   0.00000  Uiso   1.00
C889   C     0.14409   0.35772   0.46393   0.00000  Uiso   1.00
C890   C     0.18928   0.64246   0.53619   0.00000  Uiso   1.00
N891   N     0.16667   0.61907   0.50000   0.00000  Uiso   1.00
N892   N     0.16667   0.38093   0.50000   0.00000  Uiso   1.00
N893   N     0.03596   0.42293   0.54113   0.00000  Uiso   1.00
O894   O     0.06486   0.43030   0.57572   0.00000  Uiso   1.00
O895   O     0.01561   0.38514   0.54359   0.00000  Uiso   1.00
N896   N     0.29123   0.58570   0.48745   0.00000  Uiso   1.00
O897   O     0.27331   0.59513   0.44414   0.00000  Uiso   1.00
O898   O     0.29391   0.61679   0.52187   0.00000  Uiso   1.00
N899   N     0.29740   0.42285   0.45888   0.00000  Uiso   1.00
O900   O     0.26843   0.43014   0.42433   0.00000  Uiso   1.00
O901   O     0.31781   0.38509   0.45642   0.00000  Uiso   1.00
N902   N     0.04202   0.58574   0.51196   0.00000  Uiso   1.00
O903   O     0.05980   0.59541   0.55527   0.00000  Uiso   1.00
O904   O     0.03936   0.61667   0.47736   0.00000  Uiso   1.00
O905   O     0.20739   0.38216   0.57529   0.00000  Uiso   1.00
C906   C     0.25103   0.38202   0.57335   0.00000  Uiso   1.00
H907   H     0.26129   0.38941   0.53513   0.00000  Uiso   1.00
H908   H     0.26421   0.34902   0.58559   0.00000  Uiso   1.00
C909   C     0.26832   0.41795   0.60938   0.00000  Uiso   1.00
H910   H     0.25754   0.41142   0.64765   0.00000  Uiso   1.00
H911   H     0.30274   0.41739   0.61089   0.00000  Uiso   1.00
H912   H     0.25758   0.45200   0.59714   0.00000  Uiso   1.00
O913   O     0.11700   0.61844   0.43226   0.00000  Uiso   1.00
C914   C     0.12872   0.62071   0.38198   0.00000  Uiso   1.00
H915   H     0.15993   0.60589   0.37795   0.00000  Uiso   1.00
H916   H     0.12931   0.65565   0.36717   0.00000  Uiso   1.00
C917   C     0.09699   0.59431   0.34977   0.00000  Uiso   1.00
H918   H     0.06595   0.61046   0.35158   0.00000  Uiso   1.00
H919   H     0.10597   0.59383   0.64353   0.00000  Uiso   1.00
H920   H     0.09482   0.55898   0.36346   0.00000  Uiso   1.00
O921   O     0.12596   0.38222   0.42472   0.00000  Uiso   1.00
C922   C     0.08231   0.38201   0.42658   0.00000  Uiso   1.00
H923   H     0.07200   0.38936   0.46480   0.00000  Uiso   1.00
H924   H     0.06921   0.34900   0.41429   0.00000  Uiso   1.00
C925   C     0.06499   0.41794   0.39056   0.00000  Uiso   1.00
H926   H     0.07583   0.41146   0.35230   0.00000  Uiso   1.00
H927   H     0.03057   0.41733   0.38900   0.00000  Uiso   1.00
H928   H     0.07565   0.45200   0.40284   0.00000  Uiso   1.00
O929   O     0.21649   0.61841   0.56757   0.00000  Uiso   1.00
C930   C     0.20487   0.62057   0.61789   0.00000  Uiso   1.00
H931   H     0.17354   0.60612   0.62192   0.00000  Uiso   1.00
H932   H     0.20467   0.65544   0.63289   0.00000  Uiso   1.00
C933   C     0.23639   0.59367   0.64985   0.00000  Uiso   1.00
H934   H     0.26755   0.60950   0.64813   0.00000  Uiso   1.00
H935   H     0.22742   0.59303   0.35609   0.00000  Uiso   1.00
H936   H     0.23826   0.55843   0.63588   0.00000  Uiso   1.00
O937   O     0.43892   0.53821   0.50000   0.00000  Uiso   1.00
O938   O     0.56108   0.46179   0.50000   0.00000  Uiso   1.00
O939   O     0.56108   0.53821   0.50000   0.00000  Uiso   1.00
O940   O     0.43892   0.46179   0.50000   0.00000  Uiso   1.00
C941   C     0.42011   0.50023   0.50451   0.00000  Uiso   1.00
C942   C     0.57988   0.50022   0.49544   0.00000  Uiso   1.00
O943   O     0.50000   0.53821   0.42845   0.00000  Uiso   1.00
O944   O     0.50000   0.46179   0.57155   0.00000  Uiso   1.00
O945   O     0.50000   0.53821   0.57155   0.00000  Uiso   1.00
O946   O     0.50000   0.46179   0.42845   0.00000  Uiso   1.00
C947   C     0.49992   0.49998   0.40622   0.00000  Uiso   1.00
C948   C     0.50005   0.49997   0.59378   0.00000  Uiso   1.00
Zn949  Zn    0.50000   0.55104   0.50000   0.00000  Uiso   1.00
Zn950  Zn    0.50000   0.44896   0.50000   0.00000  Uiso   1.00
C951   C     0.49997   0.49987   0.35513   0.00000  Uiso   1.00
C952   C     0.49995   0.49986   0.64487   0.00000  Uiso   1.00
C953   C     0.35356   0.46029   0.51062   0.00000  Uiso   1.00
C954   C     0.64546   0.54311   0.49489   0.00000  Uiso   1.00
C955   C     0.64644   0.46027   0.48930   0.00000  Uiso   1.00
C956   C     0.35449   0.54313   0.50473   0.00000  Uiso   1.00
C957   C     0.62438   0.50137   0.49018   0.00000  Uiso   1.00
C958   C     0.37559   0.50140   0.50964   0.00000  Uiso   1.00
C959   C     0.52260   0.35770   0.53606   0.00000  Uiso   1.00
C960   C     0.47743   0.64248   0.46377   0.00000  Uiso   1.00
C961   C     0.47742   0.35772   0.46393   0.00000  Uiso   1.00
C962   C     0.52262   0.64246   0.53619   0.00000  Uiso   1.00
N963   N     0.50000   0.61907   0.50000   0.00000  Uiso   1.00
N964   N     0.50000   0.38093   0.50000   0.00000  Uiso   1.00
N965   N     0.36930   0.42293   0.54113   0.00000  Uiso   1.00
O966   O     0.39820   0.43030   0.57572   0.00000  Uiso   1.00
O967   O     0.34895   0.38514   0.54359   0.00000  Uiso   1.00
N968   N     0.62456   0.58570   0.48745   0.00000  Uiso   1.00
O969   O     0.60665   0.59513   0.44414   0.00000  Uiso   1.00
O970   O     0.62724   0.61679   0.52187   0.00000  Uiso   1.00
N971   N     0.63073   0.42285   0.45888   0.00000  Uiso   1.00
O972   O     0.60177   0.43014   0.42433   0.00000  Uiso   1.00
O973   O     0.65114   0.38509   0.45642   0.00000  Uiso   1.00
N974   N     0.37535   0.58574   0.51196   0.00000  Uiso   1.00
O975   O     0.39314   0.59541   0.55527   0.00000  Uiso   1.00
O976   O     0.37269   0.61667   0.47736   0.00000  Uiso   1.00
O977   O     0.54072   0.38216   0.57529   0.00000  Uiso   1.00
C978   C     0.58437   0.38202   0.57335   0.00000  Uiso   1.00
H979   H     0.59462   0.38941   0.53513   0.00000  Uiso   1.00
H980   H     0.59754   0.34902   0.58559   0.00000  Uiso   1.00
C981   C     0.60166   0.41795   0.60938   0.00000  Uiso   1.00
H982   H     0.59087   0.41142   0.64765   0.00000  Uiso   1.00
H983   H     0.63607   0.41739   0.61089   0.00000  Uiso   1.00
H984   H     0.59092   0.45200   0.59714   0.00000  Uiso   1.00
O985   O     0.45033   0.61844   0.43226   0.00000  Uiso   1.00
C986   C     0.46205   0.62071   0.38198   0.00000  Uiso   1.00
H987   H     0.49326   0.60589   0.37795   0.00000  Uiso   1.00
H988   H     0.46264   0.65565   0.36717   0.00000  Uiso   1.00
C989   C     0.43032   0.59431   0.34977   0.00000  Uiso   1.00
H990   H     0.39929   0.61046   0.35158   0.00000  Uiso   1.00
H991   H     0.43930   0.59383   0.64353   0.00000  Uiso   1.00
H992   H     0.42815   0.55898   0.36346   0.00000  Uiso   1.00
O993   O     0.45929   0.38222   0.42472   0.00000  Uiso   1.00
C994   C     0.41564   0.38201   0.42658   0.00000  Uiso   1.00
H995   H     0.40533   0.38936   0.46480   0.00000  Uiso   1.00
H996   H     0.40255   0.34900   0.41429   0.00000  Uiso   1.00
C997   C     0.39832   0.41794   0.39056   0.00000  Uiso   1.00
H998   H     0.40916   0.41146   0.35230   0.00000  Uiso   1.00
H999   H     0.36391   0.41733   0.38900   0.00000  Uiso   1.00
H1000  H     0.40899   0.45200   0.40284   0.00000  Uiso   1.00
O1001  O     0.54982   0.61841   0.56757   0.00000  Uiso   1.00
C1002  C     0.53821   0.62057   0.61789   0.00000  Uiso   1.00
H1003  H     0.50688   0.60612   0.62192   0.00000  Uiso   1.00
H1004  H     0.53801   0.65544   0.63289   0.00000  Uiso   1.00
C1005  C     0.56972   0.59367   0.64985   0.00000  Uiso   1.00
H1006  H     0.60088   0.60950   0.64813   0.00000  Uiso   1.00
H1007  H     0.56075   0.59303   0.35609   0.00000  Uiso   1.00
H1008  H     0.57160   0.55843   0.63588   0.00000  Uiso   1.00
O1009  O     0.77226   0.53821   0.50000   0.00000  Uiso   1.00
O1010  O     0.89441   0.46179   0.50000   0.00000  Uiso   1.00
O1011  O     0.89441   0.53821   0.50000   0.00000  Uiso   1.00
O1012  O     0.77226   0.46179   0.50000   0.00000  Uiso   1.00
C1013  C     0.75345   0.50023   0.50451   0.00000  Uiso   1.00
C1014  C     0.91321   0.50022   0.49544   0.00000  Uiso   1.00
O1015  O     0.83334   0.53821   0.42845   0.00000  Uiso   1.00
O1016  O     0.83333   0.46179   0.57155   0.00000  Uiso   1.00
O1017  O     0.83333   0.53821   0.57155   0.00000  Uiso   1.00
O1018  O     0.83334   0.46179   0.42845   0.00000  Uiso   1.00
C1019  C     0.83325   0.49998   0.40622   0.00000  Uiso   1.00
C1020  C     0.83338   0.49997   0.59378   0.00000  Uiso   1.00
Zn1021 Zn    0.83333   0.55104   0.50000   0.00000  Uiso   1.00
Zn1022 Zn    0.83333   0.44896   0.50000   0.00000  Uiso   1.00
C1023  C     0.83331   0.49987   0.35513   0.00000  Uiso   1.00
C1024  C     0.83329   0.49986   0.64487   0.00000  Uiso   1.00
C1025  C     0.68689   0.46029   0.51062   0.00000  Uiso   1.00
C1026  C     0.97879   0.54311   0.49489   0.00000  Uiso   1.00
C1027  C     0.97978   0.46027   0.48930   0.00000  Uiso   1.00
C1028  C     0.68782   0.54313   0.50473   0.00000  Uiso   1.00
C1029  C     0.95772   0.50137   0.49018   0.00000  Uiso   1.00
C1030  C     0.70893   0.50140   0.50964   0.00000  Uiso   1.00
C1031  C     0.85593   0.35770   0.53606   0.00000  Uiso   1.00
C1032  C     0.81076   0.64248   0.46377   0.00000  Uiso   1.00
C1033  C     0.81075   0.35772   0.46393   0.00000  Uiso   1.00
C1034  C     0.85595   0.64246   0.53619   0.00000  Uiso   1.00
N1035  N     0.83333   0.61907   0.50000   0.00000  Uiso   1.00
N1036  N     0.83333   0.38093   0.50000   0.00000  Uiso   1.00
N1037  N     0.70263   0.42293   0.54113   0.00000  Uiso   1.00
O1038  O     0.73153   0.43030   0.57572   0.00000  Uiso   1.00
O1039  O     0.68228   0.38514   0.54359   0.00000  Uiso   1.00
N1040  N     0.95789   0.58570   0.48745   0.00000  Uiso   1.00
O1041  O     0.93998   0.59513   0.44414   0.00000  Uiso   1.00
O1042  O     0.96057   0.61679   0.52187   0.00000  Uiso   1.00
N1043  N     0.96406   0.42285   0.45888   0.00000  Uiso   1.00
O1044  O     0.93510   0.43014   0.42433   0.00000  Uiso   1.00
O1045  O     0.98448   0.38509   0.45642   0.00000  Uiso   1.00
N1046  N     0.70869   0.58574   0.51196   0.00000  Uiso   1.00
O1047  O     0.72647   0.59541   0.55527   0.00000  Uiso   1.00
O1048  O     0.70602   0.61667   0.47736   0.00000  Uiso   1.00
O1049  O     0.87405   0.38216   0.57529   0.00000  Uiso   1.00
C1050  C     0.91770   0.38202   0.57335   0.00000  Uiso   1.00
H1051  H     0.92795   0.38941   0.53513   0.00000  Uiso   1.00
H1052  H     0.93087   0.34902   0.58559   0.00000  Uiso   1.00
C1053  C     0.93499   0.41795   0.60938   0.00000  Uiso   1.00
H1054  H     0.92421   0.41142   0.64765   0.00000  Uiso   1.00
H1055  H     0.96940   0.41739   0.61089   0.00000  Uiso   1.00
H1056  H     0.92425   0.45200   0.59714   0.00000  Uiso   1.00
O1057  O     0.78367   0.61844   0.43226   0.00000  Uiso   1.00
C1058  C     0.79538   0.62071   0.38198   0.00000  Uiso   1.00
H1059  H     0.82659   0.60589   0.37795   0.00000  Uiso   1.00
H1060  H     0.79597   0.65565   0.36717   0.00000  Uiso   1.00
C1061  C     0.76366   0.59431   0.34977   0.00000  Uiso   1.00
H1062  H     0.73262   0.61046   0.35158   0.00000  Uiso   1.00
H1063  H     0.77264   0.59383   0.64353   0.00000  Uiso   1.00
H1064  H     0.76149   0.55898   0.36346   0.00000  Uiso   1.00
O1065  O     0.79262   0.38222   0.42472   0.00000  Uiso   1.00
C1066  C     0.74897   0.38201   0.42658   0.00000  Uiso   1.00
H1067  H     0.73866   0.38936   0.46480   0.00000  Uiso   1.00
H1068  H     0.73588   0.34900   0.41429   0.00000  Uiso   1.00
C1069  C     0.73165   0.41794   0.39056   0.00000  Uiso   1.00
H1070  H     0.74249   0.41146   0.35230   0.00000  Uiso   1.00
H1071  H     0.69724   0.41733   0.38900   0.00000  Uiso   1.00
H1072  H     0.74232   0.45200   0.40284   0.00000  Uiso   1.00
O1073  O     0.88315   0.61841   0.56757   0.00000  Uiso   1.00
C1074  C     0.87154   0.62057   0.61789   0.00000  Uiso   1.00
H1075  H     0.84021   0.60612   0.62192   0.00000  Uiso   1.00
H1076  H     0.87134   0.65544   0.63289   0.00000  Uiso   1.00
C1077  C     0.90305   0.59367   0.64985   0.00000  Uiso   1.00
H1078  H     0.93422   0.60950   0.64813   0.00000  Uiso   1.00
H1079  H     0.89408   0.59303   0.35609   0.00000  Uiso   1.00
H1080  H     0.90493   0.55843   0.63588   0.00000  Uiso   1.00
O1081  O     0.10559   0.87154   0.50000   0.00000  Uiso   1.00
O1082  O     0.22774   0.79513   0.50000   0.00000  Uiso   1.00
O1083  O     0.22774   0.87154   0.50000   0.00000  Uiso   1.00
O1084  O     0.10559   0.79513   0.50000   0.00000  Uiso   1.00
C1085  C     0.08678   0.83357   0.50451   0.00000  Uiso   1.00
C1086  C     0.24654   0.83355   0.49544   0.00000  Uiso   1.00
O1087  O     0.16667   0.87155   0.42845   0.00000  Uiso   1.00
O1088  O     0.16666   0.79512   0.57155   0.00000  Uiso   1.00
O1089  O     0.16666   0.87155   0.57155   0.00000  Uiso   1.00
O1090  O     0.16667   0.79512   0.42845   0.00000  Uiso   1.00
C1091  C     0.16658   0.83331   0.40622   0.00000  Uiso   1.00
C1092  C     0.16671   0.83331   0.59378   0.00000  Uiso   1.00
Zn1093 Zn    0.16667   0.88437   0.50000   0.00000  Uiso   1.00
Zn1094 Zn    0.16667   0.78229   0.50000   0.00000  Uiso   1.00
C1095  C     0.16664   0.83320   0.35513   0.00000  Uiso   1.00
C1096  C     0.16662   0.83320   0.64487   0.00000  Uiso   1.00
C1097  C     0.02023   0.79363   0.51062   0.00000  Uiso   1.00
C1098  C     0.31213   0.87645   0.49489   0.00000  Uiso   1.00
C1099  C     0.31311   0.79360   0.48930   0.00000  Uiso   1.00
C1100  C     0.02116   0.87646   0.50473   0.00000  Uiso   1.00
C1101  C     0.29105   0.83471   0.49018   0.00000  Uiso   1.00
C1102  C     0.04226   0.83474   0.50964   0.00000  Uiso   1.00
C1103  C     0.18926   0.69103   0.53606   0.00000  Uiso   1.00
C1104  C     0.14409   0.97582   0.46377   0.00000  Uiso   1.00
C1105  C     0.14409   0.69106   0.46393   0.00000  Uiso   1.00
C1106  C     0.18928   0.97580   0.53619   0.00000  Uiso   1.00
N1107  N     0.16667   0.95240   0.50000   0.00000  Uiso   1.00
N1108  N     0.16667   0.71427   0.50000   0.00000  Uiso   1.00
N1109  N     0.03596   0.75626   0.54113   0.00000  Uiso   1.00
O1110  O     0.06486   0.76363   0.57572   0.00000  Uiso   1.00
O1111  O     0.01561   0.71847   0.54359   0.00000  Uiso   1.00
N1112  N     0.29123   0.91903   0.48745   0.00000  Uiso   1.00
O1113  O     0.27331   0.92847   0.44414   0.00000  Uiso   1.00
O1114  O     0.29391   0.95012   0.52187   0.00000  Uiso   1.00
N1115  N     0.29740   0.75619   0.45888   0.00000  Uiso   1.00
O1116  O     0.26843   0.76348   0.42433   0.00000  Uiso   1.00
O1117  O     0.31781   0.71842   0.45642   0.00000  Uiso   1.00
N1118  N     0.04202   0.91907   0.51196   0.00000  Uiso   1.00
O1119  O     0.05980   0.92874   0.55527   0.00000  Uiso   1.00
O1120  O     0.03936   0.95000   0.47736   0.00000  Uiso   1.00
O1121  O     0.20739   0.71549   0.57529   0.00000  Uiso   1.00
C1122  C     0.25103   0.71535   0.57335   0.00000  Uiso   1.00
H1123  H     0.26129   0.72274   0.53513   0.00000  Uiso   1.00
H1124  H     0.26421   0.68236   0.58559   0.00000  Uiso   1.00
C1125  C     0.26832   0.75129   0.60938   0.00000  Uiso   1.00
H1126  H     0.25754   0.74476   0.64765   0.00000  Uiso   1.00
H1127  H     0.30274   0.75073   0.61089   0.00000  Uiso   1.00
H1128  H     0.25758   0.78533   0.59714   0.00000  Uiso   1.00
O1129  O     0.11700   0.95178   0.43226   0.00000  Uiso   1.00
C1130  C     0.12872   0.95404   0.38198   0.00000  Uiso   1.00
H1131  H     0.15993   0.93923   0.37795   0.00000  Uiso   1.00
H1132  H     0.12931   0.98898   0.36717   0.00000  Uiso   1.00
C1133  C     0.09699   0.92764   0.34977   0.00000  Uiso   1.00
H1134  H     0.06595   0.94379   0.35158   0.00000  Uiso   1.00
H1135  H     0.10597   0.92716   0.64353   0.00000  Uiso   1.00
H1136  H     0.09482   0.89232   0.36346   0.00000  Uiso   1.00
O1137  O     0.12596   0.71555   0.42472   0.00000  Uiso   1.00
C1138  C     0.08231   0.71534   0.42658   0.00000  Uiso   1.00
H1139  H     0.07200   0.72269   0.46480   0.00000  Uiso   1.00
H1140  H     0.06921   0.68234   0.41429   0.00000  Uiso   1.00
C1141  C     0.06499   0.75128   0.39056   0.00000  Uiso   1.00
H1142  H     0.07583   0.74479   0.35230   0.00000  Uiso   1.00
H1143  H     0.03057   0.75066   0.38900   0.00000  Uiso   1.00
H1144  H     0.07565   0.78533   0.40284   0.00000  Uiso   1.00
O1145  O     0.21649   0.95175   0.56757   0.00000  Uiso   1.00
C1146  C     0.20487   0.95391   0.61789   0.00000  Uiso   1.00
H1147  H     0.17354   0.93945   0.62192   0.00000  Uiso   1.00
H1148  H     0.20467   0.98878   0.63289   0.00000  Uiso   1.00
C1149  C     0.23639   0.92700   0.64985   0.00000  Uiso   1.00
H1150  H     0.26755   0.94283   0.64813   0.00000  Uiso   1.00
H1151  H     0.22742   0.92637   0.35609   0.00000  Uiso   1.00
H1152  H     0.23826   0.89176   0.63588   0.00000  Uiso   1.00
O1153  O     0.43892   0.87154   0.50000   0.00000  Uiso   1.00
O1154  O     0.56108   0.79513   0.50000   0.00000  Uiso   1.00
O1155  O     0.56108   0.87154   0.50000   0.00000  Uiso   1.00
O1156  O     0.43892   0.79513   0.50000   0.00000  Uiso   1.00
C1157  C     0.42011   0.83357   0.50451   0.00000  Uiso   1.00
C1158  C     0.57988   0.83355   0.49544   0.00000  Uiso   1.00
O1159  O     0.50000   0.87155   0.42845   0.00000  Uiso   1.00
O1160  O     0.50000   0.79512   0.57155   0.00000  Uiso   1.00
O1161  O     0.50000   0.87155   0.57155   0.00000  Uiso   1.00
O1162  O     0.50000   0.79512   0.42845   0.00000  Uiso   1.00
C1163  C     0.49992   0.83331   0.40622   0.00000  Uiso   1.00
C1164  C     0.50005   0.83331   0.59378   0.00000  Uiso   1.00
Zn1165 Zn    0.50000   0.88437   0.50000   0.00000  Uiso   1.00
Zn1166 Zn    0.50000   0.78229   0.50000   0.00000  Uiso   1.00
C1167  C     0.49997   0.83320   0.35513   0.00000  Uiso   1.00
C1168  C     0.49995   0.83320   0.64487   0.00000  Uiso   1.00
C1169  C     0.35356   0.79363   0.51062   0.00000  Uiso   1.00
C1170  C     0.64546   0.87645   0.49489   0.00000  Uiso   1.00
C1171  C     0.64644   0.79360   0.48930   0.00000  Uiso   1.00
C1172  C     0.35449   0.87646   0.50473   0.00000  Uiso   1.00
C1173  C     0.62438   0.83471   0.49018   0.00000  Uiso   1.00
C1174  C     0.37559   0.83474   0.50964   0.00000  Uiso   1.00
C1175  C     0.52260   0.69103   0.53606   0.00000  Uiso   1.00
C1176  C     0.47743   0.97582   0.46377   0.00000  Uiso   1.00
C1177  C     0.47742   0.69106   0.46393   0.00000  Uiso   1.00
C1178  C     0.52262   0.97580   0.53619   0.00000  Uiso   1.00
N1179  N     0.50000   0.95240   0.50000   0.00000  Uiso   1.00
N1180  N     0.50000   0.71427   0.50000   0.00000  Uiso   1.00
N1181  N     0.36930   0.75626   0.54113   0.00000  Uiso   1.00
O1182  O     0.39820   0.76363   0.57572   0.00000  Uiso   1.00
O1183  O     0.34895   0.71847   0.54359   0.00000  Uiso   1.00
N1184  N     0.62456   0.91903   0.48745   0.00000  Uiso   1.00
O1185  O     0.60665   0.92847   0.44414   0.00000  Uiso   1.00
O1186  O     0.62724   0.95012   0.52187   0.00000  Uiso   1.00
N1187  N     0.63073   0.75619   0.45888   0.00000  Uiso   1.00
O1188  O     0.60177   0.76348   0.42433   0.00000  Uiso   1.00
O1189  O     0.65114   0.71842   0.45642   0.00000  Uiso   1.00
N1190  N     0.37535   0.91907   0.51196   0.00000  Uiso   1.00
O1191  O     0.39314   0.92874   0.55527   0.00000  Uiso   1.00
O1192  O     0.37269   0.95000   0.47736   0.00000  Uiso   1.00
O1193  O     0.54072   0.71549   0.57529   0.00000  Uiso   1.00
C1194  C     0.58437   0.71535   0.57335   0.00000  Uiso   1.00
H1195  H     0.59462   0.72274   0.53513   0.00000  Uiso   1.00
H1196  H     0.59754   0.68236   0.58559   0.00000  Uiso   1.00
C1197  C     0.60166   0.75129   0.60938   0.00000  Uiso   1.00
H1198  H     0.59087   0.74476   0.64765   0.00000  Uiso   1.00
H1199  H     0.63607   0.75073   0.61089   0.00000  Uiso   1.00
H1200  H     0.59092   0.78533   0.59714   0.00000  Uiso   1.00
O1201  O     0.45033   0.95178   0.43226   0.00000  Uiso   1.00
C1202  C     0.46205   0.95404   0.38198   0.00000  Uiso   1.00
H1203  H     0.49326   0.93923   0.37795   0.00000  Uiso   1.00
H1204  H     0.46264   0.98898   0.36717   0.00000  Uiso   1.00
C1205  C     0.43032   0.92764   0.34977   0.00000  Uiso   1.00
H1206  H     0.39929   0.94379   0.35158   0.00000  Uiso   1.00
H1207  H     0.43930   0.92716   0.64353   0.00000  Uiso   1.00
H1208  H     0.42815   0.89232   0.36346   0.00000  Uiso   1.00
O1209  O     0.45929   0.71555   0.42472   0.00000  Uiso   1.00
C1210  C     0.41564   0.71534   0.42658   0.00000  Uiso   1.00
H1211  H     0.40533   0.72269   0.46480   0.00000  Uiso   1.00
H1212  H     0.40255   0.68234   0.41429   0.00000  Uiso   1.00
C1213  C     0.39832   0.75128   0.39056   0.00000  Uiso   1.00
H1214  H     0.40916   0.74479   0.35230   0.00000  Uiso   1.00
H1215  H     0.36391   0.75066   0.38900   0.00000  Uiso   1.00
H1216  H     0.40899   0.78533   0.40284   0.00000  Uiso   1.00
O1217  O     0.54982   0.95175   0.56757   0.00000  Uiso   1.00
C1218  C     0.53821   0.95391   0.61789   0.00000  Uiso   1.00
H1219  H     0.50688   0.93945   0.62192   0.00000  Uiso   1.00
H1220  H     0.53801   0.98878   0.63289   0.00000  Uiso   1.00
C1221  C     0.56972   0.92700   0.64985   0.00000  Uiso   1.00
H1222  H     0.60088   0.94283   0.64813   0.00000  Uiso   1.00
H1223  H     0.56075   0.92637   0.35609   0.00000  Uiso   1.00
H1224  H     0.57160   0.89176   0.63588   0.00000  Uiso   1.00
O1225  O     0.77226   0.87154   0.50000   0.00000  Uiso   1.00
O1226  O     0.89441   0.79513   0.50000   0.00000  Uiso   1.00
O1227  O     0.89441   0.87154   0.50000   0.00000  Uiso   1.00
O1228  O     0.77226   0.79513   0.50000   0.00000  Uiso   1.00
C1229  C     0.75345   0.83357   0.50451   0.00000  Uiso   1.00
C1230  C     0.91321   0.83355   0.49544   0.00000  Uiso   1.00
O1231  O     0.83334   0.87155   0.42845   0.00000  Uiso   1.00
O1232  O     0.83333   0.79512   0.57155   0.00000  Uiso   1.00
O1233  O     0.83333   0.87155   0.57155   0.00000  Uiso   1.00
O1234  O     0.83334   0.79512   0.42845   0.00000  Uiso   1.00
C1235  C     0.83325   0.83331   0.40622   0.00000  Uiso   1.00
C1236  C     0.83338   0.83331   0.59378   0.00000  Uiso   1.00
Zn1237 Zn    0.83333   0.88437   0.50000   0.00000  Uiso   1.00
Zn1238 Zn    0.83333   0.78229   0.50000   0.00000  Uiso   1.00
C1239  C     0.83331   0.83320   0.35513   0.00000  Uiso   1.00
C1240  C     0.83329   0.83320   0.64487   0.00000  Uiso   1.00
C1241  C     0.68689   0.79363   0.51062   0.00000  Uiso   1.00
C1242  C     0.97879   0.87645   0.49489   0.00000  Uiso   1.00
C1243  C     0.97978   0.79360   0.48930   0.00000  Uiso   1.00
C1244  C     0.68782   0.87646   0.50473   0.00000  Uiso   1.00
C1245  C     0.95772   0.83471   0.49018   0.00000  Uiso   1.00
C1246  C     0.70893   0.83474   0.50964   0.00000  Uiso   1.00
C1247  C     0.85593   0.69103   0.53606   0.00000  Uiso   1.00
C1248  C     0.81076   0.97582   0.46377   0.00000  Uiso   1.00
C1249  C     0.81075   0.69106   0.46393   0.00000  Uiso   1.00
C1250  C     0.85595   0.97580   0.53619   0.00000  Uiso   1.00
N1251  N     0.83333   0.95240   0.50000   0.00000  Uiso   1.00
N1252  N     0.83333   0.71427   0.50000   0.00000  Uiso   1.00
N1253  N     0.70263   0.75626   0.54113   0.00000  Uiso   1.00
O1254  O     0.73153   0.76363   0.57572   0.00000  Uiso   1.00
O1255  O     0.68228   0.71847   0.54359   0.00000  Uiso   1.00
N1256  N     0.95789   0.91903   0.48745   0.00000  Uiso   1.00
O1257  O     0.93998   0.92847   0.44414   0.00000  Uiso   1.00
O1258  O     0.96057   0.95012   0.52187   0.00000  Uiso   1.00
N1259  N     0.96406   0.75619   0.45888   0.00000  Uiso   1.00
O1260  O     0.93510   0.76348   0.42433   0.00000  Uiso   1.00
O1261  O     0.98448   0.71842   0.45642   0.00000  Uiso   1.00
N1262  N     0.70869   0.91907   0.51196   0.00000  Uiso   1.00
O1263  O     0.72647   0.92874   0.55527   0.00000  Uiso   1.00
O1264  O     0.70602   0.95000   0.47736   0.00000  Uiso   1.00
O1265  O     0.87405   0.71549   0.57529   0.00000  Uiso   1.00
C1266  C     0.91770   0.71535   0.57335   0.00000  Uiso   1.00
H1267  H     0.92795   0.72274   0.53513   0.00000  Uiso   1.00
H1268  H     0.93087   0.68236   0.58559   0.00000  Uiso   1.00
C1269  C     0.93499   0.75129   0.60938   0.00000  Uiso   1.00
H1270  H     0.92421   0.74476   0.64765   0.00000  Uiso   1.00
H1271  H     0.96940   0.75073   0.61089   0.00000  Uiso   1.00
H1272  H     0.92425   0.78533   0.59714   0.00000  Uiso   1.00
O1273  O     0.78367   0.95178   0.43226   0.00000  Uiso   1.00
C1274  C     0.79538   0.95404   0.38198   0.00000  Uiso   1.00
H1275  H     0.82659   0.93923   0.37795   0.00000  Uiso   1.00
H1276  H     0.79597   0.98898   0.36717   0.00000  Uiso   1.00
C1277  C     0.76366   0.92764   0.34977   0.00000  Uiso   1.00
H1278  H     0.73262   0.94379   0.35158   0.00000  Uiso   1.00
H1279  H     0.77264   0.92716   0.64353   0.00000  Uiso   1.00
H1280  H     0.76149   0.89232   0.36346   0.00000  Uiso   1.00
O1281  O     0.79262   0.71555   0.42472   0.00000  Uiso   1.00
C1282  C     0.74897   0.71534   0.42658   0.00000  Uiso   1.00
H1283  H     0.73866   0.72269   0.46480   0.00000  Uiso   1.00
H1284  H     0.73588   0.68234   0.41429   0.00000  Uiso   1.00
C1285  C     0.73165   0.75128   0.39056   0.00000  Uiso   1.00
H1286  H     0.74249   0.74479   0.35230   0.00000  Uiso   1.00
H1287  H     0.69724   0.75066   0.38900   0.00000  Uiso   1.00
H1288  H     0.74232   0.78533   0.40284   0.00000  Uiso   1.00
O1289  O     0.88315   0.95175   0.56757   0.00000  Uiso   1.00
C1290  C     0.87154   0.95391   0.61789   0.00000  Uiso   1.00
H1291  H     0.84021   0.93945   0.62192   0.00000  Uiso   1.00
H1292  H     0.87134   0.98878   0.63289   0.00000  Uiso   1.00
C1293  C     0.90305   0.92700   0.64985   0.00000  Uiso   1.00
H1294  H     0.93422   0.94283   0.64813   0.00000  Uiso   1.00
H1295  H     0.89408   0.92637   0.35609   0.00000  Uiso   1.00
H1296  H     0.90493   0.89176   0.63588   0.00000  Uiso   1.00
O1297  O     0.10559   0.20487   0.83333   0.00000  Uiso   1.00
O1298  O     0.22774   0.12846   0.83334   0.00000  Uiso   1.00
O1299  O     0.22774   0.20487   0.83334   0.00000  Uiso   1.00
O1300  O     0.10559   0.12846   0.83333   0.00000  Uiso   1.00
C1301  C     0.08678   0.16690   0.83784   0.00000  Uiso   1.00
C1302  C     0.24654   0.16689   0.82877   0.00000  Uiso   1.00
O1303  O     0.16667   0.20488   0.76178   0.00000  Uiso   1.00
O1304  O     0.16666   0.12845   0.90489   0.00000  Uiso   1.00
O1305  O     0.16666   0.20488   0.90489   0.00000  Uiso   1.00
O1306  O     0.16667   0.12845   0.76178   0.00000  Uiso   1.00
C1307  C     0.16658   0.16664   0.73955   0.00000  Uiso   1.00
C1308  C     0.16671   0.16664   0.92711   0.00000  Uiso   1.00
Zn1309 Zn    0.16667   0.21771   0.83333   0.00000  Uiso   1.00
Zn1310 Zn    0.16667   0.11563   0.83333   0.00000  Uiso   1.00
C1311  C     0.16664   0.16653   0.68846   0.00000  Uiso   1.00
C1312  C     0.16662   0.16653   0.97820   0.00000  Uiso   1.00
C1313  C     0.02023   0.12696   0.84395   0.00000  Uiso   1.00
C1314  C     0.31213   0.20978   0.82822   0.00000  Uiso   1.00
C1315  C     0.31311   0.12694   0.82263   0.00000  Uiso   1.00
C1316  C     0.02116   0.20980   0.83806   0.00000  Uiso   1.00
C1317  C     0.29105   0.16804   0.82351   0.00000  Uiso   1.00
C1318  C     0.04226   0.16807   0.84298   0.00000  Uiso   1.00
C1319  C     0.18926   0.02436   0.86939   0.00000  Uiso   1.00
C1320  C     0.14409   0.30915   0.79711   0.00000  Uiso   1.00
C1321  C     0.14409   0.02439   0.79726   0.00000  Uiso   1.00
C1322  C     0.18928   0.30913   0.86952   0.00000  Uiso   1.00
N1323  N     0.16667   0.28573   0.83333   0.00000  Uiso   1.00
N1324  N     0.16667   0.04760   0.83333   0.00000  Uiso   1.00
N1325  N     0.03596   0.08960   0.87446   0.00000  Uiso   1.00
O1326  O     0.06486   0.09696   0.90905   0.00000  Uiso   1.00
O1327  O     0.01561   0.05180   0.87693   0.00000  Uiso   1.00
N1328  N     0.29123   0.25236   0.82079   0.00000  Uiso   1.00
O1329  O     0.27331   0.26180   0.77748   0.00000  Uiso   1.00
O1330  O     0.29391   0.28346   0.85520   0.00000  Uiso   1.00
N1331  N     0.29740   0.08952   0.79221   0.00000  Uiso   1.00
O1332  O     0.26843   0.09681   0.75766   0.00000  Uiso   1.00
O1333  O     0.31781   0.05175   0.78975   0.00000  Uiso   1.00
N1334  N     0.04202   0.25241   0.84529   0.00000  Uiso   1.00
O1335  O     0.05980   0.26207   0.88861   0.00000  Uiso   1.00
O1336  O     0.03936   0.28334   0.81069   0.00000  Uiso   1.00
O1337  O     0.20739   0.04882   0.90862   0.00000  Uiso   1.00
C1338  C     0.25103   0.04869   0.90668   0.00000  Uiso   1.00
H1339  H     0.26129   0.05608   0.86846   0.00000  Uiso   1.00
H1340  H     0.26421   0.01569   0.91892   0.00000  Uiso   1.00
C1341  C     0.26832   0.08462   0.94271   0.00000  Uiso   1.00
H1342  H     0.25754   0.07809   0.98098   0.00000  Uiso   1.00
H1343  H     0.30274   0.08406   0.94422   0.00000  Uiso   1.00
H1344  H     0.25758   0.11867   0.93048   0.00000  Uiso   1.00
O1345  O     0.11700   0.28511   0.76559   0.00000  Uiso   1.00
C1346  C     0.12872   0.28737   0.71531   0.00000  Uiso   1.00
H1347  H     0.15993   0.27256   0.71129   0.00000  Uiso   1.00
H1348  H     0.12931   0.32231   0.70050   0.00000  Uiso   1.00
C1349  C     0.09699   0.26097   0.68311   0.00000  Uiso   1.00
H1350  H     0.06595   0.27712   0.68492   0.00000  Uiso   1.00
H1351  H     0.10597   0.26050   0.97687   0.00000  Uiso   1.00
H1352  H     0.09482   0.22565   0.69679   0.00000  Uiso   1.00
O1353  O     0.12596   0.04889   0.75805   0.00000  Uiso   1.00
C1354  C     0.08231   0.04868   0.75992   0.00000  Uiso   1.00
H1355  H     0.07200   0.05602   0.79813   0.00000  Uiso   1.00
H1356  H     0.06921   0.01567   0.74762   0.00000  Uiso   1.00
C1357  C     0.06499   0.08461   0.72389   0.00000  Uiso   1.00
H1358  H     0.07583   0.07812   0.68563   0.00000  Uiso   1.00
H1359  H     0.03057   0.08400   0.72233   0.00000  Uiso   1.00
H1360  H     0.07565   0.11866   0.73617   0.00000  Uiso   1.00
O1361  O     0.21649   0.28508   0.90091   0.00000  Uiso   1.00
C1362  C     0.20487   0.28724   0.95122   0.00000  Uiso   1.00
H1363  H     0.17354   0.27278   0.95525   0.00000  Uiso   1.00
H1364  H     0.20467   0.32211   0.96622   0.00000  Uiso   1.00
C1365  C     0.23639   0.26034   0.98318   0.00000  Uiso   1.00
H1366  H     0.26755   0.27616   0.98146   0.00000  Uiso   1.00
H1367  H     0.22742   0.25970   0.68942   0.00000  Uiso   1.00
H1368  H     0.23826   0.22510   0.96922   0.00000  Uiso   1.00
O1369  O     0.43892   0.20487   0.83333   0.00000  Uiso   1.00
O1370  O     0.56108   0.12846   0.83334   0.00000  Uiso   1.00
O1371  O     0.56108   0.20487   0.83334   0.00000  Uiso   1.00
O1372  O     0.43892   0.12846   0.83333   0.00000  Uiso   1.00
C1373  C     0.42011   0.16690   0.83784   0.00000  Uiso   1.00
C1374  C     0.57988   0.16689   0.82877   0.00000  Uiso   1.00
O1375  O     0.50000   0.20488   0.76178   0.00000  Uiso   1.00
O1376  O     0.50000   0.12845   0.90489   0.00000  Uiso   1.00
O1377  O     0.50000   0.20488   0.90489   0.00000  Uiso   1.00
O1378  O     0.50000   0.12845   0.76178   0.00000  Uiso   1.00
C1379  C     0.49992   0.16664   0.73955   0.00000  Uiso   1.00
C1380  C     0.50005   0.16664   0.92711   0.00000  Uiso   1.00
Zn1381 Zn    0.50000   0.21771   0.83333   0.00000  Uiso   1.00
Zn1382 Zn    0.50000   0.11563   0.83333   0.00000  Uiso   1.00
C1383  C     0.49997   0.16653   0.68846   0.00000  Uiso   1.00
C1384  C     0.49995   0.16653   0.97820   0.00000  Uiso   1.00
C1385  C     0.35356   0.12696   0.84395   0.00000  Uiso   1.00
C1386  C     0.64546   0.20978   0.82822   0.00000  Uiso   1.00
C1387  C     0.64644   0.12694   0.82263   0.00000  Uiso   1.00
C1388  C     0.35449   0.20980   0.83806   0.00000  Uiso   1.00
C1389  C     0.62438   0.16804   0.82351   0.00000  Uiso   1.00
C1390  C     0.37559   0.16807   0.84298   0.00000  Uiso   1.00
C1391  C     0.52260   0.02436   0.86939   0.00000  Uiso   1.00
C1392  C     0.47743   0.30915   0.79711   0.00000  Uiso   1.00
C1393  C     0.47742   0.02439   0.79726   0.00000  Uiso   1.00
C1394  C     0.52262   0.30913   0.86952   0.00000  Uiso   1.00
N1395  N     0.50000   0.28573   0.83333   0.00000  Uiso   1.00
N1396  N     0.50000   0.04760   0.83333   0.00000  Uiso   1.00
N1397  N     0.36930   0.08960   0.87446   0.00000  Uiso   1.00
O1398  O     0.39820   0.09696   0.90905   0.00000  Uiso   1.00
O1399  O     0.34895   0.05180   0.87693   0.00000  Uiso   1.00
N1400  N     0.62456   0.25236   0.82079   0.00000  Uiso   1.00
O1401  O     0.60665   0.26180   0.77748   0.00000  Uiso   1.00
O1402  O     0.62724   0.28346   0.85520   0.00000  Uiso   1.00
N1403  N     0.63073   0.08952   0.79221   0.00000  Uiso   1.00
O1404  O     0.60177   0.09681   0.75766   0.00000  Uiso   1.00
O1405  O     0.65114   0.05175   0.78975   0.00000  Uiso   1.00
N1406  N     0.37535   0.25241   0.84529   0.00000  Uiso   1.00
O1407  O     0.39314   0.26207   0.88861   0.00000  Uiso   1.00
O1408  O     0.37269   0.28334   0.81069   0.00000  Uiso   1.00
O1409  O     0.54072   0.04882   0.90862   0.00000  Uiso   1.00
C1410  C     0.58437   0.04869   0.90668   0.00000  Uiso   1.00
H1411  H     0.59462   0.05608   0.86846   0.00000  Uiso   1.00
H1412  H     0.59754   0.01569   0.91892   0.00000  Uiso   1.00
C1413  C     0.60166   0.08462   0.94271   0.00000  Uiso   1.00
H1414  H     0.59087   0.07809   0.98098   0.00000  Uiso   1.00
H1415  H     0.63607   0.08406   0.94422   0.00000  Uiso   1.00
H1416  H     0.59092   0.11867   0.93048   0.00000  Uiso   1.00
O1417  O     0.45033   0.28511   0.76559   0.00000  Uiso   1.00
C1418  C     0.46205   0.28737   0.71531   0.00000  Uiso   1.00
H1419  H     0.49326   0.27256   0.71129   0.00000  Uiso   1.00
H1420  H     0.46264   0.32231   0.70050   0.00000  Uiso   1.00
C1421  C     0.43032   0.26097   0.68311   0.00000  Uiso   1.00
H1422  H     0.39929   0.27712   0.68492   0.00000  Uiso   1.00
H1423  H     0.43930   0.26050   0.97687   0.00000  Uiso   1.00
H1424  H     0.42815   0.22565   0.69679   0.00000  Uiso   1.00
O1425  O     0.45929   0.04889   0.75805   0.00000  Uiso   1.00
C1426  C     0.41564   0.04868   0.75992   0.00000  Uiso   1.00
H1427  H     0.40533   0.05602   0.79813   0.00000  Uiso   1.00
H1428  H     0.40255   0.01567   0.74762   0.00000  Uiso   1.00
C1429  C     0.39832   0.08461   0.72389   0.00000  Uiso   1.00
H1430  H     0.40916   0.07812   0.68563   0.00000  Uiso   1.00
H1431  H     0.36391   0.08400   0.72233   0.00000  Uiso   1.00
H1432  H     0.40899   0.11866   0.73617   0.00000  Uiso   1.00
O1433  O     0.54982   0.28508   0.90091   0.00000  Uiso   1.00
C1434  C     0.53821   0.28724   0.95122   0.00000  Uiso   1.00
H1435  H     0.50688   0.27278   0.95525   0.00000  Uiso   1.00
H1436  H     0.53801   0.32211   0.96622   0.00000  Uiso   1.00
C1437  C     0.56972   0.26034   0.98318   0.00000  Uiso   1.00
H1438  H     0.60088   0.27616   0.98146   0.00000  Uiso   1.00
H1439  H     0.56075   0.25970   0.68942   0.00000  Uiso   1.00
H1440  H     0.57160   0.22510   0.96922   0.00000  Uiso   1.00
O1441  O     0.77226   0.20487   0.83333   0.00000  Uiso   1.00
O1442  O     0.89441   0.12846   0.83334   0.00000  Uiso   1.00
O1443  O     0.89441   0.20487   0.83334   0.00000  Uiso   1.00
O1444  O     0.77226   0.12846   0.83333   0.00000  Uiso   1.00
C1445  C     0.75345   0.16690   0.83784   0.00000  Uiso   1.00
C1446  C     0.91321   0.16689   0.82877   0.00000  Uiso   1.00
O1447  O     0.83334   0.20488   0.76178   0.00000  Uiso   1.00
O1448  O     0.83333   0.12845   0.90489   0.00000  Uiso   1.00
O1449  O     0.83333   0.20488   0.90489   0.00000  Uiso   1.00
O1450  O     0.83334   0.12845   0.76178   0.00000  Uiso   1.00
C1451  C     0.83325   0.16664   0.73955   0.00000  Uiso   1.00
C1452  C     0.83338   0.16664   0.92711   0.00000  Uiso   1.00
Zn1453 Zn    0.83333   0.21771   0.83333   0.00000  Uiso   1.00
Zn1454 Zn    0.83333   0.11563   0.83333   0.00000  Uiso   1.00
C1455  C     0.83331   0.16653   0.68846   0.00000  Uiso   1.00
C1456  C     0.83329   0.16653   0.97820   0.00000  Uiso   1.00
C1457  C     0.68689   0.12696   0.84395   0.00000  Uiso   1.00
C1458  C     0.97879   0.20978   0.82822   0.00000  Uiso   1.00
C1459  C     0.97978   0.12694   0.82263   0.00000  Uiso   1.00
C1460  C     0.68782   0.20980   0.83806   0.00000  Uiso   1.00
C1461  C     0.95772   0.16804   0.82351   0.00000  Uiso   1.00
C1462  C     0.70893   0.16807   0.84298   0.00000  Uiso   1.00
C1463  C     0.85593   0.02436   0.86939   0.00000  Uiso   1.00
C1464  C     0.81076   0.30915   0.79711   0.00000  Uiso   1.00
C1465  C     0.81075   0.02439   0.79726   0.00000  Uiso   1.00
C1466  C     0.85595   0.30913   0.86952   0.00000  Uiso   1.00
N1467  N     0.83333   0.28573   0.83333   0.00000  Uiso   1.00
N1468  N     0.83333   0.04760   0.83333   0.00000  Uiso   1.00
N1469  N     0.70263   0.08960   0.87446   0.00000  Uiso   1.00
O1470  O     0.73153   0.09696   0.90905   0.00000  Uiso   1.00
O1471  O     0.68228   0.05180   0.87693   0.00000  Uiso   1.00
N1472  N     0.95789   0.25236   0.82079   0.00000  Uiso   1.00
O1473  O     0.93998   0.26180   0.77748   0.00000  Uiso   1.00
O1474  O     0.96057   0.28346   0.85520   0.00000  Uiso   1.00
N1475  N     0.96406   0.08952   0.79221   0.00000  Uiso   1.00
O1476  O     0.93510   0.09681   0.75766   0.00000  Uiso   1.00
O1477  O     0.98448   0.05175   0.78975   0.00000  Uiso   1.00
N1478  N     0.70869   0.25241   0.84529   0.00000  Uiso   1.00
O1479  O     0.72647   0.26207   0.88861   0.00000  Uiso   1.00
O1480  O     0.70602   0.28334   0.81069   0.00000  Uiso   1.00
O1481  O     0.87405   0.04882   0.90862   0.00000  Uiso   1.00
C1482  C     0.91770   0.04869   0.90668   0.00000  Uiso   1.00
H1483  H     0.92795   0.05608   0.86846   0.00000  Uiso   1.00
H1484  H     0.93087   0.01569   0.91892   0.00000  Uiso   1.00
C1485  C     0.93499   0.08462   0.94271   0.00000  Uiso   1.00
H1486  H     0.92421   0.07809   0.98098   0.00000  Uiso   1.00
H1487  H     0.96940   0.08406   0.94422   0.00000  Uiso   1.00
H1488  H     0.92425   0.11867   0.93048   0.00000  Uiso   1.00
O1489  O     0.78367   0.28511   0.76559   0.00000  Uiso   1.00
C1490  C     0.79538   0.28737   0.71531   0.00000  Uiso   1.00
H1491  H     0.82659   0.27256   0.71129   0.00000  Uiso   1.00
H1492  H     0.79597   0.32231   0.70050   0.00000  Uiso   1.00
C1493  C     0.76366   0.26097   0.68311   0.00000  Uiso   1.00
H1494  H     0.73262   0.27712   0.68492   0.00000  Uiso   1.00
H1495  H     0.77264   0.26050   0.97687   0.00000  Uiso   1.00
H1496  H     0.76149   0.22565   0.69679   0.00000  Uiso   1.00
O1497  O     0.79262   0.04889   0.75805   0.00000  Uiso   1.00
C1498  C     0.74897   0.04868   0.75992   0.00000  Uiso   1.00
H1499  H     0.73866   0.05602   0.79813   0.00000  Uiso   1.00
H1500  H     0.73588   0.01567   0.74762   0.00000  Uiso   1.00
C1501  C     0.73165   0.08461   0.72389   0.00000  Uiso   1.00
H1502  H     0.74249   0.07812   0.68563   0.00000  Uiso   1.00
H1503  H     0.69724   0.08400   0.72233   0.00000  Uiso   1.00
H1504  H     0.74232   0.11866   0.73617   0.00000  Uiso   1.00
O1505  O     0.88315   0.28508   0.90091   0.00000  Uiso   1.00
C1506  C     0.87154   0.28724   0.95122   0.00000  Uiso   1.00
H1507  H     0.84021   0.27278   0.95525   0.00000  Uiso   1.00
H1508  H     0.87134   0.32211   0.96622   0.00000  Uiso   1.00
C1509  C     0.90305   0.26034   0.98318   0.00000  Uiso   1.00
H1510  H     0.93422   0.27616   0.98146   0.00000  Uiso   1.00
H1511  H     0.89408   0.25970   0.68942   0.00000  Uiso   1.00
H1512  H     0.90493   0.22510   0.96922   0.00000  Uiso   1.00
O1513  O     0.10559   0.53821   0.83333   0.00000  Uiso   1.00
O1514  O     0.22774   0.46179   0.83334   0.00000  Uiso   1.00
O1515  O     0.22774   0.53821   0.83334   0.00000  Uiso   1.00
O1516  O     0.10559   0.46179   0.83333   0.00000  Uiso   1.00
C1517  C     0.08678   0.50023   0.83784   0.00000  Uiso   1.00
C1518  C     0.24654   0.50022   0.82877   0.00000  Uiso   1.00
O1519  O     0.16667   0.53821   0.76178   0.00000  Uiso   1.00
O1520  O     0.16666   0.46179   0.90489   0.00000  Uiso   1.00
O1521  O     0.16666   0.53821   0.90489   0.00000  Uiso   1.00
O1522  O     0.16667   0.46179   0.76178   0.00000  Uiso   1.00
C1523  C     0.16658   0.49998   0.73955   0.00000  Uiso   1.00
C1524  C     0.16671   0.49997   0.92711   0.00000  Uiso   1.00
Zn1525 Zn    0.16667   0.55104   0.83333   0.00000  Uiso   1.00
Zn1526 Zn    0.16667   0.44896   0.83333   0.00000  Uiso   1.00
C1527  C     0.16664   0.49987   0.68846   0.00000  Uiso   1.00
C1528  C     0.16662   0.49986   0.97820   0.00000  Uiso   1.00
C1529  C     0.02023   0.46029   0.84395   0.00000  Uiso   1.00
C1530  C     0.31213   0.54311   0.82822   0.00000  Uiso   1.00
C1531  C     0.31311   0.46027   0.82263   0.00000  Uiso   1.00
C1532  C     0.02116   0.54313   0.83806   0.00000  Uiso   1.00
C1533  C     0.29105   0.50137   0.82351   0.00000  Uiso   1.00
C1534  C     0.04226   0.50140   0.84298   0.00000  Uiso   1.00
C1535  C     0.18926   0.35770   0.86939   0.00000  Uiso   1.00
C1536  C     0.14409   0.64248   0.79711   0.00000  Uiso   1.00
C1537  C     0.14409   0.35772   0.79726   0.00000  Uiso   1.00
C1538  C     0.18928   0.64246   0.86952   0.00000  Uiso   1.00
N1539  N     0.16667   0.61907   0.83333   0.00000  Uiso   1.00
N1540  N     0.16667   0.38093   0.83333   0.00000  Uiso   1.00
N1541  N     0.03596   0.42293   0.87446   0.00000  Uiso   1.00
O1542  O     0.06486   0.43030   0.90905   0.00000  Uiso   1.00
O1543  O     0.01561   0.38514   0.87693   0.00000  Uiso   1.00
N1544  N     0.29123   0.58570   0.82079   0.00000  Uiso   1.00
O1545  O     0.27331   0.59513   0.77748   0.00000  Uiso   1.00
O1546  O     0.29391   0.61679   0.85520   0.00000  Uiso   1.00
N1547  N     0.29740   0.42285   0.79221   0.00000  Uiso   1.00
O1548  O     0.26843   0.43014   0.75766   0.00000  Uiso   1.00
O1549  O     0.31781   0.38509   0.78975   0.00000  Uiso   1.00
N1550  N     0.04202   0.58574   0.84529   0.00000  Uiso   1.00
O1551  O     0.05980   0.59541   0.88861   0.00000  Uiso   1.00
O1552  O     0.03936   0.61667   0.81069   0.00000  Uiso   1.00
O1553  O     0.20739   0.38216   0.90862   0.00000  Uiso   1.00
C1554  C     0.25103   0.38202   0.90668   0.00000  Uiso   1.00
H1555  H     0.26129   0.38941   0.86846   0.00000  Uiso   1.00
H1556  H     0.26421   0.34902   0.91892   0.00000  Uiso   1.00
C1557  C     0.26832   0.41795   0.94271   0.00000  Uiso   1.00
H1558  H     0.25754   0.41142   0.98098   0.00000  Uiso   1.00
H1559  H     0.30274   0.41739   0.94422   0.00000  Uiso   1.00
H1560  H     0.25758   0.45200   0.93048   0.00000  Uiso   1.00
O1561  O     0.11700   0.61844   0.76559   0.00000  Uiso   1.00
C1562  C     0.12872   0.62071   0.71531   0.00000  Uiso   1.00
H1563  H     0.15993   0.60589   0.71129   0.00000  Uiso   1.00
H1564  H     0.12931   0.65565   0.70050   0.00000  Uiso   1.00
C1565  C     0.09699   0.59431   0.68311   0.00000  Uiso   1.00
H1566  H     0.06595   0.61046   0.68492   0.00000  Uiso   1.00
H1567  H     0.10597   0.59383   0.97687   0.00000  Uiso   1.00
H1568  H     0.09482   0.55898   0.69679   0.00000  Uiso   1.00
O1569  O     0.12596   0.38222   0.75805   0.00000  Uiso   1.00
C1570  C     0.08231   0.38201   0.75992   0.00000  Uiso   1.00
H1571  H     0.07200   0.38936   0.79813   0.00000  Uiso   1.00
H1572  H     0.06921   0.34900   0.74762   0.00000  Uiso   1.00
C1573  C     0.06499   0.41794   0.72389   0.00000  Uiso   1.00
H1574  H     0.07583   0.41146   0.68563   0.00000  Uiso   1.00
H1575  H     0.03057   0.41733   0.72233   0.00000  Uiso   1.00
H1576  H     0.07565   0.45200   0.73617   0.00000  Uiso   1.00
O1577  O     0.21649   0.61841   0.90091   0.00000  Uiso   1.00
C1578  C     0.20487   0.62057   0.95122   0.00000  Uiso   1.00
H1579  H     0.17354   0.60612   0.95525   0.00000  Uiso   1.00
H1580  H     0.20467   0.65544   0.96622   0.00000  Uiso   1.00
C1581  C     0.23639   0.59367   0.98318   0.00000  Uiso   1.00
H1582  H     0.26755   0.60950   0.98146   0.00000  Uiso   1.00
H1583  H     0.22742   0.59303   0.68942   0.00000  Uiso   1.00
H1584  H     0.23826   0.55843   0.96922   0.00000  Uiso   1.00
O1585  O     0.43892   0.53821   0.83333   0.00000  Uiso   1.00
O1586  O     0.56108   0.46179   0.83334   0.00000  Uiso   1.00
O1587  O     0.56108   0.53821   0.83334   0.00000  Uiso   1.00
O1588  O     0.43892   0.46179   0.83333   0.00000  Uiso   1.00
C1589  C     0.42011   0.50023   0.83784   0.00000  Uiso   1.00
C1590  C     0.57988   0.50022   0.82877   0.00000  Uiso   1.00
O1591  O     0.50000   0.53821   0.76178   0.00000  Uiso   1.00
O1592  O     0.50000   0.46179   0.90489   0.00000  Uiso   1.00
O1593  O     0.50000   0.53821   0.90489   0.00000  Uiso   1.00
O1594  O     0.50000   0.46179   0.76178   0.00000  Uiso   1.00
C1595  C     0.49992   0.49998   0.73955   0.00000  Uiso   1.00
C1596  C     0.50005   0.49997   0.92711   0.00000  Uiso   1.00
Zn1597 Zn    0.50000   0.55104   0.83333   0.00000  Uiso   1.00
Zn1598 Zn    0.50000   0.44896   0.83333   0.00000  Uiso   1.00
C1599  C     0.49997   0.49987   0.68846   0.00000  Uiso   1.00
C1600  C     0.49995   0.49986   0.97820   0.00000  Uiso   1.00
C1601  C     0.35356   0.46029   0.84395   0.00000  Uiso   1.00
C1602  C     0.64546   0.54311   0.82822   0.00000  Uiso   1.00
C1603  C     0.64644   0.46027   0.82263   0.00000  Uiso   1.00
C1604  C     0.35449   0.54313   0.83806   0.00000  Uiso   1.00
C1605  C     0.62438   0.50137   0.82351   0.00000  Uiso   1.00
C1606  C     0.37559   0.50140   0.84298   0.00000  Uiso   1.00
C1607  C     0.52260   0.35770   0.86939   0.00000  Uiso   1.00
C1608  C     0.47743   0.64248   0.79711   0.00000  Uiso   1.00
C1609  C     0.47742   0.35772   0.79726   0.00000  Uiso   1.00
C1610  C     0.52262   0.64246   0.86952   0.00000  Uiso   1.00
N1611  N     0.50000   0.61907   0.83333   0.00000  Uiso   1.00
N1612  N     0.50000   0.38093   0.83333   0.00000  Uiso   1.00
N1613  N     0.36930   0.42293   0.87446   0.00000  Uiso   1.00
O1614  O     0.39820   0.43030   0.90905   0.00000  Uiso   1.00
O1615  O     0.34895   0.38514   0.87693   0.00000  Uiso   1.00
N1616  N     0.62456   0.58570   0.82079   0.00000  Uiso   1.00
O1617  O     0.60665   0.59513   0.77748   0.00000  Uiso   1.00
O1618  O     0.62724   0.61679   0.85520   0.00000  Uiso   1.00
N1619  N     0.63073   0.42285   0.79221   0.00000  Uiso   1.00
O1620  O     0.60177   0.43014   0.75766   0.00000  Uiso   1.00
O1621  O     0.65114   0.38509   0.78975   0.00000  Uiso   1.00
N1622  N     0.37535   0.58574   0.84529   0.00000  Uiso   1.00
O1623  O     0.39314   0.59541   0.88861   0.00000  Uiso   1.00
O1624  O     0.37269   0.61667   0.81069   0.00000  Uiso   1.00
O1625  O     0.54072   0.38216   0.90862   0.00000  Uiso   1.00
C1626  C     0.58437   0.38202   0.90668   0.00000  Uiso   1.00
H1627  H     0.59462   0.38941   0.86846   0.00000  Uiso   1.00
H1628  H     0.59754   0.34902   0.91892   0.00000  Uiso   1.00
C1629  C     0.60166   0.41795   0.94271   0.00000  Uiso   1.00
H1630  H     0.59087   0.41142   0.98098   0.00000  Uiso   1.00
H1631  H     0.63607   0.41739   0.94422   0.00000  Uiso   1.00
H1632  H     0.59092   0.45200   0.93048   0.00000  Uiso   1.00
O1633  O     0.45033   0.61844   0.76559   0.00000  Uiso   1.00
C1634  C     0.46205   0.62071   0.71531   0.00000  Uiso   1.00
H1635  H     0.49326   0.60589   0.71129   0.00000  Uiso   1.00
H1636  H     0.46264   0.65565   0.70050   0.00000  Uiso   1.00
C1637  C     0.43032   0.59431   0.68311   0.00000  Uiso   1.00
H1638  H     0.39929   0.61046   0.68492   0.00000  Uiso   1.00
H1639  H     0.43930   0.59383   0.97687   0.00000  Uiso   1.00
H1640  H     0.42815   0.55898   0.69679   0.00000  Uiso   1.00
O1641  O     0.45929   0.38222   0.75805   0.00000  Uiso   1.00
C1642  C     0.41564   0.38201   0.75992   0.00000  Uiso   1.00
H1643  H     0.40533   0.38936   0.79813   0.00000  Uiso   1.00
H1644  H     0.40255   0.34900   0.74762   0.00000  Uiso   1.00
C1645  C     0.39832   0.41794   0.72389   0.00000  Uiso   1.00
H1646  H     0.40916   0.41146   0.68563   0.00000  Uiso   1.00
H1647  H     0.36391   0.41733   0.72233   0.00000  Uiso   1.00
H1648  H     0.40899   0.45200   0.73617   0.00000  Uiso   1.00
O1649  O     0.54982   0.61841   0.90091   0.00000  Uiso   1.00
C1650  C     0.53821   0.62057   0.95122   0.00000  Uiso   1.00
H1651  H     0.50688   0.60612   0.95525   0.00000  Uiso   1.00
H1652  H     0.53801   0.65544   0.96622   0.00000  Uiso   1.00
C1653  C     0.56972   0.59367   0.98318   0.00000  Uiso   1.00
H1654  H     0.60088   0.60950   0.98146   0.00000  Uiso   1.00
H1655  H     0.56075   0.59303   0.68942   0.00000  Uiso   1.00
H1656  H     0.57160   0.55843   0.96922   0.00000  Uiso   1.00
O1657  O     0.77226   0.53821   0.83333   0.00000  Uiso   1.00
O1658  O     0.89441   0.46179   0.83334   0.00000  Uiso   1.00
O1659  O     0.89441   0.53821   0.83334   0.00000  Uiso   1.00
O1660  O     0.77226   0.46179   0.83333   0.00000  Uiso   1.00
C1661  C     0.75345   0.50023   0.83784   0.00000  Uiso   1.00
C1662  C     0.91321   0.50022   0.82877   0.00000  Uiso   1.00
O1663  O     0.83334   0.53821   0.76178   0.00000  Uiso   1.00
O1664  O     0.83333   0.46179   0.90489   0.00000  Uiso   1.00
O1665  O     0.83333   0.53821   0.90489   0.00000  Uiso   1.00
O1666  O     0.83334   0.46179   0.76178   0.00000  Uiso   1.00
C1667  C     0.83325   0.49998   0.73955   0.00000  Uiso   1.00
C1668  C     0.83338   0.49997   0.92711   0.00000  Uiso   1.00
Zn1669 Zn    0.83333   0.55104   0.83333   0.00000  Uiso   1.00
Zn1670 Zn    0.83333   0.44896   0.83333   0.00000  Uiso   1.00
C1671  C     0.83331   0.49987   0.68846   0.00000  Uiso   1.00
C1672  C     0.83329   0.49986   0.97820   0.00000  Uiso   1.00
C1673  C     0.68689   0.46029   0.84395   0.00000  Uiso   1.00
C1674  C     0.97879   0.54311   0.82822   0.00000  Uiso   1.00
C1675  C     0.97978   0.46027   0.82263   0.00000  Uiso   1.00
C1676  C     0.68782   0.54313   0.83806   0.00000  Uiso   1.00
C1677  C     0.95772   0.50137   0.82351   0.00000  Uiso   1.00
C1678  C     0.70893   0.50140   0.84298   0.00000  Uiso   1.00
C1679  C     0.85593   0.35770   0.86939   0.00000  Uiso   1.00
C1680  C     0.81076   0.64248   0.79711   0.00000  Uiso   1.00
C1681  C     0.81075   0.35772   0.79726   0.00000  Uiso   1.00
C1682  C     0.85595   0.64246   0.86952   0.00000  Uiso   1.00
N1683  N     0.83333   0.61907   0.83333   0.00000  Uiso   1.00
N1684  N     0.83333   0.38093   0.83333   0.00000  Uiso   1.00
N1685  N     0.70263   0.42293   0.87446   0.00000  Uiso   1.00
O1686  O     0.73153   0.43030   0.90905   0.00000  Uiso   1.00
O1687  O     0.68228   0.38514   0.87693   0.00000  Uiso   1.00
N1688  N     0.95789   0.58570   0.82079   0.00000  Uiso   1.00
O1689  O     0.93998   0.59513   0.77748   0.00000  Uiso   1.00
O1690  O     0.96057   0.61679   0.85520   0.00000  Uiso   1.00
N1691  N     0.96406   0.42285   0.79221   0.00000  Uiso   1.00
O1692  O     0.93510   0.43014   0.75766   0.00000  Uiso   1.00
O1693  O     0.98448   0.38509   0.78975   0.00000  Uiso   1.00
N1694  N     0.70869   0.58574   0.84529   0.00000  Uiso   1.00
O1695  O     0.72647   0.59541   0.88861   0.00000  Uiso   1.00
O1696  O     0.70602   0.61667   0.81069   0.00000  Uiso   1.00
O1697  O     0.87405   0.38216   0.90862   0.00000  Uiso   1.00
C1698  C     0.91770   0.38202   0.90668   0.00000  Uiso   1.00
H1699  H     0.92795   0.38941   0.86846   0.00000  Uiso   1.00
H1700  H     0.93087   0.34902   0.91892   0.00000  Uiso   1.00
C1701  C     0.93499   0.41795   0.94271   0.00000  Uiso   1.00
H1702  H     0.92421   0.41142   0.98098   0.00000  Uiso   1.00
H1703  H     0.96940   0.41739   0.94422   0.00000  Uiso   1.00
H1704  H     0.92425   0.45200   0.93048   0.00000  Uiso   1.00
O1705  O     0.78367   0.61844   0.76559   0.00000  Uiso   1.00
C1706  C     0.79538   0.62071   0.71531   0.00000  Uiso   1.00
H1707  H     0.82659   0.60589   0.71129   0.00000  Uiso   1.00
H1708  H     0.79597   0.65565   0.70050   0.00000  Uiso   1.00
C1709  C     0.76366   0.59431   0.68311   0.00000  Uiso   1.00
H1710  H     0.73262   0.61046   0.68492   0.00000  Uiso   1.00
H1711  H     0.77264   0.59383   0.97687   0.00000  Uiso   1.00
H1712  H     0.76149   0.55898   0.69679   0.00000  Uiso   1.00
O1713  O     0.79262   0.38222   0.75805   0.00000  Uiso   1.00
C1714  C     0.74897   0.38201   0.75992   0.00000  Uiso   1.00
H1715  H     0.73866   0.38936   0.79813   0.00000  Uiso   1.00
H1716  H     0.73588   0.34900   0.74762   0.00000  Uiso   1.00
C1717  C     0.73165   0.41794   0.72389   0.00000  Uiso   1.00
H1718  H     0.74249   0.41146   0.68563   0.00000  Uiso   1.00
H1719  H     0.69724   0.41733   0.72233   0.00000  Uiso   1.00
H1720  H     0.74232   0.45200   0.73617   0.00000  Uiso   1.00
O1721  O     0.88315   0.61841   0.90091   0.00000  Uiso   1.00
C1722  C     0.87154   0.62057   0.95122   0.00000  Uiso   1.00
H1723  H     0.84021   0.60612   0.95525   0.00000  Uiso   1.00
H1724  H     0.87134   0.65544   0.96622   0.00000  Uiso   1.00
C1725  C     0.90305   0.59367   0.98318   0.00000  Uiso   1.00
H1726  H     0.93422   0.60950   0.98146   0.00000  Uiso   1.00
H1727  H     0.89408   0.59303   0.68942   0.00000  Uiso   1.00
H1728  H     0.90493   0.55843   0.96922   0.00000  Uiso   1.00
O1729  O     0.10559   0.87154   0.83333   0.00000  Uiso   1.00
O1730  O     0.22774   0.79513   0.83334   0.00000  Uiso   1.00
O1731  O     0.22774   0.87154   0.83334   0.00000  Uiso   1.00
O1732  O     0.10559   0.79513   0.83333   0.00000  Uiso   1.00
C1733  C     0.08678   0.83357   0.83784   0.00000  Uiso   1.00
C1734  C     0.24654   0.83355   0.82877   0.00000  Uiso   1.00
O1735  O     0.16667   0.87155   0.76178   0.00000  Uiso   1.00
O1736  O     0.16666   0.79512   0.90489   0.00000  Uiso   1.00
O1737  O     0.16666   0.87155   0.90489   0.00000  Uiso   1.00
O1738  O     0.16667   0.79512   0.76178   0.00000  Uiso   1.00
C1739  C     0.16658   0.83331   0.73955   0.00000  Uiso   1.00
C1740  C     0.16671   0.83331   0.92711   0.00000  Uiso   1.00
Zn1741 Zn    0.16667   0.88437   0.83333   0.00000  Uiso   1.00
Zn1742 Zn    0.16667   0.78229   0.83333   0.00000  Uiso   1.00
C1743  C     0.16664   0.83320   0.68846   0.00000  Uiso   1.00
C1744  C     0.16662   0.83320   0.97820   0.00000  Uiso   1.00
C1745  C     0.02023   0.79363   0.84395   0.00000  Uiso   1.00
C1746  C     0.31213   0.87645   0.82822   0.00000  Uiso   1.00
C1747  C     0.31311   0.79360   0.82263   0.00000  Uiso   1.00
C1748  C     0.02116   0.87646   0.83806   0.00000  Uiso   1.00
C1749  C     0.29105   0.83471   0.82351   0.00000  Uiso   1.00
C1750  C     0.04226   0.83474   0.84298   0.00000  Uiso   1.00
C1751  C     0.18926   0.69103   0.86939   0.00000  Uiso   1.00
C1752  C     0.14409   0.97582   0.79711   0.00000  Uiso   1.00
C1753  C     0.14409   0.69106   0.79726   0.00000  Uiso   1.00
C1754  C     0.18928   0.97580   0.86952   0.00000  Uiso   1.00
N1755  N     0.16667   0.95240   0.83333   0.00000  Uiso   1.00
N1756  N     0.16667   0.71427   0.83333   0.00000  Uiso   1.00
N1757  N     0.03596   0.75626   0.87446   0.00000  Uiso   1.00
O1758  O     0.06486   0.76363   0.90905   0.00000  Uiso   1.00
O1759  O     0.01561   0.71847   0.87693   0.00000  Uiso   1.00
N1760  N     0.29123   0.91903   0.82079   0.00000  Uiso   1.00
O1761  O     0.27331   0.92847   0.77748   0.00000  Uiso   1.00
O1762  O     0.29391   0.95012   0.85520   0.00000  Uiso   1.00
N1763  N     0.29740   0.75619   0.79221   0.00000  Uiso   1.00
O1764  O     0.26843   0.76348   0.75766   0.00000  Uiso   1.00
O1765  O     0.31781   0.71842   0.78975   0.00000  Uiso   1.00
N1766  N     0.04202   0.91907   0.84529   0.00000  Uiso   1.00
O1767  O     0.05980   0.92874   0.88861   0.00000  Uiso   1.00
O1768  O     0.03936   0.95000   0.81069   0.00000  Uiso   1.00
O1769  O     0.20739   0.71549   0.90862   0.00000  Uiso   1.00
C1770  C     0.25103   0.71535   0.90668   0.00000  Uiso   1.00
H1771  H     0.26129   0.72274   0.86846   0.00000  Uiso   1.00
H1772  H     0.26421   0.68236   0.91892   0.00000  Uiso   1.00
C1773  C     0.26832   0.75129   0.94271   0.00000  Uiso   1.00
H1774  H     0.25754   0.74476   0.98098   0.00000  Uiso   1.00
H1775  H     0.30274   0.75073   0.94422   0.00000  Uiso   1.00
H1776  H     0.25758   0.78533   0.93048   0.00000  Uiso   1.00
O1777  O     0.11700   0.95178   0.76559   0.00000  Uiso   1.00
C1778  C     0.12872   0.95404   0.71531   0.00000  Uiso   1.00
H1779  H     0.15993   0.93923   0.71129   0.00000  Uiso   1.00
H1780  H     0.12931   0.98898   0.70050   0.00000  Uiso   1.00
C1781  C     0.09699   0.92764   0.68311   0.00000  Uiso   1.00
H1782  H     0.06595   0.94379   0.68492   0.00000  Uiso   1.00
H1783  H     0.10597   0.92716   0.97687   0.00000  Uiso   1.00
H1784  H     0.09482   0.89232   0.69679   0.00000  Uiso   1.00
O1785  O     0.12596   0.71555   0.75805   0.00000  Uiso   1.00
C1786  C     0.08231   0.71534   0.75992   0.00000  Uiso   1.00
H1787  H     0.07200   0.72269   0.79813   0.00000  Uiso   1.00
H1788  H     0.06921   0.68234   0.74762   0.00000  Uiso   1.00
C1789  C     0.06499   0.75128   0.72389   0.00000  Uiso   1.00
H1790  H     0.07583   0.74479   0.68563   0.00000  Uiso   1.00
H1791  H     0.03057   0.75066   0.72233   0.00000  Uiso   1.00
H1792  H     0.07565   0.78533   0.73617   0.00000  Uiso   1.00
O1793  O     0.21649   0.95175   0.90091   0.00000  Uiso   1.00
C1794  C     0.20487   0.95391   0.95122   0.00000  Uiso   1.00
H1795  H     0.17354   0.93945   0.95525   0.00000  Uiso   1.00
H1796  H     0.20467   0.98878   0.96622   0.00000  Uiso   1.00
C1797  C     0.23639   0.92700   0.98318   0.00000  Uiso   1.00
H1798  H     0.26755   0.94283   0.98146   0.00000  Uiso   1.00
H1799  H     0.22742   0.92637   0.68942   0.00000  Uiso   1.00
H1800  H     0.23826   0.89176   0.96922   0.00000  Uiso   1.00
O1801  O     0.43892   0.87154   0.83333   0.00000  Uiso   1.00
O1802  O     0.56108   0.79513   0.83334   0.00000  Uiso   1.00
O1803  O     0.56108   0.87154   0.83334   0.00000  Uiso   1.00
O1804  O     0.43892   0.79513   0.83333   0.00000  Uiso   1.00
C1805  C     0.42011   0.83357   0.83784   0.00000  Uiso   1.00
C1806  C     0.57988   0.83355   0.82877   0.00000  Uiso   1.00
O1807  O     0.50000   0.87155   0.76178   0.00000  Uiso   1.00
O1808  O     0.50000   0.79512   0.90489   0.00000  Uiso   1.00
O1809  O     0.50000   0.87155   0.90489   0.00000  Uiso   1.00
O1810  O     0.50000   0.79512   0.76178   0.00000  Uiso   1.00
C1811  C     0.49992   0.83331   0.73955   0.00000  Uiso   1.00
C1812  C     0.50005   0.83331   0.92711   0.00000  Uiso   1.00
Zn1813 Zn    0.50000   0.88437   0.83333   0.00000  Uiso   1.00
Zn1814 Zn    0.50000   0.78229   0.83333   0.00000  Uiso   1.00
C1815  C     0.49997   0.83320   0.68846   0.00000  Uiso   1.00
C1816  C     0.49995   0.83320   0.97820   0.00000  Uiso   1.00
C1817  C     0.35356   0.79363   0.84395   0.00000  Uiso   1.00
C1818  C     0.64546   0.87645   0.82822   0.00000  Uiso   1.00
C1819  C     0.64644   0.79360   0.82263   0.00000  Uiso   1.00
C1820  C     0.35449   0.87646   0.83806   0.00000  Uiso   1.00
C1821  C     0.62438   0.83471   0.82351   0.00000  Uiso   1.00
C1822  C     0.37559   0.83474   0.84298   0.00000  Uiso   1.00
C1823  C     0.52260   0.69103   0.86939   0.00000  Uiso   1.00
C1824  C     0.47743   0.97582   0.79711   0.00000  Uiso   1.00
C1825  C     0.47742   0.69106   0.79726   0.00000  Uiso   1.00
C1826  C     0.52262   0.97580   0.86952   0.00000  Uiso   1.00
N1827  N     0.50000   0.95240   0.83333   0.00000  Uiso   1.00
N1828  N     0.50000   0.71427   0.83333   0.00000  Uiso   1.00
N1829  N     0.36930   0.75626   0.87446   0.00000  Uiso   1.00
O1830  O     0.39820   0.76363   0.90905   0.00000  Uiso   1.00
O1831  O     0.34895   0.71847   0.87693   0.00000  Uiso   1.00
N1832  N     0.62456   0.91903   0.82079   0.00000  Uiso   1.00
O1833  O     0.60665   0.92847   0.77748   0.00000  Uiso   1.00
O1834  O     0.62724   0.95012   0.85520   0.00000  Uiso   1.00
N1835  N     0.63073   0.75619   0.79221   0.00000  Uiso   1.00
O1836  O     0.60177   0.76348   0.75766   0.00000  Uiso   1.00
O1837  O     0.65114   0.71842   0.78975   0.00000  Uiso   1.00
N1838  N     0.37535   0.91907   0.84529   0.00000  Uiso   1.00
O1839  O     0.39314   0.92874   0.88861   0.00000  Uiso   1.00
O1840  O     0.37269   0.95000   0.81069   0.00000  Uiso   1.00
O1841  O     0.54072   0.71549   0.90862   0.00000  Uiso   1.00
C1842  C     0.58437   0.71535   0.90668   0.00000  Uiso   1.00
H1843  H     0.59462   0.72274   0.86846   0.00000  Uiso   1.00
H1844  H     0.59754   0.68236   0.91892   0.00000  Uiso   1.00
C1845  C     0.60166   0.75129   0.94271   0.00000  Uiso   1.00
H1846  H     0.59087   0.74476   0.98098   0.00000  Uiso   1.00
H1847  H     0.63607   0.75073   0.94422   0.00000  Uiso   1.00
H1848  H     0.59092   0.78533   0.93048   0.00000  Uiso   1.00
O1849  O     0.45033   0.95178   0.76559   0.00000  Uiso   1.00
C1850  C     0.46205   0.95404   0.71531   0.00000  Uiso   1.00
H1851  H     0.49326   0.93923   0.71129   0.00000  Uiso   1.00
H1852  H     0.46264   0.98898   0.70050   0.00000  Uiso   1.00
C1853  C     0.43032   0.92764   0.68311   0.00000  Uiso   1.00
H1854  H     0.39929   0.94379   0.68492   0.00000  Uiso   1.00
H1855  H     0.43930   0.92716   0.97687   0.00000  Uiso   1.00
H1856  H     0.42815   0.89232   0.69679   0.00000  Uiso   1.00
O1857  O     0.45929   0.71555   0.75805   0.00000  Uiso   1.00
C1858  C     0.41564   0.71534   0.75992   0.00000  Uiso   1.00
H1859  H     0.40533   0.72269   0.79813   0.00000  Uiso   1.00
H1860  H     0.40255   0.68234   0.74762   0.00000  Uiso   1.00
C1861  C     0.39832   0.75128   0.72389   0.00000  Uiso   1.00
H1862  H     0.40916   0.74479   0.68563   0.00000  Uiso   1.00
H1863  H     0.36391   0.75066   0.72233   0.00000  Uiso   1.00
H1864  H     0.40899   0.78533   0.73617   0.00000  Uiso   1.00
O1865  O     0.54982   0.95175   0.90091   0.00000  Uiso   1.00
C1866  C     0.53821   0.95391   0.95122   0.00000  Uiso   1.00
H1867  H     0.50688   0.93945   0.95525   0.00000  Uiso   1.00
H1868  H     0.53801   0.98878   0.96622   0.00000  Uiso   1.00
C1869  C     0.56972   0.92700   0.98318   0.00000  Uiso   1.00
H1870  H     0.60088   0.94283   0.98146   0.00000  Uiso   1.00
H1871  H     0.56075   0.92637   0.68942   0.00000  Uiso   1.00
H1872  H     0.57160   0.89176   0.96922   0.00000  Uiso   1.00
O1873  O     0.77226   0.87154   0.83333   0.00000  Uiso   1.00
O1874  O     0.89441   0.79513   0.83334   0.00000  Uiso   1.00
O1875  O     0.89441   0.87154   0.83334   0.00000  Uiso   1.00
O1876  O     0.77226   0.79513   0.83333   0.00000  Uiso   1.00
C1877  C     0.75345   0.83357   0.83784   0.00000  Uiso   1.00
C1878  C     0.91321   0.83355   0.82877   0.00000  Uiso   1.00
O1879  O     0.83334   0.87155   0.76178   0.00000  Uiso   1.00
O1880  O     0.83333   0.79512   0.90489   0.00000  Uiso   1.00
O1881  O     0.83333   0.87155   0.90489   0.00000  Uiso   1.00
O1882  O     0.83334   0.79512   0.76178   0.00000  Uiso   1.00
C1883  C     0.83325   0.83331   0.73955   0.00000  Uiso   1.00
C1884  C     0.83338   0.83331   0.92711   0.00000  Uiso   1.00
Zn1885 Zn    0.83333   0.88437   0.83333   0.00000  Uiso   1.00
Zn1886 Zn    0.83333   0.78229   0.83333   0.00000  Uiso   1.00
C1887  C     0.83331   0.83320   0.68846   0.00000  Uiso   1.00
C1888  C     0.83329   0.83320   0.97820   0.00000  Uiso   1.00
C1889  C     0.68689   0.79363   0.84395   0.00000  Uiso   1.00
C1890  C     0.97879   0.87645   0.82822   0.00000  Uiso   1.00
C1891  C     0.97978   0.79360   0.82263   0.00000  Uiso   1.00
C1892  C     0.68782   0.87646   0.83806   0.00000  Uiso   1.00
C1893  C     0.95772   0.83471   0.82351   0.00000  Uiso   1.00
C1894  C     0.70893   0.83474   0.84298   0.00000  Uiso   1.00
C1895  C     0.85593   0.69103   0.86939   0.00000  Uiso   1.00
C1896  C     0.81076   0.97582   0.79711   0.00000  Uiso   1.00
C1897  C     0.81075   0.69106   0.79726   0.00000  Uiso   1.00
C1898  C     0.85595   0.97580   0.86952   0.00000  Uiso   1.00
N1899  N     0.83333   0.95240   0.83333   0.00000  Uiso   1.00
N1900  N     0.83333   0.71427   0.83333   0.00000  Uiso   1.00
N1901  N     0.70263   0.75626   0.87446   0.00000  Uiso   1.00
O1902  O     0.73153   0.76363   0.90905   0.00000  Uiso   1.00
O1903  O     0.68228   0.71847   0.87693   0.00000  Uiso   1.00
N1904  N     0.95789   0.91903   0.82079   0.00000  Uiso   1.00
O1905  O     0.93998   0.92847   0.77748   0.00000  Uiso   1.00
O1906  O     0.96057   0.95012   0.85520   0.00000  Uiso   1.00
N1907  N     0.96406   0.75619   0.79221   0.00000  Uiso   1.00
O1908  O     0.93510   0.76348   0.75766   0.00000  Uiso   1.00
O1909  O     0.98448   0.71842   0.78975   0.00000  Uiso   1.00
N1910  N     0.70869   0.91907   0.84529   0.00000  Uiso   1.00
O1911  O     0.72647   0.92874   0.88861   0.00000  Uiso   1.00
O1912  O     0.70602   0.95000   0.81069   0.00000  Uiso   1.00
O1913  O     0.87405   0.71549   0.90862   0.00000  Uiso   1.00
C1914  C     0.91770   0.71535   0.90668   0.00000  Uiso   1.00
H1915  H     0.92795   0.72274   0.86846   0.00000  Uiso   1.00
H1916  H     0.93087   0.68236   0.91892   0.00000  Uiso   1.00
C1917  C     0.93499   0.75129   0.94271   0.00000  Uiso   1.00
H1918  H     0.92421   0.74476   0.98098   0.00000  Uiso   1.00
H1919  H     0.96940   0.75073   0.94422   0.00000  Uiso   1.00
H1920  H     0.92425   0.78533   0.93048   0.00000  Uiso   1.00
O1921  O     0.78367   0.95178   0.76559   0.00000  Uiso   1.00
C1922  C     0.79538   0.95404   0.71531   0.00000  Uiso   1.00
H1923  H     0.82659   0.93923   0.71129   0.00000  Uiso   1.00
H1924  H     0.79597   0.98898   0.70050   0.00000  Uiso   1.00
C1925  C     0.76366   0.92764   0.68311   0.00000  Uiso   1.00
H1926  H     0.73262   0.94379   0.68492   0.00000  Uiso   1.00
H1927  H     0.77264   0.92716   0.97687   0.00000  Uiso   1.00
H1928  H     0.76149   0.89232   0.69679   0.00000  Uiso   1.00
O1929  O     0.79262   0.71555   0.75805   0.00000  Uiso   1.00
C1930  C     0.74897   0.71534   0.75992   0.00000  Uiso   1.00
H1931  H     0.73866   0.72269   0.79813   0.00000  Uiso   1.00
H1932  H     0.73588   0.68234   0.74762   0.00000  Uiso   1.00
C1933  C     0.73165   0.75128   0.72389   0.00000  Uiso   1.00
H1934  H     0.74249   0.74479   0.68563   0.00000  Uiso   1.00
H1935  H     0.69724   0.75066   0.72233   0.00000  Uiso   1.00
H1936  H     0.74232   0.78533   0.73617   0.00000  Uiso   1.00
O1937  O     0.88315   0.95175   0.90091   0.00000  Uiso   1.00
C1938  C     0.87154   0.95391   0.95122   0.00000  Uiso   1.00
H1939  H     0.84021   0.93945   0.95525   0.00000  Uiso   1.00
H1940  H     0.87134   0.98878   0.96622   0.00000  Uiso   1.00
C1941  C     0.90305   0.92700   0.98318   0.00000  Uiso   1.00
H1942  H     0.93422   0.94283   0.98146   0.00000  Uiso   1.00
H1943  H     0.89408   0.92637   0.68942   0.00000  Uiso   1.00
H1944  H     0.90493   0.89176   0.96922   0.00000  Uiso   1.00
loop_
_geom_bond_atom_site_label_1
_geom_bond_atom_site_label_2
_geom_bond_distance
_geom_bond_site_symmetry_2
_ccdc_geom_bond_type
O1     C5      1.285   .     A
O1     Zn13    2.005   .     S
O2     C6      1.297   .     A
O2     Zn14    2.005   .     S
O3     Zn13    2.004   .     S
O3     C6      1.285   .     A
O4     Zn14    2.004   .     S
O4     C5      1.297   .     A
C5     C22     1.447   .     S
C6     C21     1.447   .     S
O7     C11     1.278   .     A
O7     Zn13    1.949   .     S
O8     C12     1.277   .     A
O8     Zn14    1.949   .     S
O9     C12     1.278   .     A
O9     Zn13    1.949   .     S
O10    C11     1.277   .     A
O10    Zn14    1.949   .     S
C11    C15     1.365   .     S
C12    C16     1.365   .     S
Zn13   N27     2.013   .     S
Zn14   N28     2.013   .     S
C15    C1312   1.165   1_554 S
C16    C663    1.165   .     S
C17    C22     1.410   .     A
C17    N29     1.452   .     S
C17    C163    1.400   1_455 S
C18    C21     1.413   .     A
C18    N32     1.438   .     S
C18    C92     1.379   .     S
C19    N35     1.452   .     S
C19    C21     1.409   .     A
C19    C89     1.400   .     S
C20    N38     1.438   .     S
C20    C22     1.413   .     A
C20    C162    1.379   1_455 S
C23    N28     1.368   .     A
C23    O41     1.383   .     S
C23    C458    1.437   1_545 S
C24    N27     1.373   .     A
C24    O49     1.384   .     S
C24    C241    1.437   .     S
C25    N28     1.368   .     A
C25    O57     1.383   .     S
C25    C456    1.437   1_545 S
C26    N27     1.373   .     A
C26    O65     1.384   .     S
C26    C239    1.437   .     S
N29    O30     1.302   .     A
N29    O31     1.300   .     A
N32    O34     1.301   .     A
N32    O33     1.301   .     A
N35    O37     1.300   .     A
N35    O36     1.302   .     A
N38    O40     1.301   .     A
N38    O39     1.301   .     A
O41    C42     1.410   .     S
C42    H44     1.108   .     S
C42    H43     1.108   .     S
C42    C45     1.524   .     S
C45    H47     1.108   .     S
C45    H46     1.111   .     S
C45    H48     1.110   .     S
O49    C50     1.412   .     S
C50    H52     1.107   .     S
C50    H51     1.106   .     S
C50    C53     1.524   .     S
C53    H56     1.111   .     S
C53    H54     1.111   .     S
C53    H1351   1.108   1_554 S
H55    C701    1.108   .     S
O57    C58     1.410   .     S
C58    C61     1.524   .     S
C58    H60     1.108   .     S
C58    H59     1.108   .     S
C61    H64     1.110   .     S
C61    H62     1.111   .     S
C61    H63     1.108   .     S
O65    C66     1.412   .     S
C66    H68     1.107   .     S
C66    H67     1.106   .     S
C66    C69     1.523   .     S
C69    H72     1.110   .     S
C69    H70     1.111   .     S
C69    H719    1.108   .     S
H71    C1365   1.108   1_554 S
O73    C77     1.285   .     A
O73    Zn85    2.005   .     S
O74    C78     1.297   .     A
O74    Zn86    2.005   .     S
O75    Zn85    2.004   .     S
O75    C78     1.285   .     A
O76    Zn86    2.004   .     S
O76    C77     1.297   .     A
C77    C94     1.447   .     S
C78    C93     1.447   .     S
O79    C83     1.278   .     A
O79    Zn85    1.949   .     S
O80    C84     1.277   .     A
O80    Zn86    1.949   .     S
O81    C84     1.278   .     A
O81    Zn85    1.949   .     S
O82    C83     1.277   .     A
O82    Zn86    1.949   .     S
C83    C87     1.365   .     S
C84    C88     1.365   .     S
Zn85   N99     2.013   .     S
Zn86   N100    2.013   .     S
C87    C1384   1.165   1_554 S
C88    C735    1.165   .     S
C89    C94     1.410   .     A
C89    N101    1.452   .     S
C90    C93     1.413   .     A
C90    N104    1.438   .     S
C90    C164    1.379   .     S
C91    N107    1.452   .     S
C91    C93     1.409   .     A
C91    C161    1.400   .     S
C92    N110    1.438   .     S
C92    C94     1.413   .     A
C95    N100    1.368   .     A
C95    O113    1.383   .     S
C95    C530    1.437   1_545 S
C96    N99     1.373   .     A
C96    O121    1.384   .     S
C96    C313    1.437   .     S
C97    N100    1.368   .     A
C97    O129    1.383   .     S
C97    C528    1.437   1_545 S
C98    N99     1.373   .     A
C98    O137    1.384   .     S
C98    C311    1.437   .     S
N101   O102    1.302   .     A
N101   O103    1.300   .     A
N104   O106    1.301   .     A
N104   O105    1.301   .     A
N107   O109    1.300   .     A
N107   O108    1.302   .     A
N110   O112    1.301   .     A
N110   O111    1.301   .     A
O113   C114    1.410   .     S
C114   H116    1.108   .     S
C114   H115    1.108   .     S
C114   C117    1.524   .     S
C117   H119    1.108   .     S
C117   H118    1.111   .     S
C117   H120    1.110   .     S
O121   C122    1.412   .     S
C122   H124    1.107   .     S
C122   H123    1.106   .     S
C122   C125    1.524   .     S
C125   H128    1.111   .     S
C125   H126    1.111   .     S
C125   H1423   1.108   1_554 S
H127   C773    1.108   .     S
O129   C130    1.410   .     S
C130   C133    1.524   .     S
C130   H132    1.108   .     S
C130   H131    1.108   .     S
C133   H136    1.110   .     S
C133   H134    1.111   .     S
C133   H135    1.108   .     S
O137   C138    1.412   .     S
C138   H140    1.107   .     S
C138   H139    1.106   .     S
C138   C141    1.523   .     S
C141   H144    1.110   .     S
C141   H142    1.111   .     S
C141   H791    1.108   .     S
H143   C1437   1.108   1_554 S
O145   C149    1.285   .     A
O145   Zn157   2.005   .     S
O146   C150    1.297   .     A
O146   Zn158   2.005   .     S
O147   Zn157   2.004   .     S
O147   C150    1.285   .     A
O148   Zn158   2.004   .     S
O148   C149    1.297   .     A
C149   C166    1.447   .     S
C150   C165    1.447   .     S
O151   C155    1.278   .     A
O151   Zn157   1.949   .     S
O152   C156    1.277   .     A
O152   Zn158   1.949   .     S
O153   C156    1.278   .     A
O153   Zn157   1.949   .     S
O154   C155    1.277   .     A
O154   Zn158   1.949   .     S
C155   C159    1.365   .     S
C156   C160    1.365   .     S
Zn157  N171    2.013   .     S
Zn158  N172    2.013   .     S
C159   C1456   1.165   1_554 S
C160   C807    1.165   .     S
C161   C166    1.410   .     A
C161   N173    1.452   .     S
C162   C165    1.413   .     A
C162   N176    1.438   .     S
C162   C20     1.379   1_655 S
C163   N179    1.452   .     S
C163   C165    1.409   .     A
C163   C17     1.400   1_655 S
C164   N182    1.438   .     S
C164   C166    1.413   .     A
C167   N172    1.368   .     A
C167   O185    1.383   .     S
C167   C602    1.437   1_545 S
C168   N171    1.373   .     A
C168   O193    1.384   .     S
C168   C385    1.437   .     S
C169   N172    1.368   .     A
C169   O201    1.383   .     S
C169   C600    1.437   1_545 S
C170   N171    1.373   .     A
C170   O209    1.384   .     S
C170   C383    1.437   .     S
N173   O174    1.302   .     A
N173   O175    1.300   .     A
N176   O178    1.301   .     A
N176   O177    1.301   .     A
N179   O181    1.300   .     A
N179   O180    1.302   .     A
N182   O184    1.301   .     A
N182   O183    1.301   .     A
O185   C186    1.410   .     S
C186   H188    1.108   .     S
C186   H187    1.108   .     S
C186   C189    1.524   .     S
C189   H191    1.108   .     S
C189   H190    1.111   .     S
C189   H192    1.110   .     S
O193   C194    1.412   .     S
C194   H196    1.107   .     S
C194   H195    1.106   .     S
C194   C197    1.524   .     S
C197   H200    1.111   .     S
C197   H198    1.111   .     S
C197   H1495   1.108   1_554 S
H199   C845    1.108   .     S
O201   C202    1.410   .     S
C202   C205    1.524   .     S
C202   H204    1.108   .     S
C202   H203    1.108   .     S
C205   H208    1.110   .     S
C205   H206    1.111   .     S
C205   H207    1.108   .     S
O209   C210    1.412   .     S
C210   H212    1.107   .     S
C210   H211    1.106   .     S
C210   C213    1.523   .     S
C213   H216    1.110   .     S
C213   H214    1.111   .     S
C213   H863    1.108   .     S
H215   C1509   1.108   1_554 S
O217   C221    1.285   .     A
O217   Zn229   2.005   .     S
O218   C222    1.297   .     A
O218   Zn230   2.005   .     S
O219   Zn229   2.004   .     S
O219   C222    1.285   .     A
O220   Zn230   2.004   .     S
O220   C221    1.297   .     A
C221   C238    1.447   .     S
C222   C237    1.447   .     S
O223   C227    1.278   .     A
O223   Zn229   1.949   .     S
O224   C228    1.277   .     A
O224   Zn230   1.949   .     S
O225   C228    1.278   .     A
O225   Zn229   1.949   .     S
O226   C227    1.277   .     A
O226   Zn230   1.949   .     S
C227   C231    1.365   .     S
C228   C232    1.365   .     S
Zn229  N243    2.013   .     S
Zn230  N244    2.013   .     S
C231   C1528   1.165   1_554 S
C232   C879    1.165   .     S
C233   C238    1.410   .     A
C233   N245    1.452   .     S
C233   C379    1.400   1_455 S
C234   C237    1.413   .     A
C234   N248    1.438   .     S
C234   C308    1.379   .     S
C235   N251    1.452   .     S
C235   C237    1.409   .     A
C235   C305    1.400   .     S
C236   N254    1.438   .     S
C236   C238    1.413   .     A
C236   C378    1.379   1_455 S
C239   N244    1.368   .     A
C239   O257    1.383   .     S
C240   N243    1.373   .     A
C240   O265    1.384   .     S
C240   C457    1.437   .     S
C241   N244    1.368   .     A
C241   O273    1.383   .     S
C242   N243    1.373   .     A
C242   O281    1.384   .     S
C242   C455    1.437   .     S
N245   O246    1.302   .     A
N245   O247    1.300   .     A
N248   O250    1.301   .     A
N248   O249    1.301   .     A
N251   O253    1.300   .     A
N251   O252    1.302   .     A
N254   O256    1.301   .     A
N254   O255    1.301   .     A
O257   C258    1.410   .     S
C258   H260    1.108   .     S
C258   H259    1.108   .     S
C258   C261    1.524   .     S
C261   H263    1.108   .     S
C261   H262    1.111   .     S
C261   H264    1.110   .     S
O265   C266    1.412   .     S
C266   H268    1.107   .     S
C266   H267    1.106   .     S
C266   C269    1.524   .     S
C269   H272    1.111   .     S
C269   H270    1.111   .     S
C269   H1567   1.108   1_554 S
H271   C917    1.108   .     S
O273   C274    1.410   .     S
C274   C277    1.524   .     S
C274   H276    1.108   .     S
C274   H275    1.108   .     S
C277   H280    1.110   .     S
C277   H278    1.111   .     S
C277   H279    1.108   .     S
O281   C282    1.412   .     S
C282   H284    1.107   .     S
C282   H283    1.106   .     S
C282   C285    1.523   .     S
C285   H288    1.110   .     S
C285   H286    1.111   .     S
C285   H935    1.108   .     S
H287   C1581   1.108   1_554 S
O289   C293    1.285   .     A
O289   Zn301   2.005   .     S
O290   C294    1.297   .     A
O290   Zn302   2.005   .     S
O291   Zn301   2.004   .     S
O291   C294    1.285   .     A
O292   Zn302   2.004   .     S
O292   C293    1.297   .     A
C293   C310    1.447   .     S
C294   C309    1.447   .     S
O295   C299    1.278   .     A
O295   Zn301   1.949   .     S
O296   C300    1.277   .     A
O296   Zn302   1.949   .     S
O297   C300    1.278   .     A
O297   Zn301   1.949   .     S
O298   C299    1.277   .     A
O298   Zn302   1.949   .     S
C299   C303    1.365   .     S
C300   C304    1.365   .     S
Zn301  N315    2.013   .     S
Zn302  N316    2.013   .     S
C303   C1600   1.165   1_554 S
C304   C951    1.165   .     S
C305   C310    1.410   .     A
C305   N317    1.452   .     S
C306   C309    1.413   .     A
C306   N320    1.438   .     S
C306   C380    1.379   .     S
C307   N323    1.452   .     S
C307   C309    1.409   .     A
C307   C377    1.400   .     S
C308   N326    1.438   .     S
C308   C310    1.413   .     A
C311   N316    1.368   .     A
C311   O329    1.383   .     S
C312   N315    1.373   .     A
C312   O337    1.384   .     S
C312   C529    1.437   .     S
C313   N316    1.368   .     A
C313   O345    1.383   .     S
C314   N315    1.373   .     A
C314   O353    1.384   .     S
C314   C527    1.437   .     S
N317   O318    1.302   .     A
N317   O319    1.300   .     A
N320   O322    1.301   .     A
N320   O321    1.301   .     A
N323   O325    1.300   .     A
N323   O324    1.302   .     A
N326   O328    1.301   .     A
N326   O327    1.301   .     A
O329   C330    1.410   .     S
C330   H332    1.108   .     S
C330   H331    1.108   .     S
C330   C333    1.524   .     S
C333   H335    1.108   .     S
C333   H334    1.111   .     S
C333   H336    1.110   .     S
O337   C338    1.412   .     S
C338   H340    1.107   .     S
C338   H339    1.106   .     S
C338   C341    1.524   .     S
C341   H344    1.111   .     S
C341   H342    1.111   .     S
C341   H1639   1.108   1_554 S
H343   C989    1.108   .     S
O345   C346    1.410   .     S
C346   C349    1.524   .     S
C346   H348    1.108   .     S
C346   H347    1.108   .     S
C349   H352    1.110   .     S
C349   H350    1.111   .     S
C349   H351    1.108   .     S
O353   C354    1.412   .     S
C354   H356    1.107   .     S
C354   H355    1.106   .     S
C354   C357    1.523   .     S
C357   H360    1.110   .     S
C357   H358    1.111   .     S
C357   H1007   1.108   .     S
H359   C1653   1.108   1_554 S
O361   C365    1.285   .     A
O361   Zn373   2.005   .     S
O362   C366    1.297   .     A
O362   Zn374   2.005   .     S
O363   Zn373   2.004   .     S
O363   C366    1.285   .     A
O364   Zn374   2.004   .     S
O364   C365    1.297   .     A
C365   C382    1.447   .     S
C366   C381    1.447   .     S
O367   C371    1.278   .     A
O367   Zn373   1.949   .     S
O368   C372    1.277   .     A
O368   Zn374   1.949   .     S
O369   C372    1.278   .     A
O369   Zn373   1.949   .     S
O370   C371    1.277   .     A
O370   Zn374   1.949   .     S
C371   C375    1.365   .     S
C372   C376    1.365   .     S
Zn373  N387    2.013   .     S
Zn374  N388    2.013   .     S
C375   C1672   1.165   1_554 S
C376   C1023   1.165   .     S
C377   C382    1.410   .     A
C377   N389    1.452   .     S
C378   C381    1.413   .     A
C378   N392    1.438   .     S
C378   C236    1.379   1_655 S
C379   N395    1.452   .     S
C379   C381    1.409   .     A
C379   C233    1.400   1_655 S
C380   N398    1.438   .     S
C380   C382    1.413   .     A
C383   N388    1.368   .     A
C383   O401    1.383   .     S
C384   N387    1.373   .     A
C384   O409    1.384   .     S
C384   C601    1.437   .     S
C385   N388    1.368   .     A
C385   O417    1.383   .     S
C386   N387    1.373   .     A
C386   O425    1.384   .     S
C386   C599    1.437   .     S
N389   O390    1.302   .     A
N389   O391    1.300   .     A
N392   O394    1.301   .     A
N392   O393    1.301   .     A
N395   O397    1.300   .     A
N395   O396    1.302   .     A
N398   O400    1.301   .     A
N398   O399    1.301   .     A
O401   C402    1.410   .     S
C402   H404    1.108   .     S
C402   H403    1.108   .     S
C402   C405    1.524   .     S
C405   H407    1.108   .     S
C405   H406    1.111   .     S
C405   H408    1.110   .     S
O409   C410    1.412   .     S
C410   H412    1.107   .     S
C410   H411    1.106   .     S
C410   C413    1.524   .     S
C413   H416    1.111   .     S
C413   H414    1.111   .     S
C413   H1711   1.108   1_554 S
H415   C1061   1.108   .     S
O417   C418    1.410   .     S
C418   C421    1.524   .     S
C418   H420    1.108   .     S
C418   H419    1.108   .     S
C421   H424    1.110   .     S
C421   H422    1.111   .     S
C421   H423    1.108   .     S
O425   C426    1.412   .     S
C426   H428    1.107   .     S
C426   H427    1.106   .     S
C426   C429    1.523   .     S
C429   H432    1.110   .     S
C429   H430    1.111   .     S
C429   H1079   1.108   .     S
H431   C1725   1.108   1_554 S
O433   C437    1.285   .     A
O433   Zn445   2.005   .     S
O434   C438    1.297   .     A
O434   Zn446   2.005   .     S
O435   Zn445   2.004   .     S
O435   C438    1.285   .     A
O436   Zn446   2.004   .     S
O436   C437    1.297   .     A
C437   C454    1.447   .     S
C438   C453    1.447   .     S
O439   C443    1.278   .     A
O439   Zn445   1.949   .     S
O440   C444    1.277   .     A
O440   Zn446   1.949   .     S
O441   C444    1.278   .     A
O441   Zn445   1.949   .     S
O442   C443    1.277   .     A
O442   Zn446   1.949   .     S
C443   C447    1.365   .     S
C444   C448    1.365   .     S
Zn445  N459    2.013   .     S
Zn446  N460    2.013   .     S
C447   C1744   1.165   1_554 S
C448   C1095   1.165   .     S
C449   C454    1.410   .     A
C449   N461    1.452   .     S
C449   C595    1.400   1_455 S
C450   C453    1.413   .     A
C450   N464    1.438   .     S
C450   C524    1.379   .     S
C451   N467    1.452   .     S
C451   C453    1.409   .     A
C451   C521    1.400   .     S
C452   N470    1.438   .     S
C452   C454    1.413   .     A
C452   C594    1.379   1_455 S
C455   N460    1.368   .     A
C455   O473    1.383   .     S
C456   N459    1.373   .     A
C456   O481    1.384   .     S
C456   C25     1.437   1_565 S
C457   N460    1.368   .     A
C457   O489    1.383   .     S
C458   N459    1.373   .     A
C458   O497    1.384   .     S
C458   C23     1.437   1_565 S
N461   O462    1.302   .     A
N461   O463    1.300   .     A
N464   O466    1.301   .     A
N464   O465    1.301   .     A
N467   O469    1.300   .     A
N467   O468    1.302   .     A
N470   O472    1.301   .     A
N470   O471    1.301   .     A
O473   C474    1.410   .     S
C474   H476    1.108   .     S
C474   H475    1.108   .     S
C474   C477    1.524   .     S
C477   H479    1.108   .     S
C477   H478    1.111   .     S
C477   H480    1.110   .     S
O481   C482    1.412   .     S
C482   H484    1.107   .     S
C482   H483    1.106   .     S
C482   C485    1.524   .     S
C485   H488    1.111   .     S
C485   H486    1.111   .     S
C485   H1783   1.108   1_554 S
H487   C1133   1.108   .     S
O489   C490    1.410   .     S
C490   C493    1.524   .     S
C490   H492    1.108   .     S
C490   H491    1.108   .     S
C493   H496    1.110   .     S
C493   H494    1.111   .     S
C493   H495    1.108   .     S
O497   C498    1.412   .     S
C498   H500    1.107   .     S
C498   H499    1.106   .     S
C498   C501    1.523   .     S
C501   H504    1.110   .     S
C501   H502    1.111   .     S
C501   H1151   1.108   .     S
H503   C1797   1.108   1_554 S
O505   C509    1.285   .     A
O505   Zn517   2.005   .     S
O506   C510    1.297   .     A
O506   Zn518   2.005   .     S
O507   Zn517   2.004   .     S
O507   C510    1.285   .     A
O508   Zn518   2.004   .     S
O508   C509    1.297   .     A
C509   C526    1.447   .     S
C510   C525    1.447   .     S
O511   C515    1.278   .     A
O511   Zn517   1.949   .     S
O512   C516    1.277   .     A
O512   Zn518   1.949   .     S
O513   C516    1.278   .     A
O513   Zn517   1.949   .     S
O514   C515    1.277   .     A
O514   Zn518   1.949   .     S
C515   C519    1.365   .     S
C516   C520    1.365   .     S
Zn517  N531    2.013   .     S
Zn518  N532    2.013   .     S
C519   C1816   1.165   1_554 S
C520   C1167   1.165   .     S
C521   C526    1.410   .     A
C521   N533    1.452   .     S
C522   C525    1.413   .     A
C522   N536    1.438   .     S
C522   C596    1.379   .     S
C523   N539    1.452   .     S
C523   C525    1.409   .     A
C523   C593    1.400   .     S
C524   N542    1.438   .     S
C524   C526    1.413   .     A
C527   N532    1.368   .     A
C527   O545    1.383   .     S
C528   N531    1.373   .     A
C528   O553    1.384   .     S
C528   C97     1.437   1_565 S
C529   N532    1.368   .     A
C529   O561    1.383   .     S
C530   N531    1.373   .     A
C530   O569    1.384   .     S
C530   C95     1.437   1_565 S
N533   O534    1.302   .     A
N533   O535    1.300   .     A
N536   O538    1.301   .     A
N536   O537    1.301   .     A
N539   O541    1.300   .     A
N539   O540    1.302   .     A
N542   O544    1.301   .     A
N542   O543    1.301   .     A
O545   C546    1.410   .     S
C546   H548    1.108   .     S
C546   H547    1.108   .     S
C546   C549    1.524   .     S
C549   H551    1.108   .     S
C549   H550    1.111   .     S
C549   H552    1.110   .     S
O553   C554    1.412   .     S
C554   H556    1.107   .     S
C554   H555    1.106   .     S
C554   C557    1.524   .     S
C557   H560    1.111   .     S
C557   H558    1.111   .     S
C557   H1855   1.108   1_554 S
H559   C1205   1.108   .     S
O561   C562    1.410   .     S
C562   C565    1.524   .     S
C562   H564    1.108   .     S
C562   H563    1.108   .     S
C565   H568    1.110   .     S
C565   H566    1.111   .     S
C565   H567    1.108   .     S
O569   C570    1.412   .     S
C570   H572    1.107   .     S
C570   H571    1.106   .     S
C570   C573    1.523   .     S
C573   H576    1.110   .     S
C573   H574    1.111   .     S
C573   H1223   1.108   .     S
H575   C1869   1.108   1_554 S
O577   C581    1.285   .     A
O577   Zn589   2.005   .     S
O578   C582    1.297   .     A
O578   Zn590   2.005   .     S
O579   Zn589   2.004   .     S
O579   C582    1.285   .     A
O580   Zn590   2.004   .     S
O580   C581    1.297   .     A
C581   C598    1.447   .     S
C582   C597    1.447   .     S
O583   C587    1.278   .     A
O583   Zn589   1.949   .     S
O584   C588    1.277   .     A
O584   Zn590   1.949   .     S
O585   C588    1.278   .     A
O585   Zn589   1.949   .     S
O586   C587    1.277   .     A
O586   Zn590   1.949   .     S
C587   C591    1.365   .     S
C588   C592    1.365   .     S
Zn589  N603    2.013   .     S
Zn590  N604    2.013   .     S
C591   C1888   1.165   1_554 S
C592   C1239   1.165   .     S
C593   C598    1.410   .     A
C593   N605    1.452   .     S
C594   C597    1.413   .     A
C594   N608    1.438   .     S
C594   C452    1.379   1_655 S
C595   N611    1.452   .     S
C595   C597    1.409   .     A
C595   C449    1.400   1_655 S
C596   N614    1.438   .     S
C596   C598    1.413   .     A
C599   N604    1.368   .     A
C599   O617    1.383   .     S
C600   N603    1.373   .     A
C600   O625    1.384   .     S
C600   C169    1.437   1_565 S
C601   N604    1.368   .     A
C601   O633    1.383   .     S
C602   N603    1.373   .     A
C602   O641    1.384   .     S
C602   C167    1.437   1_565 S
N605   O606    1.302   .     A
N605   O607    1.300   .     A
N608   O610    1.301   .     A
N608   O609    1.301   .     A
N611   O613    1.300   .     A
N611   O612    1.302   .     A
N614   O616    1.301   .     A
N614   O615    1.301   .     A
O617   C618    1.410   .     S
C618   H620    1.108   .     S
C618   H619    1.108   .     S
C618   C621    1.524   .     S
C621   H623    1.108   .     S
C621   H622    1.111   .     S
C621   H624    1.110   .     S
O625   C626    1.412   .     S
C626   H628    1.107   .     S
C626   H627    1.106   .     S
C626   C629    1.524   .     S
C629   H632    1.111   .     S
C629   H630    1.111   .     S
C629   H1927   1.108   1_554 S
H631   C1277   1.108   .     S
O633   C634    1.410   .     S
C634   C637    1.524   .     S
C634   H636    1.108   .     S
C634   H635    1.108   .     S
C637   H640    1.110   .     S
C637   H638    1.111   .     S
C637   H639    1.108   .     S
O641   C642    1.412   .     S
C642   H644    1.107   .     S
C642   H643    1.106   .     S
C642   C645    1.523   .     S
C645   H648    1.110   .     S
C645   H646    1.111   .     S
C645   H1295   1.108   .     S
H647   C1941   1.108   1_554 S
O649   C653    1.285   .     A
O649   Zn661   2.005   .     S
O650   C654    1.297   .     A
O650   Zn662   2.005   .     S
O651   Zn661   2.004   .     S
O651   C654    1.285   .     A
O652   Zn662   2.004   .     S
O652   C653    1.297   .     A
C653   C670    1.447   .     S
C654   C669    1.447   .     S
O655   C659    1.278   .     A
O655   Zn661   1.949   .     S
O656   C660    1.277   .     A
O656   Zn662   1.949   .     S
O657   C660    1.278   .     A
O657   Zn661   1.949   .     S
O658   C659    1.277   .     A
O658   Zn662   1.949   .     S
C659   C663    1.365   .     S
C660   C664    1.365   .     S
Zn661  N675    2.013   .     S
Zn662  N676    2.013   .     S
C664   C1311   1.165   .     S
C665   C670    1.410   .     A
C665   N677    1.452   .     S
C665   C811    1.400   1_455 S
C666   C669    1.413   .     A
C666   N680    1.438   .     S
C666   C740    1.379   .     S
C667   N683    1.452   .     S
C667   C669    1.409   .     A
C667   C737    1.400   .     S
C668   N686    1.438   .     S
C668   C670    1.413   .     A
C668   C810    1.379   1_455 S
C671   N676    1.368   .     A
C671   O689    1.383   .     S
C671   C1106   1.437   1_545 S
C672   N675    1.373   .     A
C672   O697    1.384   .     S
C672   C889    1.437   .     S
C673   N676    1.368   .     A
C673   O705    1.383   .     S
C673   C1104   1.437   1_545 S
C674   N675    1.373   .     A
C674   O713    1.384   .     S
C674   C887    1.437   .     S
N677   O678    1.302   .     A
N677   O679    1.300   .     A
N680   O682    1.301   .     A
N680   O681    1.301   .     A
N683   O685    1.300   .     A
N683   O684    1.302   .     A
N686   O688    1.301   .     A
N686   O687    1.301   .     A
O689   C690    1.410   .     S
C690   H692    1.108   .     S
C690   H691    1.108   .     S
C690   C693    1.524   .     S
C693   H695    1.108   .     S
C693   H694    1.111   .     S
C693   H696    1.110   .     S
O697   C698    1.412   .     S
C698   H700    1.107   .     S
C698   H699    1.106   .     S
C698   C701    1.524   .     S
C701   H704    1.111   .     S
C701   H702    1.111   .     S
H703   C1349   1.108   .     S
O705   C706    1.410   .     S
C706   C709    1.524   .     S
C706   H708    1.108   .     S
C706   H707    1.108   .     S
C709   H712    1.110   .     S
C709   H710    1.111   .     S
C709   H711    1.108   .     S
O713   C714    1.412   .     S
C714   H716    1.107   .     S
C714   H715    1.106   .     S
C714   C717    1.523   .     S
C717   H720    1.110   .     S
C717   H718    1.111   .     S
C717   H1367   1.108   .     S
O721   C725    1.285   .     A
O721   Zn733   2.005   .     S
O722   C726    1.297   .     A
O722   Zn734   2.005   .     S
O723   Zn733   2.004   .     S
O723   C726    1.285   .     A
O724   Zn734   2.004   .     S
O724   C725    1.297   .     A
C725   C742    1.447   .     S
C726   C741    1.447   .     S
O727   C731    1.278   .     A
O727   Zn733   1.949   .     S
O728   C732    1.277   .     A
O728   Zn734   1.949   .     S
O729   C732    1.278   .     A
O729   Zn733   1.949   .     S
O730   C731    1.277   .     A
O730   Zn734   1.949   .     S
C731   C735    1.365   .     S
C732   C736    1.365   .     S
Zn733  N747    2.013   .     S
Zn734  N748    2.013   .     S
C736   C1383   1.165   .     S
C737   C742    1.410   .     A
C737   N749    1.452   .     S
C738   C741    1.413   .     A
C738   N752    1.438   .     S
C738   C812    1.379   .     S
C739   N755    1.452   .     S
C739   C741    1.409   .     A
C739   C809    1.400   .     S
C740   N758    1.438   .     S
C740   C742    1.413   .     A
C743   N748    1.368   .     A
C743   O761    1.383   .     S
C743   C1178   1.437   1_545 S
C744   N747    1.373   .     A
C744   O769    1.384   .     S
C744   C961    1.437   .     S
C745   N748    1.368   .     A
C745   O777    1.383   .     S
C745   C1176   1.437   1_545 S
C746   N747    1.373   .     A
C746   O785    1.384   .     S
C746   C959    1.437   .     S
N749   O750    1.302   .     A
N749   O751    1.300   .     A
N752   O754    1.301   .     A
N752   O753    1.301   .     A
N755   O757    1.300   .     A
N755   O756    1.302   .     A
N758   O760    1.301   .     A
N758   O759    1.301   .     A
O761   C762    1.410   .     S
C762   H764    1.108   .     S
C762   H763    1.108   .     S
C762   C765    1.524   .     S
C765   H767    1.108   .     S
C765   H766    1.111   .     S
C765   H768    1.110   .     S
O769   C770    1.412   .     S
C770   H772    1.107   .     S
C770   H771    1.106   .     S
C770   C773    1.524   .     S
C773   H776    1.111   .     S
C773   H774    1.111   .     S
H775   C1421   1.108   .     S
O777   C778    1.410   .     S
C778   C781    1.524   .     S
C778   H780    1.108   .     S
C778   H779    1.108   .     S
C781   H784    1.110   .     S
C781   H782    1.111   .     S
C781   H783    1.108   .     S
O785   C786    1.412   .     S
C786   H788    1.107   .     S
C786   H787    1.106   .     S
C786   C789    1.523   .     S
C789   H792    1.110   .     S
C789   H790    1.111   .     S
C789   H1439   1.108   .     S
O793   C797    1.285   .     A
O793   Zn805   2.005   .     S
O794   C798    1.297   .     A
O794   Zn806   2.005   .     S
O795   Zn805   2.004   .     S
O795   C798    1.285   .     A
O796   Zn806   2.004   .     S
O796   C797    1.297   .     A
C797   C814    1.447   .     S
C798   C813    1.447   .     S
O799   C803    1.278   .     A
O799   Zn805   1.949   .     S
O800   C804    1.277   .     A
O800   Zn806   1.949   .     S
O801   C804    1.278   .     A
O801   Zn805   1.949   .     S
O802   C803    1.277   .     A
O802   Zn806   1.949   .     S
C803   C807    1.365   .     S
C804   C808    1.365   .     S
Zn805  N819    2.013   .     S
Zn806  N820    2.013   .     S
C808   C1455   1.165   .     S
C809   C814    1.410   .     A
C809   N821    1.452   .     S
C810   C813    1.413   .     A
C810   N824    1.438   .     S
C810   C668    1.379   1_655 S
C811   N827    1.452   .     S
C811   C813    1.409   .     A
C811   C665    1.400   1_655 S
C812   N830    1.438   .     S
C812   C814    1.413   .     A
C815   N820    1.368   .     A
C815   O833    1.383   .     S
C815   C1250   1.437   1_545 S
C816   N819    1.373   .     A
C816   O841    1.384   .     S
C816   C1033   1.437   .     S
C817   N820    1.368   .     A
C817   O849    1.383   .     S
C817   C1248   1.437   1_545 S
C818   N819    1.373   .     A
C818   O857    1.384   .     S
C818   C1031   1.437   .     S
N821   O822    1.302   .     A
N821   O823    1.300   .     A
N824   O826    1.301   .     A
N824   O825    1.301   .     A
N827   O829    1.300   .     A
N827   O828    1.302   .     A
N830   O832    1.301   .     A
N830   O831    1.301   .     A
O833   C834    1.410   .     S
C834   H836    1.108   .     S
C834   H835    1.108   .     S
C834   C837    1.524   .     S
C837   H839    1.108   .     S
C837   H838    1.111   .     S
C837   H840    1.110   .     S
O841   C842    1.412   .     S
C842   H844    1.107   .     S
C842   H843    1.106   .     S
C842   C845    1.524   .     S
C845   H848    1.111   .     S
C845   H846    1.111   .     S
H847   C1493   1.108   .     S
O849   C850    1.410   .     S
C850   C853    1.524   .     S
C850   H852    1.108   .     S
C850   H851    1.108   .     S
C853   H856    1.110   .     S
C853   H854    1.111   .     S
C853   H855    1.108   .     S
O857   C858    1.412   .     S
C858   H860    1.107   .     S
C858   H859    1.106   .     S
C858   C861    1.523   .     S
C861   H864    1.110   .     S
C861   H862    1.111   .     S
C861   H1511   1.108   .     S
O865   C869    1.285   .     A
O865   Zn877   2.005   .     S
O866   C870    1.297   .     A
O866   Zn878   2.005   .     S
O867   Zn877   2.004   .     S
O867   C870    1.285   .     A
O868   Zn878   2.004   .     S
O868   C869    1.297   .     A
C869   C886    1.447   .     S
C870   C885    1.447   .     S
O871   C875    1.278   .     A
O871   Zn877   1.949   .     S
O872   C876    1.277   .     A
O872   Zn878   1.949   .     S
O873   C876    1.278   .     A
O873   Zn877   1.949   .     S
O874   C875    1.277   .     A
O874   Zn878   1.949   .     S
C875   C879    1.365   .     S
C876   C880    1.365   .     S
Zn877  N891    2.013   .     S
Zn878  N892    2.013   .     S
C880   C1527   1.165   .     S
C881   C886    1.410   .     A
C881   N893    1.452   .     S
C881   C1027   1.400   1_455 S
C882   C885    1.413   .     A
C882   N896    1.438   .     S
C882   C956    1.379   .     S
C883   N899    1.452   .     S
C883   C885    1.409   .     A
C883   C953    1.400   .     S
C884   N902    1.438   .     S
C884   C886    1.413   .     A
C884   C1026   1.379   1_455 S
C887   N892    1.368   .     A
C887   O905    1.383   .     S
C888   N891    1.373   .     A
C888   O913    1.384   .     S
C888   C1105   1.437   .     S
C889   N892    1.368   .     A
C889   O921    1.383   .     S
C890   N891    1.373   .     A
C890   O929    1.384   .     S
C890   C1103   1.437   .     S
N893   O894    1.302   .     A
N893   O895    1.300   .     A
N896   O898    1.301   .     A
N896   O897    1.301   .     A
N899   O901    1.300   .     A
N899   O900    1.302   .     A
N902   O904    1.301   .     A
N902   O903    1.301   .     A
O905   C906    1.410   .     S
C906   H908    1.108   .     S
C906   H907    1.108   .     S
C906   C909    1.524   .     S
C909   H911    1.108   .     S
C909   H910    1.111   .     S
C909   H912    1.110   .     S
O913   C914    1.412   .     S
C914   H916    1.107   .     S
C914   H915    1.106   .     S
C914   C917    1.524   .     S
C917   H920    1.111   .     S
C917   H918    1.111   .     S
H919   C1565   1.108   .     S
O921   C922    1.410   .     S
C922   C925    1.524   .     S
C922   H924    1.108   .     S
C922   H923    1.108   .     S
C925   H928    1.110   .     S
C925   H926    1.111   .     S
C925   H927    1.108   .     S
O929   C930    1.412   .     S
C930   H932    1.107   .     S
C930   H931    1.106   .     S
C930   C933    1.523   .     S
C933   H936    1.110   .     S
C933   H934    1.111   .     S
C933   H1583   1.108   .     S
O937   C941    1.285   .     A
O937   Zn949   2.005   .     S
O938   C942    1.297   .     A
O938   Zn950   2.005   .     S
O939   Zn949   2.004   .     S
O939   C942    1.285   .     A
O940   Zn950   2.004   .     S
O940   C941    1.297   .     A
C941   C958    1.447   .     S
C942   C957    1.447   .     S
O943   C947    1.278   .     A
O943   Zn949   1.949   .     S
O944   C948    1.277   .     A
O944   Zn950   1.949   .     S
O945   C948    1.278   .     A
O945   Zn949   1.949   .     S
O946   C947    1.277   .     A
O946   Zn950   1.949   .     S
C947   C951    1.365   .     S
C948   C952    1.365   .     S
Zn949  N963    2.013   .     S
Zn950  N964    2.013   .     S
C952   C1599   1.165   .     S
C953   C958    1.410   .     A
C953   N965    1.452   .     S
C954   C957    1.413   .     A
C954   N968    1.438   .     S
C954   C1028   1.379   .     S
C955   N971    1.452   .     S
C955   C957    1.409   .     A
C955   C1025   1.400   .     S
C956   N974    1.438   .     S
C956   C958    1.413   .     A
C959   N964    1.368   .     A
C959   O977    1.383   .     S
C960   N963    1.373   .     A
C960   O985    1.384   .     S
C960   C1177   1.437   .     S
C961   N964    1.368   .     A
C961   O993    1.383   .     S
C962   N963    1.373   .     A
C962   O1001   1.384   .     S
C962   C1175   1.437   .     S
N965   O966    1.302   .     A
N965   O967    1.300   .     A
N968   O970    1.301   .     A
N968   O969    1.301   .     A
N971   O973    1.300   .     A
N971   O972    1.302   .     A
N974   O976    1.301   .     A
N974   O975    1.301   .     A
O977   C978    1.410   .     S
C978   H980    1.108   .     S
C978   H979    1.108   .     S
C978   C981    1.524   .     S
C981   H983    1.108   .     S
C981   H982    1.111   .     S
C981   H984    1.110   .     S
O985   C986    1.412   .     S
C986   H988    1.107   .     S
C986   H987    1.106   .     S
C986   C989    1.524   .     S
C989   H992    1.111   .     S
C989   H990    1.111   .     S
H991   C1637   1.108   .     S
O993   C994    1.410   .     S
C994   C997    1.524   .     S
C994   H996    1.108   .     S
C994   H995    1.108   .     S
C997   H1000   1.110   .     S
C997   H998    1.111   .     S
C997   H999    1.108   .     S
O1001  C1002   1.412   .     S
C1002  H1004   1.107   .     S
C1002  H1003   1.106   .     S
C1002  C1005   1.523   .     S
C1005  H1008   1.110   .     S
C1005  H1006   1.111   .     S
C1005  H1655   1.108   .     S
O1009  C1013   1.285   .     A
O1009  Zn1021  2.005   .     S
O1010  C1014   1.297   .     A
O1010  Zn1022  2.005   .     S
O1011  Zn1021  2.004   .     S
O1011  C1014   1.285   .     A
O1012  Zn1022  2.004   .     S
O1012  C1013   1.297   .     A
C1013  C1030   1.447   .     S
C1014  C1029   1.447   .     S
O1015  C1019   1.278   .     A
O1015  Zn1021  1.949   .     S
O1016  C1020   1.277   .     A
O1016  Zn1022  1.949   .     S
O1017  C1020   1.278   .     A
O1017  Zn1021  1.949   .     S
O1018  C1019   1.277   .     A
O1018  Zn1022  1.949   .     S
C1019  C1023   1.365   .     S
C1020  C1024   1.365   .     S
Zn1021 N1035   2.013   .     S
Zn1022 N1036   2.013   .     S
C1024  C1671   1.165   .     S
C1025  C1030   1.410   .     A
C1025  N1037   1.452   .     S
C1026  C1029   1.413   .     A
C1026  N1040   1.438   .     S
C1026  C884    1.379   1_655 S
C1027  N1043   1.452   .     S
C1027  C1029   1.409   .     A
C1027  C881    1.400   1_655 S
C1028  N1046   1.438   .     S
C1028  C1030   1.413   .     A
C1031  N1036   1.368   .     A
C1031  O1049   1.383   .     S
C1032  N1035   1.373   .     A
C1032  O1057   1.384   .     S
C1032  C1249   1.437   .     S
C1033  N1036   1.368   .     A
C1033  O1065   1.383   .     S
C1034  N1035   1.373   .     A
C1034  O1073   1.384   .     S
C1034  C1247   1.437   .     S
N1037  O1038   1.302   .     A
N1037  O1039   1.300   .     A
N1040  O1042   1.301   .     A
N1040  O1041   1.301   .     A
N1043  O1045   1.300   .     A
N1043  O1044   1.302   .     A
N1046  O1048   1.301   .     A
N1046  O1047   1.301   .     A
O1049  C1050   1.410   .     S
C1050  H1052   1.108   .     S
C1050  H1051   1.108   .     S
C1050  C1053   1.524   .     S
C1053  H1055   1.108   .     S
C1053  H1054   1.111   .     S
C1053  H1056   1.110   .     S
O1057  C1058   1.412   .     S
C1058  H1060   1.107   .     S
C1058  H1059   1.106   .     S
C1058  C1061   1.524   .     S
C1061  H1064   1.111   .     S
C1061  H1062   1.111   .     S
H1063  C1709   1.108   .     S
O1065  C1066   1.410   .     S
C1066  C1069   1.524   .     S
C1066  H1068   1.108   .     S
C1066  H1067   1.108   .     S
C1069  H1072   1.110   .     S
C1069  H1070   1.111   .     S
C1069  H1071   1.108   .     S
O1073  C1074   1.412   .     S
C1074  H1076   1.107   .     S
C1074  H1075   1.106   .     S
C1074  C1077   1.523   .     S
C1077  H1080   1.110   .     S
C1077  H1078   1.111   .     S
C1077  H1727   1.108   .     S
O1081  C1085   1.285   .     A
O1081  Zn1093  2.005   .     S
O1082  C1086   1.297   .     A
O1082  Zn1094  2.005   .     S
O1083  Zn1093  2.004   .     S
O1083  C1086   1.285   .     A
O1084  Zn1094  2.004   .     S
O1084  C1085   1.297   .     A
C1085  C1102   1.447   .     S
C1086  C1101   1.447   .     S
O1087  C1091   1.278   .     A
O1087  Zn1093  1.949   .     S
O1088  C1092   1.277   .     A
O1088  Zn1094  1.949   .     S
O1089  C1092   1.278   .     A
O1089  Zn1093  1.949   .     S
O1090  C1091   1.277   .     A
O1090  Zn1094  1.949   .     S
C1091  C1095   1.365   .     S
C1092  C1096   1.365   .     S
Zn1093 N1107   2.013   .     S
Zn1094 N1108   2.013   .     S
C1096  C1743   1.165   .     S
C1097  C1102   1.410   .     A
C1097  N1109   1.452   .     S
C1097  C1243   1.400   1_455 S
C1098  C1101   1.413   .     A
C1098  N1112   1.438   .     S
C1098  C1172   1.379   .     S
C1099  N1115   1.452   .     S
C1099  C1101   1.409   .     A
C1099  C1169   1.400   .     S
C1100  N1118   1.438   .     S
C1100  C1102   1.413   .     A
C1100  C1242   1.379   1_455 S
C1103  N1108   1.368   .     A
C1103  O1121   1.383   .     S
C1104  N1107   1.373   .     A
C1104  O1129   1.384   .     S
C1104  C673    1.437   1_565 S
C1105  N1108   1.368   .     A
C1105  O1137   1.383   .     S
C1106  N1107   1.373   .     A
C1106  O1145   1.384   .     S
C1106  C671    1.437   1_565 S
N1109  O1110   1.302   .     A
N1109  O1111   1.300   .     A
N1112  O1114   1.301   .     A
N1112  O1113   1.301   .     A
N1115  O1117   1.300   .     A
N1115  O1116   1.302   .     A
N1118  O1120   1.301   .     A
N1118  O1119   1.301   .     A
O1121  C1122   1.410   .     S
C1122  H1124   1.108   .     S
C1122  H1123   1.108   .     S
C1122  C1125   1.524   .     S
C1125  H1127   1.108   .     S
C1125  H1126   1.111   .     S
C1125  H1128   1.110   .     S
O1129  C1130   1.412   .     S
C1130  H1132   1.107   .     S
C1130  H1131   1.106   .     S
C1130  C1133   1.524   .     S
C1133  H1136   1.111   .     S
C1133  H1134   1.111   .     S
H1135  C1781   1.108   .     S
O1137  C1138   1.410   .     S
C1138  C1141   1.524   .     S
C1138  H1140   1.108   .     S
C1138  H1139   1.108   .     S
C1141  H1144   1.110   .     S
C1141  H1142   1.111   .     S
C1141  H1143   1.108   .     S
O1145  C1146   1.412   .     S
C1146  H1148   1.107   .     S
C1146  H1147   1.106   .     S
C1146  C1149   1.523   .     S
C1149  H1152   1.110   .     S
C1149  H1150   1.111   .     S
C1149  H1799   1.108   .     S
O1153  C1157   1.285   .     A
O1153  Zn1165  2.005   .     S
O1154  C1158   1.297   .     A
O1154  Zn1166  2.005   .     S
O1155  Zn1165  2.004   .     S
O1155  C1158   1.285   .     A
O1156  Zn1166  2.004   .     S
O1156  C1157   1.297   .     A
C1157  C1174   1.447   .     S
C1158  C1173   1.447   .     S
O1159  C1163   1.278   .     A
O1159  Zn1165  1.949   .     S
O1160  C1164   1.277   .     A
O1160  Zn1166  1.949   .     S
O1161  C1164   1.278   .     A
O1161  Zn1165  1.949   .     S
O1162  C1163   1.277   .     A
O1162  Zn1166  1.949   .     S
C1163  C1167   1.365   .     S
C1164  C1168   1.365   .     S
Zn1165 N1179   2.013   .     S
Zn1166 N1180   2.013   .     S
C1168  C1815   1.165   .     S
C1169  C1174   1.410   .     A
C1169  N1181   1.452   .     S
C1170  C1173   1.413   .     A
C1170  N1184   1.438   .     S
C1170  C1244   1.379   .     S
C1171  N1187   1.452   .     S
C1171  C1173   1.409   .     A
C1171  C1241   1.400   .     S
C1172  N1190   1.438   .     S
C1172  C1174   1.413   .     A
C1175  N1180   1.368   .     A
C1175  O1193   1.383   .     S
C1176  N1179   1.373   .     A
C1176  O1201   1.384   .     S
C1176  C745    1.437   1_565 S
C1177  N1180   1.368   .     A
C1177  O1209   1.383   .     S
C1178  N1179   1.373   .     A
C1178  O1217   1.384   .     S
C1178  C743    1.437   1_565 S
N1181  O1182   1.302   .     A
N1181  O1183   1.300   .     A
N1184  O1186   1.301   .     A
N1184  O1185   1.301   .     A
N1187  O1189   1.300   .     A
N1187  O1188   1.302   .     A
N1190  O1192   1.301   .     A
N1190  O1191   1.301   .     A
O1193  C1194   1.410   .     S
C1194  H1196   1.108   .     S
C1194  H1195   1.108   .     S
C1194  C1197   1.524   .     S
C1197  H1199   1.108   .     S
C1197  H1198   1.111   .     S
C1197  H1200   1.110   .     S
O1201  C1202   1.412   .     S
C1202  H1204   1.107   .     S
C1202  H1203   1.106   .     S
C1202  C1205   1.524   .     S
C1205  H1208   1.111   .     S
C1205  H1206   1.111   .     S
H1207  C1853   1.108   .     S
O1209  C1210   1.410   .     S
C1210  C1213   1.524   .     S
C1210  H1212   1.108   .     S
C1210  H1211   1.108   .     S
C1213  H1216   1.110   .     S
C1213  H1214   1.111   .     S
C1213  H1215   1.108   .     S
O1217  C1218   1.412   .     S
C1218  H1220   1.107   .     S
C1218  H1219   1.106   .     S
C1218  C1221   1.523   .     S
C1221  H1224   1.110   .     S
C1221  H1222   1.111   .     S
C1221  H1871   1.108   .     S
O1225  C1229   1.285   .     A
O1225  Zn1237  2.005   .     S
O1226  C1230   1.297   .     A
O1226  Zn1238  2.005   .     S
O1227  Zn1237  2.004   .     S
O1227  C1230   1.285   .     A
O1228  Zn1238  2.004   .     S
O1228  C1229   1.297   .     A
C1229  C1246   1.447   .     S
C1230  C1245   1.447   .     S
O1231  C1235   1.278   .     A
O1231  Zn1237  1.949   .     S
O1232  C1236   1.277   .     A
O1232  Zn1238  1.949   .     S
O1233  C1236   1.278   .     A
O1233  Zn1237  1.949   .     S
O1234  C1235   1.277   .     A
O1234  Zn1238  1.949   .     S
C1235  C1239   1.365   .     S
C1236  C1240   1.365   .     S
Zn1237 N1251   2.013   .     S
Zn1238 N1252   2.013   .     S
C1240  C1887   1.165   .     S
C1241  C1246   1.410   .     A
C1241  N1253   1.452   .     S
C1242  C1245   1.413   .     A
C1242  N1256   1.438   .     S
C1242  C1100   1.379   1_655 S
C1243  N1259   1.452   .     S
C1243  C1245   1.409   .     A
C1243  C1097   1.400   1_655 S
C1244  N1262   1.438   .     S
C1244  C1246   1.413   .     A
C1247  N1252   1.368   .     A
C1247  O1265   1.383   .     S
C1248  N1251   1.373   .     A
C1248  O1273   1.384   .     S
C1248  C817    1.437   1_565 S
C1249  N1252   1.368   .     A
C1249  O1281   1.383   .     S
C1250  N1251   1.373   .     A
C1250  O1289   1.384   .     S
C1250  C815    1.437   1_565 S
N1253  O1254   1.302   .     A
N1253  O1255   1.300   .     A
N1256  O1258   1.301   .     A
N1256  O1257   1.301   .     A
N1259  O1261   1.300   .     A
N1259  O1260   1.302   .     A
N1262  O1264   1.301   .     A
N1262  O1263   1.301   .     A
O1265  C1266   1.410   .     S
C1266  H1268   1.108   .     S
C1266  H1267   1.108   .     S
C1266  C1269   1.524   .     S
C1269  H1271   1.108   .     S
C1269  H1270   1.111   .     S
C1269  H1272   1.110   .     S
O1273  C1274   1.412   .     S
C1274  H1276   1.107   .     S
C1274  H1275   1.106   .     S
C1274  C1277   1.524   .     S
C1277  H1280   1.111   .     S
C1277  H1278   1.111   .     S
H1279  C1925   1.108   .     S
O1281  C1282   1.410   .     S
C1282  C1285   1.524   .     S
C1282  H1284   1.108   .     S
C1282  H1283   1.108   .     S
C1285  H1288   1.110   .     S
C1285  H1286   1.111   .     S
C1285  H1287   1.108   .     S
O1289  C1290   1.412   .     S
C1290  H1292   1.107   .     S
C1290  H1291   1.106   .     S
C1290  C1293   1.523   .     S
C1293  H1296   1.110   .     S
C1293  H1294   1.111   .     S
C1293  H1943   1.108   .     S
O1297  C1301   1.285   .     A
O1297  Zn1309  2.005   .     S
O1298  C1302   1.297   .     A
O1298  Zn1310  2.005   .     S
O1299  Zn1309  2.004   .     S
O1299  C1302   1.285   .     A
O1300  Zn1310  2.004   .     S
O1300  C1301   1.297   .     A
C1301  C1318   1.447   .     S
C1302  C1317   1.447   .     S
O1303  C1307   1.278   .     A
O1303  Zn1309  1.949   .     S
O1304  C1308   1.277   .     A
O1304  Zn1310  1.949   .     S
O1305  C1308   1.278   .     A
O1305  Zn1309  1.949   .     S
O1306  C1307   1.277   .     A
O1306  Zn1310  1.949   .     S
C1307  C1311   1.365   .     S
C1308  C1312   1.365   .     S
Zn1309 N1323   2.013   .     S
Zn1310 N1324   2.013   .     S
C1312  C15     1.165   1_556 S
C1313  C1318   1.410   .     A
C1313  N1325   1.452   .     S
C1313  C1459   1.400   1_455 S
C1314  C1317   1.413   .     A
C1314  N1328   1.438   .     S
C1314  C1388   1.379   .     S
C1315  N1331   1.452   .     S
C1315  C1317   1.409   .     A
C1315  C1385   1.400   .     S
C1316  N1334   1.438   .     S
C1316  C1318   1.413   .     A
C1316  C1458   1.379   1_455 S
C1319  N1324   1.368   .     A
C1319  O1337   1.383   .     S
C1319  C1754   1.437   1_545 S
C1320  N1323   1.373   .     A
C1320  O1345   1.384   .     S
C1320  C1537   1.437   .     S
C1321  N1324   1.368   .     A
C1321  O1353   1.383   .     S
C1321  C1752   1.437   1_545 S
C1322  N1323   1.373   .     A
C1322  O1361   1.384   .     S
C1322  C1535   1.437   .     S
N1325  O1326   1.302   .     A
N1325  O1327   1.300   .     A
N1328  O1330   1.301   .     A
N1328  O1329   1.301   .     A
N1331  O1333   1.300   .     A
N1331  O1332   1.302   .     A
N1334  O1336   1.301   .     A
N1334  O1335   1.301   .     A
O1337  C1338   1.410   .     S
C1338  H1340   1.108   .     S
C1338  H1339   1.108   .     S
C1338  C1341   1.524   .     S
C1341  H1343   1.108   .     S
C1341  H1342   1.111   .     S
C1341  H1344   1.110   .     S
O1345  C1346   1.412   .     S
C1346  H1348   1.107   .     S
C1346  H1347   1.106   .     S
C1346  C1349   1.524   .     S
C1349  H1352   1.111   .     S
C1349  H1350   1.111   .     S
H1351  C53     1.108   1_556 S
O1353  C1354   1.410   .     S
C1354  C1357   1.524   .     S
C1354  H1356   1.108   .     S
C1354  H1355   1.108   .     S
C1357  H1360   1.110   .     S
C1357  H1358   1.111   .     S
C1357  H1359   1.108   .     S
O1361  C1362   1.412   .     S
C1362  H1364   1.107   .     S
C1362  H1363   1.106   .     S
C1362  C1365   1.523   .     S
C1365  H1368   1.110   .     S
C1365  H1366   1.111   .     S
C1365  H71     1.108   1_556 S
O1369  C1373   1.285   .     A
O1369  Zn1381  2.005   .     S
O1370  C1374   1.297   .     A
O1370  Zn1382  2.005   .     S
O1371  Zn1381  2.004   .     S
O1371  C1374   1.285   .     A
O1372  Zn1382  2.004   .     S
O1372  C1373   1.297   .     A
C1373  C1390   1.447   .     S
C1374  C1389   1.447   .     S
O1375  C1379   1.278   .     A
O1375  Zn1381  1.949   .     S
O1376  C1380   1.277   .     A
O1376  Zn1382  1.949   .     S
O1377  C1380   1.278   .     A
O1377  Zn1381  1.949   .     S
O1378  C1379   1.277   .     A
O1378  Zn1382  1.949   .     S
C1379  C1383   1.365   .     S
C1380  C1384   1.365   .     S
Zn1381 N1395   2.013   .     S
Zn1382 N1396   2.013   .     S
C1384  C87     1.165   1_556 S
C1385  C1390   1.410   .     A
C1385  N1397   1.452   .     S
C1386  C1389   1.413   .     A
C1386  N1400   1.438   .     S
C1386  C1460   1.379   .     S
C1387  N1403   1.452   .     S
C1387  C1389   1.409   .     A
C1387  C1457   1.400   .     S
C1388  N1406   1.438   .     S
C1388  C1390   1.413   .     A
C1391  N1396   1.368   .     A
C1391  O1409   1.383   .     S
C1391  C1826   1.437   1_545 S
C1392  N1395   1.373   .     A
C1392  O1417   1.384   .     S
C1392  C1609   1.437   .     S
C1393  N1396   1.368   .     A
C1393  O1425   1.383   .     S
C1393  C1824   1.437   1_545 S
C1394  N1395   1.373   .     A
C1394  O1433   1.384   .     S
C1394  C1607   1.437   .     S
N1397  O1398   1.302   .     A
N1397  O1399   1.300   .     A
N1400  O1402   1.301   .     A
N1400  O1401   1.301   .     A
N1403  O1405   1.300   .     A
N1403  O1404   1.302   .     A
N1406  O1408   1.301   .     A
N1406  O1407   1.301   .     A
O1409  C1410   1.410   .     S
C1410  H1412   1.108   .     S
C1410  H1411   1.108   .     S
C1410  C1413   1.524   .     S
C1413  H1415   1.108   .     S
C1413  H1414   1.111   .     S
C1413  H1416   1.110   .     S
O1417  C1418   1.412   .     S
C1418  H1420   1.107   .     S
C1418  H1419   1.106   .     S
C1418  C1421   1.524   .     S
C1421  H1424   1.111   .     S
C1421  H1422   1.111   .     S
H1423  C125    1.108   1_556 S
O1425  C1426   1.410   .     S
C1426  C1429   1.524   .     S
C1426  H1428   1.108   .     S
C1426  H1427   1.108   .     S
C1429  H1432   1.110   .     S
C1429  H1430   1.111   .     S
C1429  H1431   1.108   .     S
O1433  C1434   1.412   .     S
C1434  H1436   1.107   .     S
C1434  H1435   1.106   .     S
C1434  C1437   1.523   .     S
C1437  H1440   1.110   .     S
C1437  H1438   1.111   .     S
C1437  H143    1.108   1_556 S
O1441  C1445   1.285   .     A
O1441  Zn1453  2.005   .     S
O1442  C1446   1.297   .     A
O1442  Zn1454  2.005   .     S
O1443  Zn1453  2.004   .     S
O1443  C1446   1.285   .     A
O1444  Zn1454  2.004   .     S
O1444  C1445   1.297   .     A
C1445  C1462   1.447   .     S
C1446  C1461   1.447   .     S
O1447  C1451   1.278   .     A
O1447  Zn1453  1.949   .     S
O1448  C1452   1.277   .     A
O1448  Zn1454  1.949   .     S
O1449  C1452   1.278   .     A
O1449  Zn1453  1.949   .     S
O1450  C1451   1.277   .     A
O1450  Zn1454  1.949   .     S
C1451  C1455   1.365   .     S
C1452  C1456   1.365   .     S
Zn1453 N1467   2.013   .     S
Zn1454 N1468   2.013   .     S
C1456  C159    1.165   1_556 S
C1457  C1462   1.410   .     A
C1457  N1469   1.452   .     S
C1458  C1461   1.413   .     A
C1458  N1472   1.438   .     S
C1458  C1316   1.379   1_655 S
C1459  N1475   1.452   .     S
C1459  C1461   1.409   .     A
C1459  C1313   1.400   1_655 S
C1460  N1478   1.438   .     S
C1460  C1462   1.413   .     A
C1463  N1468   1.368   .     A
C1463  O1481   1.383   .     S
C1463  C1898   1.437   1_545 S
C1464  N1467   1.373   .     A
C1464  O1489   1.384   .     S
C1464  C1681   1.437   .     S
C1465  N1468   1.368   .     A
C1465  O1497   1.383   .     S
C1465  C1896   1.437   1_545 S
C1466  N1467   1.373   .     A
C1466  O1505   1.384   .     S
C1466  C1679   1.437   .     S
N1469  O1470   1.302   .     A
N1469  O1471   1.300   .     A
N1472  O1474   1.301   .     A
N1472  O1473   1.301   .     A
N1475  O1477   1.300   .     A
N1475  O1476   1.302   .     A
N1478  O1480   1.301   .     A
N1478  O1479   1.301   .     A
O1481  C1482   1.410   .     S
C1482  H1484   1.108   .     S
C1482  H1483   1.108   .     S
C1482  C1485   1.524   .     S
C1485  H1487   1.108   .     S
C1485  H1486   1.111   .     S
C1485  H1488   1.110   .     S
O1489  C1490   1.412   .     S
C1490  H1492   1.107   .     S
C1490  H1491   1.106   .     S
C1490  C1493   1.524   .     S
C1493  H1496   1.111   .     S
C1493  H1494   1.111   .     S
H1495  C197    1.108   1_556 S
O1497  C1498   1.410   .     S
C1498  C1501   1.524   .     S
C1498  H1500   1.108   .     S
C1498  H1499   1.108   .     S
C1501  H1504   1.110   .     S
C1501  H1502   1.111   .     S
C1501  H1503   1.108   .     S
O1505  C1506   1.412   .     S
C1506  H1508   1.107   .     S
C1506  H1507   1.106   .     S
C1506  C1509   1.523   .     S
C1509  H1512   1.110   .     S
C1509  H1510   1.111   .     S
C1509  H215    1.108   1_556 S
O1513  C1517   1.285   .     A
O1513  Zn1525  2.005   .     S
O1514  C1518   1.297   .     A
O1514  Zn1526  2.005   .     S
O1515  Zn1525  2.004   .     S
O1515  C1518   1.285   .     A
O1516  Zn1526  2.004   .     S
O1516  C1517   1.297   .     A
C1517  C1534   1.447   .     S
C1518  C1533   1.447   .     S
O1519  C1523   1.278   .     A
O1519  Zn1525  1.949   .     S
O1520  C1524   1.277   .     A
O1520  Zn1526  1.949   .     S
O1521  C1524   1.278   .     A
O1521  Zn1525  1.949   .     S
O1522  C1523   1.277   .     A
O1522  Zn1526  1.949   .     S
C1523  C1527   1.365   .     S
C1524  C1528   1.365   .     S
Zn1525 N1539   2.013   .     S
Zn1526 N1540   2.013   .     S
C1528  C231    1.165   1_556 S
C1529  C1534   1.410   .     A
C1529  N1541   1.452   .     S
C1529  C1675   1.400   1_455 S
C1530  C1533   1.413   .     A
C1530  N1544   1.438   .     S
C1530  C1604   1.379   .     S
C1531  N1547   1.452   .     S
C1531  C1533   1.409   .     A
C1531  C1601   1.400   .     S
C1532  N1550   1.438   .     S
C1532  C1534   1.413   .     A
C1532  C1674   1.379   1_455 S
C1535  N1540   1.368   .     A
C1535  O1553   1.383   .     S
C1536  N1539   1.373   .     A
C1536  O1561   1.384   .     S
C1536  C1753   1.437   .     S
C1537  N1540   1.368   .     A
C1537  O1569   1.383   .     S
C1538  N1539   1.373   .     A
C1538  O1577   1.384   .     S
C1538  C1751   1.437   .     S
N1541  O1542   1.302   .     A
N1541  O1543   1.300   .     A
N1544  O1546   1.301   .     A
N1544  O1545   1.301   .     A
N1547  O1549   1.300   .     A
N1547  O1548   1.302   .     A
N1550  O1552   1.301   .     A
N1550  O1551   1.301   .     A
O1553  C1554   1.410   .     S
C1554  H1556   1.108   .     S
C1554  H1555   1.108   .     S
C1554  C1557   1.524   .     S
C1557  H1559   1.108   .     S
C1557  H1558   1.111   .     S
C1557  H1560   1.110   .     S
O1561  C1562   1.412   .     S
C1562  H1564   1.107   .     S
C1562  H1563   1.106   .     S
C1562  C1565   1.524   .     S
C1565  H1568   1.111   .     S
C1565  H1566   1.111   .     S
H1567  C269    1.108   1_556 S
O1569  C1570   1.410   .     S
C1570  C1573   1.524   .     S
C1570  H1572   1.108   .     S
C1570  H1571   1.108   .     S
C1573  H1576   1.110   .     S
C1573  H1574   1.111   .     S
C1573  H1575   1.108   .     S
O1577  C1578   1.412   .     S
C1578  H1580   1.107   .     S
C1578  H1579   1.106   .     S
C1578  C1581   1.523   .     S
C1581  H1584   1.110   .     S
C1581  H1582   1.111   .     S
C1581  H287    1.108   1_556 S
O1585  C1589   1.285   .     A
O1585  Zn1597  2.005   .     S
O1586  C1590   1.297   .     A
O1586  Zn1598  2.005   .     S
O1587  Zn1597  2.004   .     S
O1587  C1590   1.285   .     A
O1588  Zn1598  2.004   .     S
O1588  C1589   1.297   .     A
C1589  C1606   1.447   .     S
C1590  C1605   1.447   .     S
O1591  C1595   1.278   .     A
O1591  Zn1597  1.949   .     S
O1592  C1596   1.277   .     A
O1592  Zn1598  1.949   .     S
O1593  C1596   1.278   .     A
O1593  Zn1597  1.949   .     S
O1594  C1595   1.277   .     A
O1594  Zn1598  1.949   .     S
C1595  C1599   1.365   .     S
C1596  C1600   1.365   .     S
Zn1597 N1611   2.013   .     S
Zn1598 N1612   2.013   .     S
C1600  C303    1.165   1_556 S
C1601  C1606   1.410   .     A
C1601  N1613   1.452   .     S
C1602  C1605   1.413   .     A
C1602  N1616   1.438   .     S
C1602  C1676   1.379   .     S
C1603  N1619   1.452   .     S
C1603  C1605   1.409   .     A
C1603  C1673   1.400   .     S
C1604  N1622   1.438   .     S
C1604  C1606   1.413   .     A
C1607  N1612   1.368   .     A
C1607  O1625   1.383   .     S
C1608  N1611   1.373   .     A
C1608  O1633   1.384   .     S
C1608  C1825   1.437   .     S
C1609  N1612   1.368   .     A
C1609  O1641   1.383   .     S
C1610  N1611   1.373   .     A
C1610  O1649   1.384   .     S
C1610  C1823   1.437   .     S
N1613  O1614   1.302   .     A
N1613  O1615   1.300   .     A
N1616  O1618   1.301   .     A
N1616  O1617   1.301   .     A
N1619  O1621   1.300   .     A
N1619  O1620   1.302   .     A
N1622  O1624   1.301   .     A
N1622  O1623   1.301   .     A
O1625  C1626   1.410   .     S
C1626  H1628   1.108   .     S
C1626  H1627   1.108   .     S
C1626  C1629   1.524   .     S
C1629  H1631   1.108   .     S
C1629  H1630   1.111   .     S
C1629  H1632   1.110   .     S
O1633  C1634   1.412   .     S
C1634  H1636   1.107   .     S
C1634  H1635   1.106   .     S
C1634  C1637   1.524   .     S
C1637  H1640   1.111   .     S
C1637  H1638   1.111   .     S
H1639  C341    1.108   1_556 S
O1641  C1642   1.410   .     S
C1642  C1645   1.524   .     S
C1642  H1644   1.108   .     S
C1642  H1643   1.108   .     S
C1645  H1648   1.110   .     S
C1645  H1646   1.111   .     S
C1645  H1647   1.108   .     S
O1649  C1650   1.412   .     S
C1650  H1652   1.107   .     S
C1650  H1651   1.106   .     S
C1650  C1653   1.523   .     S
C1653  H1656   1.110   .     S
C1653  H1654   1.111   .     S
C1653  H359    1.108   1_556 S
O1657  C1661   1.285   .     A
O1657  Zn1669  2.005   .     S
O1658  C1662   1.297   .     A
O1658  Zn1670  2.005   .     S
O1659  Zn1669  2.004   .     S
O1659  C1662   1.285   .     A
O1660  Zn1670  2.004   .     S
O1660  C1661   1.297   .     A
C1661  C1678   1.447   .     S
C1662  C1677   1.447   .     S
O1663  C1667   1.278   .     A
O1663  Zn1669  1.949   .     S
O1664  C1668   1.277   .     A
O1664  Zn1670  1.949   .     S
O1665  C1668   1.278   .     A
O1665  Zn1669  1.949   .     S
O1666  C1667   1.277   .     A
O1666  Zn1670  1.949   .     S
C1667  C1671   1.365   .     S
C1668  C1672   1.365   .     S
Zn1669 N1683   2.013   .     S
Zn1670 N1684   2.013   .     S
C1672  C375    1.165   1_556 S
C1673  C1678   1.410   .     A
C1673  N1685   1.452   .     S
C1674  C1677   1.413   .     A
C1674  N1688   1.438   .     S
C1674  C1532   1.379   1_655 S
C1675  N1691   1.452   .     S
C1675  C1677   1.409   .     A
C1675  C1529   1.400   1_655 S
C1676  N1694   1.438   .     S
C1676  C1678   1.413   .     A
C1679  N1684   1.368   .     A
C1679  O1697   1.383   .     S
C1680  N1683   1.373   .     A
C1680  O1705   1.384   .     S
C1680  C1897   1.437   .     S
C1681  N1684   1.368   .     A
C1681  O1713   1.383   .     S
C1682  N1683   1.373   .     A
C1682  O1721   1.384   .     S
C1682  C1895   1.437   .     S
N1685  O1686   1.302   .     A
N1685  O1687   1.300   .     A
N1688  O1690   1.301   .     A
N1688  O1689   1.301   .     A
N1691  O1693   1.300   .     A
N1691  O1692   1.302   .     A
N1694  O1696   1.301   .     A
N1694  O1695   1.301   .     A
O1697  C1698   1.410   .     S
C1698  H1700   1.108   .     S
C1698  H1699   1.108   .     S
C1698  C1701   1.524   .     S
C1701  H1703   1.108   .     S
C1701  H1702   1.111   .     S
C1701  H1704   1.110   .     S
O1705  C1706   1.412   .     S
C1706  H1708   1.107   .     S
C1706  H1707   1.106   .     S
C1706  C1709   1.524   .     S
C1709  H1712   1.111   .     S
C1709  H1710   1.111   .     S
H1711  C413    1.108   1_556 S
O1713  C1714   1.410   .     S
C1714  C1717   1.524   .     S
C1714  H1716   1.108   .     S
C1714  H1715   1.108   .     S
C1717  H1720   1.110   .     S
C1717  H1718   1.111   .     S
C1717  H1719   1.108   .     S
O1721  C1722   1.412   .     S
C1722  H1724   1.107   .     S
C1722  H1723   1.106   .     S
C1722  C1725   1.523   .     S
C1725  H1728   1.110   .     S
C1725  H1726   1.111   .     S
C1725  H431    1.108   1_556 S
O1729  C1733   1.285   .     A
O1729  Zn1741  2.005   .     S
O1730  C1734   1.297   .     A
O1730  Zn1742  2.005   .     S
O1731  Zn1741  2.004   .     S
O1731  C1734   1.285   .     A
O1732  Zn1742  2.004   .     S
O1732  C1733   1.297   .     A
C1733  C1750   1.447   .     S
C1734  C1749   1.447   .     S
O1735  C1739   1.278   .     A
O1735  Zn1741  1.949   .     S
O1736  C1740   1.277   .     A
O1736  Zn1742  1.949   .     S
O1737  C1740   1.278   .     A
O1737  Zn1741  1.949   .     S
O1738  C1739   1.277   .     A
O1738  Zn1742  1.949   .     S
C1739  C1743   1.365   .     S
C1740  C1744   1.365   .     S
Zn1741 N1755   2.013   .     S
Zn1742 N1756   2.013   .     S
C1744  C447    1.165   1_556 S
C1745  C1750   1.410   .     A
C1745  N1757   1.452   .     S
C1745  C1891   1.400   1_455 S
C1746  C1749   1.413   .     A
C1746  N1760   1.438   .     S
C1746  C1820   1.379   .     S
C1747  N1763   1.452   .     S
C1747  C1749   1.409   .     A
C1747  C1817   1.400   .     S
C1748  N1766   1.438   .     S
C1748  C1750   1.413   .     A
C1748  C1890   1.379   1_455 S
C1751  N1756   1.368   .     A
C1751  O1769   1.383   .     S
C1752  N1755   1.373   .     A
C1752  O1777   1.384   .     S
C1752  C1321   1.437   1_565 S
C1753  N1756   1.368   .     A
C1753  O1785   1.383   .     S
C1754  N1755   1.373   .     A
C1754  O1793   1.384   .     S
C1754  C1319   1.437   1_565 S
N1757  O1758   1.302   .     A
N1757  O1759   1.300   .     A
N1760  O1762   1.301   .     A
N1760  O1761   1.301   .     A
N1763  O1765   1.300   .     A
N1763  O1764   1.302   .     A
N1766  O1768   1.301   .     A
N1766  O1767   1.301   .     A
O1769  C1770   1.410   .     S
C1770  H1772   1.108   .     S
C1770  H1771   1.108   .     S
C1770  C1773   1.524   .     S
C1773  H1775   1.108   .     S
C1773  H1774   1.111   .     S
C1773  H1776   1.110   .     S
O1777  C1778   1.412   .     S
C1778  H1780   1.107   .     S
C1778  H1779   1.106   .     S
C1778  C1781   1.524   .     S
C1781  H1784   1.111   .     S
C1781  H1782   1.111   .     S
H1783  C485    1.108   1_556 S
O1785  C1786   1.410   .     S
C1786  C1789   1.524   .     S
C1786  H1788   1.108   .     S
C1786  H1787   1.108   .     S
C1789  H1792   1.110   .     S
C1789  H1790   1.111   .     S
C1789  H1791   1.108   .     S
O1793  C1794   1.412   .     S
C1794  H1796   1.107   .     S
C1794  H1795   1.106   .     S
C1794  C1797   1.523   .     S
C1797  H1800   1.110   .     S
C1797  H1798   1.111   .     S
C1797  H503    1.108   1_556 S
O1801  C1805   1.285   .     A
O1801  Zn1813  2.005   .     S
O1802  C1806   1.297   .     A
O1802  Zn1814  2.005   .     S
O1803  Zn1813  2.004   .     S
O1803  C1806   1.285   .     A
O1804  Zn1814  2.004   .     S
O1804  C1805   1.297   .     A
C1805  C1822   1.447   .     S
C1806  C1821   1.447   .     S
O1807  C1811   1.278   .     A
O1807  Zn1813  1.949   .     S
O1808  C1812   1.277   .     A
O1808  Zn1814  1.949   .     S
O1809  C1812   1.278   .     A
O1809  Zn1813  1.949   .     S
O1810  C1811   1.277   .     A
O1810  Zn1814  1.949   .     S
C1811  C1815   1.365   .     S
C1812  C1816   1.365   .     S
Zn1813 N1827   2.013   .     S
Zn1814 N1828   2.013   .     S
C1816  C519    1.165   1_556 S
C1817  C1822   1.410   .     A
C1817  N1829   1.452   .     S
C1818  C1821   1.413   .     A
C1818  N1832   1.438   .     S
C1818  C1892   1.379   .     S
C1819  N1835   1.452   .     S
C1819  C1821   1.409   .     A
C1819  C1889   1.400   .     S
C1820  N1838   1.438   .     S
C1820  C1822   1.413   .     A
C1823  N1828   1.368   .     A
C1823  O1841   1.383   .     S
C1824  N1827   1.373   .     A
C1824  O1849   1.384   .     S
C1824  C1393   1.437   1_565 S
C1825  N1828   1.368   .     A
C1825  O1857   1.383   .     S
C1826  N1827   1.373   .     A
C1826  O1865   1.384   .     S
C1826  C1391   1.437   1_565 S
N1829  O1830   1.302   .     A
N1829  O1831   1.300   .     A
N1832  O1834   1.301   .     A
N1832  O1833   1.301   .     A
N1835  O1837   1.300   .     A
N1835  O1836   1.302   .     A
N1838  O1840   1.301   .     A
N1838  O1839   1.301   .     A
O1841  C1842   1.410   .     S
C1842  H1844   1.108   .     S
C1842  H1843   1.108   .     S
C1842  C1845   1.524   .     S
C1845  H1847   1.108   .     S
C1845  H1846   1.111   .     S
C1845  H1848   1.110   .     S
O1849  C1850   1.412   .     S
C1850  H1852   1.107   .     S
C1850  H1851   1.106   .     S
C1850  C1853   1.524   .     S
C1853  H1856   1.111   .     S
C1853  H1854   1.111   .     S
H1855  C557    1.108   1_556 S
O1857  C1858   1.410   .     S
C1858  C1861   1.524   .     S
C1858  H1860   1.108   .     S
C1858  H1859   1.108   .     S
C1861  H1864   1.110   .     S
C1861  H1862   1.111   .     S
C1861  H1863   1.108   .     S
O1865  C1866   1.412   .     S
C1866  H1868   1.107   .     S
C1866  H1867   1.106   .     S
C1866  C1869   1.523   .     S
C1869  H1872   1.110   .     S
C1869  H1870   1.111   .     S
C1869  H575    1.108   1_556 S
O1873  C1877   1.285   .     A
O1873  Zn1885  2.005   .     S
O1874  C1878   1.297   .     A
O1874  Zn1886  2.005   .     S
O1875  Zn1885  2.004   .     S
O1875  C1878   1.285   .     A
O1876  Zn1886  2.004   .     S
O1876  C1877   1.297   .     A
C1877  C1894   1.447   .     S
C1878  C1893   1.447   .     S
O1879  C1883   1.278   .     A
O1879  Zn1885  1.949   .     S
O1880  C1884   1.277   .     A
O1880  Zn1886  1.949   .     S
O1881  C1884   1.278   .     A
O1881  Zn1885  1.949   .     S
O1882  C1883   1.277   .     A
O1882  Zn1886  1.949   .     S
C1883  C1887   1.365   .     S
C1884  C1888   1.365   .     S
Zn1885 N1899   2.013   .     S
Zn1886 N1900   2.013   .     S
C1888  C591    1.165   1_556 S
C1889  C1894   1.410   .     A
C1889  N1901   1.452   .     S
C1890  C1893   1.413   .     A
C1890  N1904   1.438   .     S
C1890  C1748   1.379   1_655 S
C1891  N1907   1.452   .     S
C1891  C1893   1.409   .     A
C1891  C1745   1.400   1_655 S
C1892  N1910   1.438   .     S
C1892  C1894   1.413   .     A
C1895  N1900   1.368   .     A
C1895  O1913   1.383   .     S
C1896  N1899   1.373   .     A
C1896  O1921   1.384   .     S
C1896  C1465   1.437   1_565 S
C1897  N1900   1.368   .     A
C1897  O1929   1.383   .     S
C1898  N1899   1.373   .     A
C1898  O1937   1.384   .     S
C1898  C1463   1.437   1_565 S
N1901  O1902   1.302   .     A
N1901  O1903   1.300   .     A
N1904  O1906   1.301   .     A
N1904  O1905   1.301   .     A
N1907  O1909   1.300   .     A
N1907  O1908   1.302   .     A
N1910  O1912   1.301   .     A
N1910  O1911   1.301   .     A
O1913  C1914   1.410   .     S
C1914  H1916   1.108   .     S
C1914  H1915   1.108   .     S
C1914  C1917   1.524   .     S
C1917  H1919   1.108   .     S
C1917  H1918   1.111   .     S
C1917  H1920   1.110   .     S
O1921  C1922   1.412   .     S
C1922  H1924   1.107   .     S
C1922  H1923   1.106   .     S
C1922  C1925   1.524   .     S
C1925  H1928   1.111   .     S
C1925  H1926   1.111   .     S
H1927  C629    1.108   1_556 S
O1929  C1930   1.410   .     S
C1930  C1933   1.524   .     S
C1930  H1932   1.108   .     S
C1930  H1931   1.108   .     S
C1933  H1936   1.110   .     S
C1933  H1934   1.111   .     S
C1933  H1935   1.108   .     S
O1937  C1938   1.412   .     S
C1938  H1940   1.107   .     S
C1938  H1939   1.106   .     S
C1938  C1941   1.523   .     S
C1941  H1944   1.110   .     S
C1941  H1942   1.111   .     S
C1941  H647    1.108   1_556 S
