data_str_m3_o10_o17_pcu_sym.115
_audit_creation_date              2020-01-03
_audit_creation_method            'Materials Studio'
_symmetry_space_group_name_H-M    'P1'
_symmetry_Int_Tables_number       1
_symmetry_cell_setting            triclinic
loop_
_symmetry_equiv_pos_as_xyz
  x,y,z
_cell_length_a                    23.9216
_cell_length_b                    26.1732
_cell_length_c                    29.8249
_cell_angle_alpha                 91.2895
_cell_angle_beta                  84.1879
_cell_angle_gamma                 94.4401
loop_
_atom_site_label
_atom_site_type_symbol
_atom_site_fract_x
_atom_site_fract_y
_atom_site_fract_z
_atom_site_U_iso_or_equiv
_atom_site_adp_type
_atom_site_occupancy
C1     C     0.18167   0.26444   0.24770   0.00000  Uiso   1.00
C2     C     0.18029   0.21400   0.41002   0.00000  Uiso   1.00
C3     C     0.16933   0.15903   0.11540   0.00000  Uiso   1.00
C4     C     0.16658   0.16897   0.38466   0.00000  Uiso   1.00
C5     C     0.19606   0.20025   0.09179   0.00000  Uiso   1.00
C6     C     0.15574   0.12154   0.40530   0.00000  Uiso   1.00
C7     C     0.20296   0.19955   0.04543   0.00000  Uiso   1.00
C8     C     0.15904   0.11741   0.45119   0.00000  Uiso   1.00
C9     C     0.18249   0.15621   0.02175   0.00000  Uiso   1.00
C10    C     0.18135   0.15962   0.47512   0.00000  Uiso   1.00
C11    C     0.15852   0.11162   0.04526   0.00000  Uiso   1.00
C12    C     0.15168   0.06892   0.25196   0.00000  Uiso   1.00
C13    C     0.19644   0.20727   0.45333   0.00000  Uiso   1.00
C14    C     0.22556   0.24380   0.02299   0.00000  Uiso   1.00
C15    C     0.13906   0.07202   0.47318   0.00000  Uiso   1.00
C16    C     0.16562   0.04447   0.14009   0.00000  Uiso   1.00
C17    C     0.20714   0.01652   0.10801   0.00000  Uiso   1.00
C18    C     0.24948   0.32440   0.13335   0.00000  Uiso   1.00
C19    C     0.17079   0.28363   0.36201   0.00000  Uiso   1.00
C20    C     0.23364   0.30079   0.35312   0.00000  Uiso   1.00
C21    C     0.24487   0.02559   0.35554   0.00000  Uiso   1.00
C22    C     0.28446   0.32285   0.46449   0.00000  Uiso   1.00
C23    C     0.22195   0.24894   0.47694   0.00000  Uiso   1.00
C24    C     0.27513   0.04488   0.47884   0.00000  Uiso   1.00
C25    C     0.32986   0.07802   0.48117   0.00000  Uiso   1.00
C26    C     0.09726   0.31562   0.01941   0.00000  Uiso   1.00
C27    C     0.07247   0.27295   0.05134   0.00000  Uiso   1.00
C28    C     0.05258   0.22497   0.02564   0.00000  Uiso   1.00
C29    C     0.00180   0.16172   0.16283   0.00000  Uiso   1.00
C30    C     0.30780   0.12847   0.12687   0.00000  Uiso   1.00
C31    C     0.01359   0.09210   0.10254   0.00000  Uiso   1.00
C32    C     0.01596   0.22723   0.32640   0.00000  Uiso   1.00
C33    C     0.33184   0.18681   0.36272   0.00000  Uiso   1.00
C34    C     0.13654   0.06863   0.02064   0.00000  Uiso   1.00
C35    C     0.01836   0.20314   0.40808   0.00000  Uiso   1.00
C36    C     0.18959   0.31875   0.24760   0.00000  Uiso   1.00
C37    C     0.14387   0.01468   0.25196   0.00000  Uiso   1.00
C38    C     0.16679   0.16835   0.33640   0.00000  Uiso   1.00
C39    C     0.16652   0.16368   0.16375   0.00000  Uiso   1.00
C40    C     0.15495   0.11250   0.09318   0.00000  Uiso   1.00
Cl41   Cl    0.26263   0.00793   0.24212   0.00000  Uiso   1.00
Cl42   Cl    0.07104   0.32579   0.25543   0.00000  Uiso   1.00
H43    H     0.21019   0.23370   0.11004   0.00000  Uiso   1.00
H44    H     0.27876   0.30401   0.10936   0.00000  Uiso   1.00
H45    H     0.22740   0.29689   0.15803   0.00000  Uiso   1.00
H46    H     0.14541   0.31741   0.36165   0.00000  Uiso   1.00
H47    H     0.15601   0.25976   0.33454   0.00000  Uiso   1.00
H48    H     0.25786   0.28319   0.37738   0.00000  Uiso   1.00
H49    H     0.24974   0.28678   0.31949   0.00000  Uiso   1.00
H50    H     0.29093   0.03616   0.35114   0.00000  Uiso   1.00
H51    H     0.22707   0.04004   0.38848   0.00000  Uiso   1.00
H52    H     0.22453   0.04417   0.32906   0.00000  Uiso   1.00
H53    H     0.31221   0.32359   0.43233   0.00000  Uiso   1.00
H54    H     0.14209   0.08824   0.38572   0.00000  Uiso   1.00
H55    H     0.30726   0.30495   0.48976   0.00000  Uiso   1.00
H56    H     0.25104   0.06267   0.45462   0.00000  Uiso   1.00
H57    H     0.25027   0.04502   0.01199   0.00000  Uiso   1.00
H58    H     0.02242   0.06177   0.00495   0.00000  Uiso   1.00
H59    H     0.32023   0.11694   0.49369   0.00000  Uiso   1.00
H60    H     0.02052   0.08091   0.44732   0.00000  Uiso   1.00
H61    H     0.13612   0.30343   0.00045   0.00000  Uiso   1.00
H62    H     0.06600   0.32189   0.49563   0.00000  Uiso   1.00
H63    H     0.10467   0.26301   0.07330   0.00000  Uiso   1.00
H64    H     0.03615   0.28661   0.07325   0.00000  Uiso   1.00
H65    H     0.24117   0.27631   0.04208   0.00000  Uiso   1.00
H66    H     0.01581   0.23223   0.00758   0.00000  Uiso   1.00
H67    H     0.03975   0.19361   0.04968   0.00000  Uiso   1.00
H68    H     0.08669   0.21257   0.00087   0.00000  Uiso   1.00
H69    H     0.04241   0.17882   0.14678   0.00000  Uiso   1.00
H70    H     0.31042   0.19554   0.17173   0.00000  Uiso   1.00
H71    H     0.27191   0.10475   0.14283   0.00000  Uiso   1.00
H72    H     0.29298   0.15344   0.10165   0.00000  Uiso   1.00
H73    H     0.04837   0.11424   0.08283   0.00000  Uiso   1.00
H74    H     0.32397   0.06754   0.07882   0.00000  Uiso   1.00
H75    H     0.02865   0.06675   0.12724   0.00000  Uiso   1.00
H76    H     0.12300   0.04064   0.45278   0.00000  Uiso   1.00
H77    H     0.00351   0.26490   0.33934   0.00000  Uiso   1.00
H78    H     0.06149   0.23486   0.31871   0.00000  Uiso   1.00
H79    H     0.28537   0.18107   0.36742   0.00000  Uiso   1.00
H80    H     0.01507   0.14950   0.35198   0.00000  Uiso   1.00
H81    H     0.06467   0.20516   0.40622   0.00000  Uiso   1.00
H82    H     0.00089   0.17490   0.43385   0.00000  Uiso   1.00
H83    H     0.00366   0.24098   0.41863   0.00000  Uiso   1.00
H84    H     0.13963   0.01504   0.16077   0.00000  Uiso   1.00
H85    H     0.18787   0.06934   0.16370   0.00000  Uiso   1.00
H86    H     0.18320   0.32057   0.08883   0.00000  Uiso   1.00
H87    H     0.23055   0.04415   0.08445   0.00000  Uiso   1.00
H88    H     0.27495   0.01989   0.15162   0.00000  Uiso   1.00
N89    N     0.31678   0.15265   0.23783   0.00000  Uiso   1.00
N90    N     0.01656   0.18068   0.26217   0.00000  Uiso   1.00
O91    O     0.12975   0.24619   0.25298   0.00000  Uiso   1.00
O92    O     0.15686   0.26049   0.40424   0.00000  Uiso   1.00
O93    O     0.23194   0.29680   0.45678   0.00000  Uiso   1.00
O94    O     0.10908   0.02717   0.04495   0.00000  Uiso   1.00
O95    O     0.01056   0.13204   0.20060   0.00000  Uiso   1.00
O96    O     0.32151   0.21514   0.28787   0.00000  Uiso   1.00
O97    O     0.20358   0.08714   0.24702   0.00000  Uiso   1.00
O98    O     0.22613   0.23721   0.24519   0.00000  Uiso   1.00
O99    O     0.10720   0.09613   0.25482   0.00000  Uiso   1.00
O100   O     0.11847   0.17117   0.31998   0.00000  Uiso   1.00
O101   O     0.21486   0.16216   0.18003   0.00000  Uiso   1.00
O102   O     0.21485   0.16219   0.31218   0.00000  Uiso   1.00
O103   O     0.11848   0.17115   0.18783   0.00000  Uiso   1.00
O104   O     0.12818   0.07130   0.11742   0.00000  Uiso   1.00
Zn105  Zn    0.10231   0.17266   0.25521   0.00000  Uiso   1.00
Zn106  Zn    0.23102   0.16067   0.24479   0.00000  Uiso   1.00
C107   C     0.51501   0.26444   0.24770   0.00000  Uiso   1.00
C108   C     0.51362   0.21400   0.41002   0.00000  Uiso   1.00
C109   C     0.50267   0.15903   0.11540   0.00000  Uiso   1.00
C110   C     0.49991   0.16897   0.38466   0.00000  Uiso   1.00
C111   C     0.52939   0.20025   0.09179   0.00000  Uiso   1.00
C112   C     0.48907   0.12154   0.40530   0.00000  Uiso   1.00
C113   C     0.53629   0.19955   0.04543   0.00000  Uiso   1.00
C114   C     0.49237   0.11741   0.45119   0.00000  Uiso   1.00
C115   C     0.51582   0.15621   0.02175   0.00000  Uiso   1.00
C116   C     0.51468   0.15962   0.47512   0.00000  Uiso   1.00
C117   C     0.49185   0.11162   0.04526   0.00000  Uiso   1.00
C118   C     0.48501   0.06892   0.25196   0.00000  Uiso   1.00
C119   C     0.52977   0.20727   0.45333   0.00000  Uiso   1.00
C120   C     0.55889   0.24380   0.02299   0.00000  Uiso   1.00
C121   C     0.47239   0.07202   0.47318   0.00000  Uiso   1.00
C122   C     0.49896   0.04447   0.14009   0.00000  Uiso   1.00
C123   C     0.54047   0.01652   0.10801   0.00000  Uiso   1.00
C124   C     0.58281   0.32440   0.13335   0.00000  Uiso   1.00
C125   C     0.50413   0.28363   0.36201   0.00000  Uiso   1.00
C126   C     0.56697   0.30079   0.35312   0.00000  Uiso   1.00
C127   C     0.57820   0.02559   0.35554   0.00000  Uiso   1.00
C128   C     0.61780   0.32285   0.46449   0.00000  Uiso   1.00
C129   C     0.55528   0.24894   0.47694   0.00000  Uiso   1.00
C130   C     0.60846   0.04488   0.47884   0.00000  Uiso   1.00
C131   C     0.66319   0.07802   0.48117   0.00000  Uiso   1.00
C132   C     0.43059   0.31562   0.01941   0.00000  Uiso   1.00
C133   C     0.40580   0.27295   0.05134   0.00000  Uiso   1.00
C134   C     0.38592   0.22497   0.02564   0.00000  Uiso   1.00
C135   C     0.33514   0.16172   0.16283   0.00000  Uiso   1.00
C136   C     0.64113   0.12847   0.12687   0.00000  Uiso   1.00
C137   C     0.34692   0.09210   0.10254   0.00000  Uiso   1.00
C138   C     0.34929   0.22723   0.32640   0.00000  Uiso   1.00
C139   C     0.66517   0.18681   0.36272   0.00000  Uiso   1.00
C140   C     0.46987   0.06863   0.02064   0.00000  Uiso   1.00
C141   C     0.35170   0.20314   0.40808   0.00000  Uiso   1.00
C142   C     0.52293   0.31875   0.24760   0.00000  Uiso   1.00
C143   C     0.47721   0.01468   0.25196   0.00000  Uiso   1.00
C144   C     0.50012   0.16835   0.33640   0.00000  Uiso   1.00
C145   C     0.49986   0.16368   0.16375   0.00000  Uiso   1.00
C146   C     0.48828   0.11250   0.09318   0.00000  Uiso   1.00
Cl147  Cl    0.59596   0.00793   0.24212   0.00000  Uiso   1.00
Cl148  Cl    0.40438   0.32579   0.25543   0.00000  Uiso   1.00
H149   H     0.54352   0.23370   0.11004   0.00000  Uiso   1.00
H150   H     0.61210   0.30401   0.10936   0.00000  Uiso   1.00
H151   H     0.56073   0.29689   0.15803   0.00000  Uiso   1.00
H152   H     0.47874   0.31741   0.36165   0.00000  Uiso   1.00
H153   H     0.48935   0.25976   0.33454   0.00000  Uiso   1.00
H154   H     0.59119   0.28319   0.37738   0.00000  Uiso   1.00
H155   H     0.58307   0.28678   0.31949   0.00000  Uiso   1.00
H156   H     0.62426   0.03616   0.35114   0.00000  Uiso   1.00
H157   H     0.56041   0.04004   0.38848   0.00000  Uiso   1.00
H158   H     0.55787   0.04417   0.32906   0.00000  Uiso   1.00
H159   H     0.64555   0.32359   0.43233   0.00000  Uiso   1.00
H160   H     0.47543   0.08824   0.38572   0.00000  Uiso   1.00
H161   H     0.64060   0.30495   0.48976   0.00000  Uiso   1.00
H162   H     0.58437   0.06267   0.45462   0.00000  Uiso   1.00
H163   H     0.58360   0.04502   0.01199   0.00000  Uiso   1.00
H164   H     0.35575   0.06177   0.00495   0.00000  Uiso   1.00
H165   H     0.65357   0.11694   0.49369   0.00000  Uiso   1.00
H166   H     0.35385   0.08091   0.44732   0.00000  Uiso   1.00
H167   H     0.46946   0.30343   0.00045   0.00000  Uiso   1.00
H168   H     0.39934   0.32189   0.49563   0.00000  Uiso   1.00
H169   H     0.43801   0.26301   0.07330   0.00000  Uiso   1.00
H170   H     0.36949   0.28661   0.07325   0.00000  Uiso   1.00
H171   H     0.57450   0.27631   0.04208   0.00000  Uiso   1.00
H172   H     0.34915   0.23223   0.00758   0.00000  Uiso   1.00
H173   H     0.37308   0.19361   0.04968   0.00000  Uiso   1.00
H174   H     0.42003   0.21257   0.00087   0.00000  Uiso   1.00
H175   H     0.37574   0.17882   0.14678   0.00000  Uiso   1.00
H176   H     0.64376   0.19554   0.17173   0.00000  Uiso   1.00
H177   H     0.60524   0.10475   0.14283   0.00000  Uiso   1.00
H178   H     0.62632   0.15344   0.10165   0.00000  Uiso   1.00
H179   H     0.38171   0.11424   0.08283   0.00000  Uiso   1.00
H180   H     0.65731   0.06754   0.07882   0.00000  Uiso   1.00
H181   H     0.36198   0.06675   0.12724   0.00000  Uiso   1.00
H182   H     0.45633   0.04064   0.45278   0.00000  Uiso   1.00
H183   H     0.33684   0.26490   0.33934   0.00000  Uiso   1.00
H184   H     0.39482   0.23486   0.31871   0.00000  Uiso   1.00
H185   H     0.61870   0.18107   0.36742   0.00000  Uiso   1.00
H186   H     0.34840   0.14950   0.35198   0.00000  Uiso   1.00
H187   H     0.39800   0.20516   0.40622   0.00000  Uiso   1.00
H188   H     0.33422   0.17490   0.43385   0.00000  Uiso   1.00
H189   H     0.33700   0.24098   0.41863   0.00000  Uiso   1.00
H190   H     0.47297   0.01504   0.16077   0.00000  Uiso   1.00
H191   H     0.52121   0.06934   0.16370   0.00000  Uiso   1.00
H192   H     0.51654   0.32057   0.08883   0.00000  Uiso   1.00
H193   H     0.56388   0.04415   0.08445   0.00000  Uiso   1.00
H194   H     0.60829   0.01989   0.15162   0.00000  Uiso   1.00
N195   N     0.65011   0.15265   0.23783   0.00000  Uiso   1.00
N196   N     0.34989   0.18068   0.26217   0.00000  Uiso   1.00
O197   O     0.46308   0.24619   0.25298   0.00000  Uiso   1.00
O198   O     0.49019   0.26049   0.40424   0.00000  Uiso   1.00
O199   O     0.56528   0.29680   0.45678   0.00000  Uiso   1.00
O200   O     0.44242   0.02717   0.04495   0.00000  Uiso   1.00
O201   O     0.34389   0.13204   0.20060   0.00000  Uiso   1.00
O202   O     0.65485   0.21514   0.28787   0.00000  Uiso   1.00
O203   O     0.53692   0.08714   0.24702   0.00000  Uiso   1.00
O204   O     0.55946   0.23721   0.24519   0.00000  Uiso   1.00
O205   O     0.44054   0.09613   0.25482   0.00000  Uiso   1.00
O206   O     0.45181   0.17117   0.31998   0.00000  Uiso   1.00
O207   O     0.54819   0.16216   0.18003   0.00000  Uiso   1.00
O208   O     0.54819   0.16219   0.31218   0.00000  Uiso   1.00
O209   O     0.45181   0.17115   0.18783   0.00000  Uiso   1.00
O210   O     0.46152   0.07130   0.11742   0.00000  Uiso   1.00
Zn211  Zn    0.43565   0.17266   0.25521   0.00000  Uiso   1.00
Zn212  Zn    0.56435   0.16067   0.24479   0.00000  Uiso   1.00
C213   C     0.84834   0.26444   0.24770   0.00000  Uiso   1.00
C214   C     0.84695   0.21400   0.41002   0.00000  Uiso   1.00
C215   C     0.83600   0.15903   0.11540   0.00000  Uiso   1.00
C216   C     0.83324   0.16897   0.38466   0.00000  Uiso   1.00
C217   C     0.86273   0.20025   0.09179   0.00000  Uiso   1.00
C218   C     0.82240   0.12154   0.40530   0.00000  Uiso   1.00
C219   C     0.86962   0.19955   0.04543   0.00000  Uiso   1.00
C220   C     0.82570   0.11741   0.45119   0.00000  Uiso   1.00
C221   C     0.84916   0.15621   0.02175   0.00000  Uiso   1.00
C222   C     0.84801   0.15962   0.47512   0.00000  Uiso   1.00
C223   C     0.82518   0.11162   0.04526   0.00000  Uiso   1.00
C224   C     0.81835   0.06892   0.25196   0.00000  Uiso   1.00
C225   C     0.86311   0.20727   0.45333   0.00000  Uiso   1.00
C226   C     0.89223   0.24380   0.02299   0.00000  Uiso   1.00
C227   C     0.80573   0.07202   0.47318   0.00000  Uiso   1.00
C228   C     0.83229   0.04447   0.14009   0.00000  Uiso   1.00
C229   C     0.87380   0.01652   0.10801   0.00000  Uiso   1.00
C230   C     0.91615   0.32440   0.13335   0.00000  Uiso   1.00
C231   C     0.83746   0.28363   0.36201   0.00000  Uiso   1.00
C232   C     0.90030   0.30079   0.35312   0.00000  Uiso   1.00
C233   C     0.91153   0.02559   0.35554   0.00000  Uiso   1.00
C234   C     0.95113   0.32285   0.46449   0.00000  Uiso   1.00
C235   C     0.88861   0.24894   0.47694   0.00000  Uiso   1.00
C236   C     0.94179   0.04488   0.47884   0.00000  Uiso   1.00
C237   C     0.99652   0.07802   0.48117   0.00000  Uiso   1.00
C238   C     0.76393   0.31562   0.01941   0.00000  Uiso   1.00
C239   C     0.73914   0.27295   0.05134   0.00000  Uiso   1.00
C240   C     0.71925   0.22497   0.02564   0.00000  Uiso   1.00
C241   C     0.66847   0.16172   0.16283   0.00000  Uiso   1.00
C242   C     0.97447   0.12847   0.12687   0.00000  Uiso   1.00
C243   C     0.68026   0.09210   0.10254   0.00000  Uiso   1.00
C244   C     0.68263   0.22723   0.32640   0.00000  Uiso   1.00
C245   C     0.99851   0.18681   0.36272   0.00000  Uiso   1.00
C246   C     0.80321   0.06863   0.02064   0.00000  Uiso   1.00
C247   C     0.68503   0.20314   0.40808   0.00000  Uiso   1.00
C248   C     0.85626   0.31875   0.24760   0.00000  Uiso   1.00
C249   C     0.81054   0.01468   0.25196   0.00000  Uiso   1.00
C250   C     0.83345   0.16835   0.33640   0.00000  Uiso   1.00
C251   C     0.83319   0.16368   0.16375   0.00000  Uiso   1.00
C252   C     0.82162   0.11250   0.09318   0.00000  Uiso   1.00
Cl253  Cl    0.92929   0.00793   0.24212   0.00000  Uiso   1.00
Cl254  Cl    0.73771   0.32579   0.25543   0.00000  Uiso   1.00
H255   H     0.87685   0.23370   0.11004   0.00000  Uiso   1.00
H256   H     0.94543   0.30401   0.10936   0.00000  Uiso   1.00
H257   H     0.89407   0.29689   0.15803   0.00000  Uiso   1.00
H258   H     0.81208   0.31741   0.36165   0.00000  Uiso   1.00
H259   H     0.82268   0.25976   0.33454   0.00000  Uiso   1.00
H260   H     0.92452   0.28319   0.37738   0.00000  Uiso   1.00
H261   H     0.91641   0.28678   0.31949   0.00000  Uiso   1.00
H262   H     0.95760   0.03616   0.35114   0.00000  Uiso   1.00
H263   H     0.89374   0.04004   0.38848   0.00000  Uiso   1.00
H264   H     0.89120   0.04417   0.32906   0.00000  Uiso   1.00
H265   H     0.97888   0.32359   0.43233   0.00000  Uiso   1.00
H266   H     0.80876   0.08824   0.38572   0.00000  Uiso   1.00
H267   H     0.97393   0.30495   0.48976   0.00000  Uiso   1.00
H268   H     0.91770   0.06267   0.45462   0.00000  Uiso   1.00
H269   H     0.91693   0.04502   0.01199   0.00000  Uiso   1.00
H270   H     0.68909   0.06177   0.00495   0.00000  Uiso   1.00
H271   H     0.98690   0.11694   0.49369   0.00000  Uiso   1.00
H272   H     0.68719   0.08091   0.44732   0.00000  Uiso   1.00
H273   H     0.80279   0.30343   0.00045   0.00000  Uiso   1.00
H274   H     0.73267   0.32189   0.49563   0.00000  Uiso   1.00
H275   H     0.77134   0.26301   0.07330   0.00000  Uiso   1.00
H276   H     0.70282   0.28661   0.07325   0.00000  Uiso   1.00
H277   H     0.90784   0.27631   0.04208   0.00000  Uiso   1.00
H278   H     0.68248   0.23223   0.00758   0.00000  Uiso   1.00
H279   H     0.70642   0.19361   0.04968   0.00000  Uiso   1.00
H280   H     0.75336   0.21257   0.00087   0.00000  Uiso   1.00
H281   H     0.70908   0.17882   0.14678   0.00000  Uiso   1.00
H282   H     0.97709   0.19554   0.17173   0.00000  Uiso   1.00
H283   H     0.93857   0.10475   0.14283   0.00000  Uiso   1.00
H284   H     0.95965   0.15344   0.10165   0.00000  Uiso   1.00
H285   H     0.71504   0.11424   0.08283   0.00000  Uiso   1.00
H286   H     0.99064   0.06754   0.07882   0.00000  Uiso   1.00
H287   H     0.69531   0.06675   0.12724   0.00000  Uiso   1.00
H288   H     0.78967   0.04064   0.45278   0.00000  Uiso   1.00
H289   H     0.67018   0.26490   0.33934   0.00000  Uiso   1.00
H290   H     0.72815   0.23486   0.31871   0.00000  Uiso   1.00
H291   H     0.95203   0.18107   0.36742   0.00000  Uiso   1.00
H292   H     0.68174   0.14950   0.35198   0.00000  Uiso   1.00
H293   H     0.73134   0.20516   0.40622   0.00000  Uiso   1.00
H294   H     0.66756   0.17490   0.43385   0.00000  Uiso   1.00
H295   H     0.67033   0.24098   0.41863   0.00000  Uiso   1.00
H296   H     0.80630   0.01504   0.16077   0.00000  Uiso   1.00
H297   H     0.85454   0.06934   0.16370   0.00000  Uiso   1.00
H298   H     0.84987   0.32057   0.08883   0.00000  Uiso   1.00
H299   H     0.89721   0.04415   0.08445   0.00000  Uiso   1.00
H300   H     0.94162   0.01989   0.15162   0.00000  Uiso   1.00
N301   N     0.98344   0.15265   0.23783   0.00000  Uiso   1.00
N302   N     0.68322   0.18068   0.26217   0.00000  Uiso   1.00
O303   O     0.79642   0.24619   0.25298   0.00000  Uiso   1.00
O304   O     0.82352   0.26049   0.40424   0.00000  Uiso   1.00
O305   O     0.89861   0.29680   0.45678   0.00000  Uiso   1.00
O306   O     0.77575   0.02717   0.04495   0.00000  Uiso   1.00
O307   O     0.67722   0.13204   0.20060   0.00000  Uiso   1.00
O308   O     0.98818   0.21514   0.28787   0.00000  Uiso   1.00
O309   O     0.87025   0.08714   0.24702   0.00000  Uiso   1.00
O310   O     0.89280   0.23721   0.24519   0.00000  Uiso   1.00
O311   O     0.77387   0.09613   0.25482   0.00000  Uiso   1.00
O312   O     0.78514   0.17117   0.31998   0.00000  Uiso   1.00
O313   O     0.88153   0.16216   0.18003   0.00000  Uiso   1.00
O314   O     0.88152   0.16219   0.31218   0.00000  Uiso   1.00
O315   O     0.78515   0.17115   0.18783   0.00000  Uiso   1.00
O316   O     0.79485   0.07130   0.11742   0.00000  Uiso   1.00
Zn317  Zn    0.76898   0.17266   0.25521   0.00000  Uiso   1.00
Zn318  Zn    0.89769   0.16067   0.24479   0.00000  Uiso   1.00
C319   C     0.18167   0.59777   0.24770   0.00000  Uiso   1.00
C320   C     0.18029   0.54733   0.41002   0.00000  Uiso   1.00
C321   C     0.16933   0.49236   0.11540   0.00000  Uiso   1.00
C322   C     0.16658   0.50231   0.38466   0.00000  Uiso   1.00
C323   C     0.19606   0.53359   0.09179   0.00000  Uiso   1.00
C324   C     0.15574   0.45487   0.40530   0.00000  Uiso   1.00
C325   C     0.20296   0.53289   0.04543   0.00000  Uiso   1.00
C326   C     0.15904   0.45075   0.45119   0.00000  Uiso   1.00
C327   C     0.18249   0.48955   0.02175   0.00000  Uiso   1.00
C328   C     0.18135   0.49295   0.47512   0.00000  Uiso   1.00
C329   C     0.15852   0.44495   0.04526   0.00000  Uiso   1.00
C330   C     0.15168   0.40225   0.25196   0.00000  Uiso   1.00
C331   C     0.19644   0.54060   0.45333   0.00000  Uiso   1.00
C332   C     0.22556   0.57713   0.02299   0.00000  Uiso   1.00
C333   C     0.13906   0.40536   0.47318   0.00000  Uiso   1.00
C334   C     0.16562   0.37781   0.14009   0.00000  Uiso   1.00
C335   C     0.20714   0.34986   0.10801   0.00000  Uiso   1.00
C336   C     0.24948   0.65774   0.13335   0.00000  Uiso   1.00
C337   C     0.17079   0.61697   0.36201   0.00000  Uiso   1.00
C338   C     0.23364   0.63412   0.35312   0.00000  Uiso   1.00
C339   C     0.24487   0.35892   0.35554   0.00000  Uiso   1.00
C340   C     0.28446   0.65618   0.46449   0.00000  Uiso   1.00
C341   C     0.22195   0.58227   0.47694   0.00000  Uiso   1.00
C342   C     0.27513   0.37821   0.47884   0.00000  Uiso   1.00
C343   C     0.32986   0.41135   0.48117   0.00000  Uiso   1.00
C344   C     0.09726   0.64896   0.01941   0.00000  Uiso   1.00
C345   C     0.07247   0.60628   0.05134   0.00000  Uiso   1.00
C346   C     0.05258   0.55831   0.02564   0.00000  Uiso   1.00
C347   C     0.00180   0.49506   0.16283   0.00000  Uiso   1.00
C348   C     0.30780   0.46181   0.12687   0.00000  Uiso   1.00
C349   C     0.01359   0.42544   0.10254   0.00000  Uiso   1.00
C350   C     0.01596   0.56056   0.32640   0.00000  Uiso   1.00
C351   C     0.33184   0.52014   0.36272   0.00000  Uiso   1.00
C352   C     0.13654   0.40197   0.02064   0.00000  Uiso   1.00
C353   C     0.01836   0.53648   0.40808   0.00000  Uiso   1.00
C354   C     0.18959   0.65209   0.24760   0.00000  Uiso   1.00
C355   C     0.14387   0.34802   0.25196   0.00000  Uiso   1.00
C356   C     0.16679   0.50168   0.33640   0.00000  Uiso   1.00
C357   C     0.16652   0.49701   0.16375   0.00000  Uiso   1.00
C358   C     0.15495   0.44583   0.09318   0.00000  Uiso   1.00
Cl359  Cl    0.26263   0.34127   0.24212   0.00000  Uiso   1.00
Cl360  Cl    0.07104   0.65912   0.25543   0.00000  Uiso   1.00
H361   H     0.21019   0.56704   0.11004   0.00000  Uiso   1.00
H362   H     0.27876   0.63734   0.10936   0.00000  Uiso   1.00
H363   H     0.22740   0.63022   0.15803   0.00000  Uiso   1.00
H364   H     0.14541   0.65075   0.36165   0.00000  Uiso   1.00
H365   H     0.15601   0.59309   0.33454   0.00000  Uiso   1.00
H366   H     0.25786   0.61653   0.37738   0.00000  Uiso   1.00
H367   H     0.24974   0.62012   0.31949   0.00000  Uiso   1.00
H368   H     0.29093   0.36950   0.35114   0.00000  Uiso   1.00
H369   H     0.22707   0.37338   0.38848   0.00000  Uiso   1.00
H370   H     0.22453   0.37750   0.32906   0.00000  Uiso   1.00
H371   H     0.31221   0.65692   0.43233   0.00000  Uiso   1.00
H372   H     0.14209   0.42157   0.38572   0.00000  Uiso   1.00
H373   H     0.30726   0.63829   0.48976   0.00000  Uiso   1.00
H374   H     0.25104   0.39600   0.45462   0.00000  Uiso   1.00
H375   H     0.25027   0.37836   0.01199   0.00000  Uiso   1.00
H376   H     0.02242   0.39510   0.00495   0.00000  Uiso   1.00
H377   H     0.32023   0.45028   0.49369   0.00000  Uiso   1.00
H378   H     0.02052   0.41424   0.44732   0.00000  Uiso   1.00
H379   H     0.13612   0.63677   0.00045   0.00000  Uiso   1.00
H380   H     0.06600   0.65522   0.49563   0.00000  Uiso   1.00
H381   H     0.10467   0.59634   0.07330   0.00000  Uiso   1.00
H382   H     0.03615   0.61994   0.07325   0.00000  Uiso   1.00
H383   H     0.24117   0.60965   0.04208   0.00000  Uiso   1.00
H384   H     0.01581   0.56557   0.00758   0.00000  Uiso   1.00
H385   H     0.03975   0.52694   0.04968   0.00000  Uiso   1.00
H386   H     0.08669   0.54591   0.00087   0.00000  Uiso   1.00
H387   H     0.04241   0.51216   0.14678   0.00000  Uiso   1.00
H388   H     0.31042   0.52887   0.17173   0.00000  Uiso   1.00
H389   H     0.27191   0.43808   0.14283   0.00000  Uiso   1.00
H390   H     0.29298   0.48677   0.10165   0.00000  Uiso   1.00
H391   H     0.04837   0.44757   0.08283   0.00000  Uiso   1.00
H392   H     0.32397   0.40087   0.07882   0.00000  Uiso   1.00
H393   H     0.02865   0.40008   0.12724   0.00000  Uiso   1.00
H394   H     0.12300   0.37397   0.45278   0.00000  Uiso   1.00
H395   H     0.00351   0.59823   0.33934   0.00000  Uiso   1.00
H396   H     0.06149   0.56819   0.31871   0.00000  Uiso   1.00
H397   H     0.28537   0.51441   0.36742   0.00000  Uiso   1.00
H398   H     0.01507   0.48283   0.35198   0.00000  Uiso   1.00
H399   H     0.06467   0.53849   0.40622   0.00000  Uiso   1.00
H400   H     0.00089   0.50823   0.43385   0.00000  Uiso   1.00
H401   H     0.00366   0.57431   0.41863   0.00000  Uiso   1.00
H402   H     0.13963   0.34837   0.16077   0.00000  Uiso   1.00
H403   H     0.18787   0.40268   0.16370   0.00000  Uiso   1.00
H404   H     0.18320   0.65390   0.08883   0.00000  Uiso   1.00
H405   H     0.23055   0.37748   0.08445   0.00000  Uiso   1.00
H406   H     0.27495   0.35322   0.15162   0.00000  Uiso   1.00
N407   N     0.31678   0.48598   0.23783   0.00000  Uiso   1.00
N408   N     0.01656   0.51402   0.26217   0.00000  Uiso   1.00
O409   O     0.12975   0.57952   0.25298   0.00000  Uiso   1.00
O410   O     0.15686   0.59382   0.40424   0.00000  Uiso   1.00
O411   O     0.23194   0.63014   0.45678   0.00000  Uiso   1.00
O412   O     0.10908   0.36050   0.04495   0.00000  Uiso   1.00
O413   O     0.01056   0.46537   0.20060   0.00000  Uiso   1.00
O414   O     0.32151   0.54847   0.28787   0.00000  Uiso   1.00
O415   O     0.20358   0.42048   0.24702   0.00000  Uiso   1.00
O416   O     0.22613   0.57054   0.24519   0.00000  Uiso   1.00
O417   O     0.10720   0.42946   0.25482   0.00000  Uiso   1.00
O418   O     0.11847   0.50450   0.31998   0.00000  Uiso   1.00
O419   O     0.21486   0.49550   0.18003   0.00000  Uiso   1.00
O420   O     0.21485   0.49552   0.31218   0.00000  Uiso   1.00
O421   O     0.11848   0.50448   0.18783   0.00000  Uiso   1.00
O422   O     0.12818   0.40463   0.11742   0.00000  Uiso   1.00
Zn423  Zn    0.10231   0.50600   0.25521   0.00000  Uiso   1.00
Zn424  Zn    0.23102   0.49400   0.24479   0.00000  Uiso   1.00
C425   C     0.51501   0.59777   0.24770   0.00000  Uiso   1.00
C426   C     0.51362   0.54733   0.41002   0.00000  Uiso   1.00
C427   C     0.50267   0.49236   0.11540   0.00000  Uiso   1.00
C428   C     0.49991   0.50231   0.38466   0.00000  Uiso   1.00
C429   C     0.52939   0.53359   0.09179   0.00000  Uiso   1.00
C430   C     0.48907   0.45487   0.40530   0.00000  Uiso   1.00
C431   C     0.53629   0.53289   0.04543   0.00000  Uiso   1.00
C432   C     0.49237   0.45075   0.45119   0.00000  Uiso   1.00
C433   C     0.51582   0.48955   0.02175   0.00000  Uiso   1.00
C434   C     0.51468   0.49295   0.47512   0.00000  Uiso   1.00
C435   C     0.49185   0.44495   0.04526   0.00000  Uiso   1.00
C436   C     0.48501   0.40225   0.25196   0.00000  Uiso   1.00
C437   C     0.52977   0.54060   0.45333   0.00000  Uiso   1.00
C438   C     0.55889   0.57713   0.02299   0.00000  Uiso   1.00
C439   C     0.47239   0.40536   0.47318   0.00000  Uiso   1.00
C440   C     0.49896   0.37781   0.14009   0.00000  Uiso   1.00
C441   C     0.54047   0.34986   0.10801   0.00000  Uiso   1.00
C442   C     0.58281   0.65774   0.13335   0.00000  Uiso   1.00
C443   C     0.50413   0.61697   0.36201   0.00000  Uiso   1.00
C444   C     0.56697   0.63412   0.35312   0.00000  Uiso   1.00
C445   C     0.57820   0.35892   0.35554   0.00000  Uiso   1.00
C446   C     0.61780   0.65618   0.46449   0.00000  Uiso   1.00
C447   C     0.55528   0.58227   0.47694   0.00000  Uiso   1.00
C448   C     0.60846   0.37821   0.47884   0.00000  Uiso   1.00
C449   C     0.66319   0.41135   0.48117   0.00000  Uiso   1.00
C450   C     0.43059   0.64896   0.01941   0.00000  Uiso   1.00
C451   C     0.40580   0.60628   0.05134   0.00000  Uiso   1.00
C452   C     0.38592   0.55831   0.02564   0.00000  Uiso   1.00
C453   C     0.33514   0.49506   0.16283   0.00000  Uiso   1.00
C454   C     0.64113   0.46181   0.12687   0.00000  Uiso   1.00
C455   C     0.34692   0.42544   0.10254   0.00000  Uiso   1.00
C456   C     0.34929   0.56056   0.32640   0.00000  Uiso   1.00
C457   C     0.66517   0.52014   0.36272   0.00000  Uiso   1.00
C458   C     0.46987   0.40197   0.02064   0.00000  Uiso   1.00
C459   C     0.35170   0.53648   0.40808   0.00000  Uiso   1.00
C460   C     0.52293   0.65209   0.24760   0.00000  Uiso   1.00
C461   C     0.47721   0.34802   0.25196   0.00000  Uiso   1.00
C462   C     0.50012   0.50168   0.33640   0.00000  Uiso   1.00
C463   C     0.49986   0.49701   0.16375   0.00000  Uiso   1.00
C464   C     0.48828   0.44583   0.09318   0.00000  Uiso   1.00
Cl465  Cl    0.59596   0.34127   0.24212   0.00000  Uiso   1.00
Cl466  Cl    0.40438   0.65912   0.25543   0.00000  Uiso   1.00
H467   H     0.54352   0.56704   0.11004   0.00000  Uiso   1.00
H468   H     0.61210   0.63734   0.10936   0.00000  Uiso   1.00
H469   H     0.56073   0.63022   0.15803   0.00000  Uiso   1.00
H470   H     0.47874   0.65075   0.36165   0.00000  Uiso   1.00
H471   H     0.48935   0.59309   0.33454   0.00000  Uiso   1.00
H472   H     0.59119   0.61653   0.37738   0.00000  Uiso   1.00
H473   H     0.58307   0.62012   0.31949   0.00000  Uiso   1.00
H474   H     0.62426   0.36950   0.35114   0.00000  Uiso   1.00
H475   H     0.56041   0.37338   0.38848   0.00000  Uiso   1.00
H476   H     0.55787   0.37750   0.32906   0.00000  Uiso   1.00
H477   H     0.64555   0.65692   0.43233   0.00000  Uiso   1.00
H478   H     0.47543   0.42157   0.38572   0.00000  Uiso   1.00
H479   H     0.64060   0.63829   0.48976   0.00000  Uiso   1.00
H480   H     0.58437   0.39600   0.45462   0.00000  Uiso   1.00
H481   H     0.58360   0.37836   0.01199   0.00000  Uiso   1.00
H482   H     0.35575   0.39510   0.00495   0.00000  Uiso   1.00
H483   H     0.65357   0.45028   0.49369   0.00000  Uiso   1.00
H484   H     0.35385   0.41424   0.44732   0.00000  Uiso   1.00
H485   H     0.46946   0.63677   0.00045   0.00000  Uiso   1.00
H486   H     0.39934   0.65522   0.49563   0.00000  Uiso   1.00
H487   H     0.43801   0.59634   0.07330   0.00000  Uiso   1.00
H488   H     0.36949   0.61994   0.07325   0.00000  Uiso   1.00
H489   H     0.57450   0.60965   0.04208   0.00000  Uiso   1.00
H490   H     0.34915   0.56557   0.00758   0.00000  Uiso   1.00
H491   H     0.37308   0.52694   0.04968   0.00000  Uiso   1.00
H492   H     0.42003   0.54591   0.00087   0.00000  Uiso   1.00
H493   H     0.37574   0.51216   0.14678   0.00000  Uiso   1.00
H494   H     0.64376   0.52887   0.17173   0.00000  Uiso   1.00
H495   H     0.60524   0.43808   0.14283   0.00000  Uiso   1.00
H496   H     0.62632   0.48677   0.10165   0.00000  Uiso   1.00
H497   H     0.38171   0.44757   0.08283   0.00000  Uiso   1.00
H498   H     0.65731   0.40087   0.07882   0.00000  Uiso   1.00
H499   H     0.36198   0.40008   0.12724   0.00000  Uiso   1.00
H500   H     0.45633   0.37397   0.45278   0.00000  Uiso   1.00
H501   H     0.33684   0.59823   0.33934   0.00000  Uiso   1.00
H502   H     0.39482   0.56819   0.31871   0.00000  Uiso   1.00
H503   H     0.61870   0.51441   0.36742   0.00000  Uiso   1.00
H504   H     0.34840   0.48283   0.35198   0.00000  Uiso   1.00
H505   H     0.39800   0.53849   0.40622   0.00000  Uiso   1.00
H506   H     0.33422   0.50823   0.43385   0.00000  Uiso   1.00
H507   H     0.33700   0.57431   0.41863   0.00000  Uiso   1.00
H508   H     0.47297   0.34837   0.16077   0.00000  Uiso   1.00
H509   H     0.52121   0.40268   0.16370   0.00000  Uiso   1.00
H510   H     0.51654   0.65390   0.08883   0.00000  Uiso   1.00
H511   H     0.56388   0.37748   0.08445   0.00000  Uiso   1.00
H512   H     0.60829   0.35322   0.15162   0.00000  Uiso   1.00
N513   N     0.65011   0.48598   0.23783   0.00000  Uiso   1.00
N514   N     0.34989   0.51402   0.26217   0.00000  Uiso   1.00
O515   O     0.46308   0.57952   0.25298   0.00000  Uiso   1.00
O516   O     0.49019   0.59382   0.40424   0.00000  Uiso   1.00
O517   O     0.56528   0.63014   0.45678   0.00000  Uiso   1.00
O518   O     0.44242   0.36050   0.04495   0.00000  Uiso   1.00
O519   O     0.34389   0.46537   0.20060   0.00000  Uiso   1.00
O520   O     0.65485   0.54847   0.28787   0.00000  Uiso   1.00
O521   O     0.53692   0.42048   0.24702   0.00000  Uiso   1.00
O522   O     0.55946   0.57054   0.24519   0.00000  Uiso   1.00
O523   O     0.44054   0.42946   0.25482   0.00000  Uiso   1.00
O524   O     0.45181   0.50450   0.31998   0.00000  Uiso   1.00
O525   O     0.54819   0.49550   0.18003   0.00000  Uiso   1.00
O526   O     0.54819   0.49552   0.31218   0.00000  Uiso   1.00
O527   O     0.45181   0.50448   0.18783   0.00000  Uiso   1.00
O528   O     0.46152   0.40463   0.11742   0.00000  Uiso   1.00
Zn529  Zn    0.43565   0.50600   0.25521   0.00000  Uiso   1.00
Zn530  Zn    0.56435   0.49400   0.24479   0.00000  Uiso   1.00
C531   C     0.84834   0.59777   0.24770   0.00000  Uiso   1.00
C532   C     0.84695   0.54733   0.41002   0.00000  Uiso   1.00
C533   C     0.83600   0.49236   0.11540   0.00000  Uiso   1.00
C534   C     0.83324   0.50231   0.38466   0.00000  Uiso   1.00
C535   C     0.86273   0.53359   0.09179   0.00000  Uiso   1.00
C536   C     0.82240   0.45487   0.40530   0.00000  Uiso   1.00
C537   C     0.86962   0.53289   0.04543   0.00000  Uiso   1.00
C538   C     0.82570   0.45075   0.45119   0.00000  Uiso   1.00
C539   C     0.84916   0.48955   0.02175   0.00000  Uiso   1.00
C540   C     0.84801   0.49295   0.47512   0.00000  Uiso   1.00
C541   C     0.82518   0.44495   0.04526   0.00000  Uiso   1.00
C542   C     0.81835   0.40225   0.25196   0.00000  Uiso   1.00
C543   C     0.86311   0.54060   0.45333   0.00000  Uiso   1.00
C544   C     0.89223   0.57713   0.02299   0.00000  Uiso   1.00
C545   C     0.80573   0.40536   0.47318   0.00000  Uiso   1.00
C546   C     0.83229   0.37781   0.14009   0.00000  Uiso   1.00
C547   C     0.87380   0.34986   0.10801   0.00000  Uiso   1.00
C548   C     0.91615   0.65774   0.13335   0.00000  Uiso   1.00
C549   C     0.83746   0.61697   0.36201   0.00000  Uiso   1.00
C550   C     0.90030   0.63412   0.35312   0.00000  Uiso   1.00
C551   C     0.91153   0.35892   0.35554   0.00000  Uiso   1.00
C552   C     0.95113   0.65618   0.46449   0.00000  Uiso   1.00
C553   C     0.88861   0.58227   0.47694   0.00000  Uiso   1.00
C554   C     0.94179   0.37821   0.47884   0.00000  Uiso   1.00
C555   C     0.99652   0.41135   0.48117   0.00000  Uiso   1.00
C556   C     0.76393   0.64896   0.01941   0.00000  Uiso   1.00
C557   C     0.73914   0.60628   0.05134   0.00000  Uiso   1.00
C558   C     0.71925   0.55831   0.02564   0.00000  Uiso   1.00
C559   C     0.66847   0.49506   0.16283   0.00000  Uiso   1.00
C560   C     0.97447   0.46181   0.12687   0.00000  Uiso   1.00
C561   C     0.68026   0.42544   0.10254   0.00000  Uiso   1.00
C562   C     0.68263   0.56056   0.32640   0.00000  Uiso   1.00
C563   C     0.99851   0.52014   0.36272   0.00000  Uiso   1.00
C564   C     0.80321   0.40197   0.02064   0.00000  Uiso   1.00
C565   C     0.68503   0.53648   0.40808   0.00000  Uiso   1.00
C566   C     0.85626   0.65209   0.24760   0.00000  Uiso   1.00
C567   C     0.81054   0.34802   0.25196   0.00000  Uiso   1.00
C568   C     0.83345   0.50168   0.33640   0.00000  Uiso   1.00
C569   C     0.83319   0.49701   0.16375   0.00000  Uiso   1.00
C570   C     0.82162   0.44583   0.09318   0.00000  Uiso   1.00
Cl571  Cl    0.92929   0.34127   0.24212   0.00000  Uiso   1.00
Cl572  Cl    0.73771   0.65912   0.25543   0.00000  Uiso   1.00
H573   H     0.87685   0.56704   0.11004   0.00000  Uiso   1.00
H574   H     0.94543   0.63734   0.10936   0.00000  Uiso   1.00
H575   H     0.89407   0.63022   0.15803   0.00000  Uiso   1.00
H576   H     0.81208   0.65075   0.36165   0.00000  Uiso   1.00
H577   H     0.82268   0.59309   0.33454   0.00000  Uiso   1.00
H578   H     0.92452   0.61653   0.37738   0.00000  Uiso   1.00
H579   H     0.91641   0.62012   0.31949   0.00000  Uiso   1.00
H580   H     0.95760   0.36950   0.35114   0.00000  Uiso   1.00
H581   H     0.89374   0.37338   0.38848   0.00000  Uiso   1.00
H582   H     0.89120   0.37750   0.32906   0.00000  Uiso   1.00
H583   H     0.97888   0.65692   0.43233   0.00000  Uiso   1.00
H584   H     0.80876   0.42157   0.38572   0.00000  Uiso   1.00
H585   H     0.97393   0.63829   0.48976   0.00000  Uiso   1.00
H586   H     0.91770   0.39600   0.45462   0.00000  Uiso   1.00
H587   H     0.91693   0.37836   0.01199   0.00000  Uiso   1.00
H588   H     0.68909   0.39510   0.00495   0.00000  Uiso   1.00
H589   H     0.98690   0.45028   0.49369   0.00000  Uiso   1.00
H590   H     0.68719   0.41424   0.44732   0.00000  Uiso   1.00
H591   H     0.80279   0.63677   0.00045   0.00000  Uiso   1.00
H592   H     0.73267   0.65522   0.49563   0.00000  Uiso   1.00
H593   H     0.77134   0.59634   0.07330   0.00000  Uiso   1.00
H594   H     0.70282   0.61994   0.07325   0.00000  Uiso   1.00
H595   H     0.90784   0.60965   0.04208   0.00000  Uiso   1.00
H596   H     0.68248   0.56557   0.00758   0.00000  Uiso   1.00
H597   H     0.70642   0.52694   0.04968   0.00000  Uiso   1.00
H598   H     0.75336   0.54591   0.00087   0.00000  Uiso   1.00
H599   H     0.70908   0.51216   0.14678   0.00000  Uiso   1.00
H600   H     0.97709   0.52887   0.17173   0.00000  Uiso   1.00
H601   H     0.93857   0.43808   0.14283   0.00000  Uiso   1.00
H602   H     0.95965   0.48677   0.10165   0.00000  Uiso   1.00
H603   H     0.71504   0.44757   0.08283   0.00000  Uiso   1.00
H604   H     0.99064   0.40087   0.07882   0.00000  Uiso   1.00
H605   H     0.69531   0.40008   0.12724   0.00000  Uiso   1.00
H606   H     0.78967   0.37397   0.45278   0.00000  Uiso   1.00
H607   H     0.67018   0.59823   0.33934   0.00000  Uiso   1.00
H608   H     0.72815   0.56819   0.31871   0.00000  Uiso   1.00
H609   H     0.95203   0.51441   0.36742   0.00000  Uiso   1.00
H610   H     0.68174   0.48283   0.35198   0.00000  Uiso   1.00
H611   H     0.73134   0.53849   0.40622   0.00000  Uiso   1.00
H612   H     0.66756   0.50823   0.43385   0.00000  Uiso   1.00
H613   H     0.67033   0.57431   0.41863   0.00000  Uiso   1.00
H614   H     0.80630   0.34837   0.16077   0.00000  Uiso   1.00
H615   H     0.85454   0.40268   0.16370   0.00000  Uiso   1.00
H616   H     0.84987   0.65390   0.08883   0.00000  Uiso   1.00
H617   H     0.89721   0.37748   0.08445   0.00000  Uiso   1.00
H618   H     0.94162   0.35322   0.15162   0.00000  Uiso   1.00
N619   N     0.98344   0.48598   0.23783   0.00000  Uiso   1.00
N620   N     0.68322   0.51402   0.26217   0.00000  Uiso   1.00
O621   O     0.79642   0.57952   0.25298   0.00000  Uiso   1.00
O622   O     0.82352   0.59382   0.40424   0.00000  Uiso   1.00
O623   O     0.89861   0.63014   0.45678   0.00000  Uiso   1.00
O624   O     0.77575   0.36050   0.04495   0.00000  Uiso   1.00
O625   O     0.67722   0.46537   0.20060   0.00000  Uiso   1.00
O626   O     0.98818   0.54847   0.28787   0.00000  Uiso   1.00
O627   O     0.87025   0.42048   0.24702   0.00000  Uiso   1.00
O628   O     0.89280   0.57054   0.24519   0.00000  Uiso   1.00
O629   O     0.77387   0.42946   0.25482   0.00000  Uiso   1.00
O630   O     0.78514   0.50450   0.31998   0.00000  Uiso   1.00
O631   O     0.88153   0.49550   0.18003   0.00000  Uiso   1.00
O632   O     0.88152   0.49552   0.31218   0.00000  Uiso   1.00
O633   O     0.78515   0.50448   0.18783   0.00000  Uiso   1.00
O634   O     0.79485   0.40463   0.11742   0.00000  Uiso   1.00
Zn635  Zn    0.76898   0.50600   0.25521   0.00000  Uiso   1.00
Zn636  Zn    0.89769   0.49400   0.24479   0.00000  Uiso   1.00
C637   C     0.18167   0.93110   0.24770   0.00000  Uiso   1.00
C638   C     0.18029   0.88067   0.41002   0.00000  Uiso   1.00
C639   C     0.16933   0.82569   0.11540   0.00000  Uiso   1.00
C640   C     0.16658   0.83564   0.38466   0.00000  Uiso   1.00
C641   C     0.19606   0.86692   0.09179   0.00000  Uiso   1.00
C642   C     0.15574   0.78821   0.40530   0.00000  Uiso   1.00
C643   C     0.20296   0.86622   0.04543   0.00000  Uiso   1.00
C644   C     0.15904   0.78408   0.45119   0.00000  Uiso   1.00
C645   C     0.18249   0.82288   0.02175   0.00000  Uiso   1.00
C646   C     0.18135   0.82629   0.47512   0.00000  Uiso   1.00
C647   C     0.15852   0.77828   0.04526   0.00000  Uiso   1.00
C648   C     0.15168   0.73559   0.25196   0.00000  Uiso   1.00
C649   C     0.19644   0.87394   0.45333   0.00000  Uiso   1.00
C650   C     0.22556   0.91047   0.02299   0.00000  Uiso   1.00
C651   C     0.13906   0.73869   0.47318   0.00000  Uiso   1.00
C652   C     0.16562   0.71114   0.14009   0.00000  Uiso   1.00
C653   C     0.20714   0.68319   0.10801   0.00000  Uiso   1.00
C654   C     0.24948   0.99107   0.13335   0.00000  Uiso   1.00
C655   C     0.17079   0.95030   0.36201   0.00000  Uiso   1.00
C656   C     0.23364   0.96745   0.35312   0.00000  Uiso   1.00
C657   C     0.24487   0.69225   0.35554   0.00000  Uiso   1.00
C658   C     0.28446   0.98951   0.46449   0.00000  Uiso   1.00
C659   C     0.22195   0.91561   0.47694   0.00000  Uiso   1.00
C660   C     0.27513   0.71154   0.47884   0.00000  Uiso   1.00
C661   C     0.32986   0.74468   0.48117   0.00000  Uiso   1.00
C662   C     0.09726   0.98229   0.01941   0.00000  Uiso   1.00
C663   C     0.07247   0.93961   0.05134   0.00000  Uiso   1.00
C664   C     0.05258   0.89164   0.02564   0.00000  Uiso   1.00
C665   C     0.00180   0.82839   0.16283   0.00000  Uiso   1.00
C666   C     0.30780   0.79514   0.12687   0.00000  Uiso   1.00
C667   C     0.01359   0.75877   0.10254   0.00000  Uiso   1.00
C668   C     0.01596   0.89390   0.32640   0.00000  Uiso   1.00
C669   C     0.33184   0.85347   0.36272   0.00000  Uiso   1.00
C670   C     0.13654   0.73530   0.02064   0.00000  Uiso   1.00
C671   C     0.01836   0.86981   0.40808   0.00000  Uiso   1.00
C672   C     0.18959   0.98542   0.24760   0.00000  Uiso   1.00
C673   C     0.14387   0.68135   0.25196   0.00000  Uiso   1.00
C674   C     0.16679   0.83502   0.33640   0.00000  Uiso   1.00
C675   C     0.16652   0.83035   0.16375   0.00000  Uiso   1.00
C676   C     0.15495   0.77917   0.09318   0.00000  Uiso   1.00
Cl677  Cl    0.26263   0.67460   0.24212   0.00000  Uiso   1.00
Cl678  Cl    0.07104   0.99246   0.25543   0.00000  Uiso   1.00
H679   H     0.21019   0.90037   0.11004   0.00000  Uiso   1.00
H680   H     0.27876   0.97067   0.10936   0.00000  Uiso   1.00
H681   H     0.22740   0.96355   0.15803   0.00000  Uiso   1.00
H682   H     0.14541   0.98408   0.36165   0.00000  Uiso   1.00
H683   H     0.15601   0.92642   0.33454   0.00000  Uiso   1.00
H684   H     0.25786   0.94986   0.37738   0.00000  Uiso   1.00
H685   H     0.24974   0.95345   0.31949   0.00000  Uiso   1.00
H686   H     0.29093   0.70283   0.35114   0.00000  Uiso   1.00
H687   H     0.22707   0.70671   0.38848   0.00000  Uiso   1.00
H688   H     0.22453   0.71083   0.32906   0.00000  Uiso   1.00
H689   H     0.31221   0.99025   0.43233   0.00000  Uiso   1.00
H690   H     0.14209   0.75490   0.38572   0.00000  Uiso   1.00
H691   H     0.30726   0.97162   0.48976   0.00000  Uiso   1.00
H692   H     0.25104   0.72933   0.45462   0.00000  Uiso   1.00
H693   H     0.25027   0.71169   0.01199   0.00000  Uiso   1.00
H694   H     0.02242   0.72843   0.00495   0.00000  Uiso   1.00
H695   H     0.32023   0.78361   0.49369   0.00000  Uiso   1.00
H696   H     0.02052   0.74758   0.44732   0.00000  Uiso   1.00
H697   H     0.13612   0.97010   0.00045   0.00000  Uiso   1.00
H698   H     0.06600   0.98855   0.49563   0.00000  Uiso   1.00
H699   H     0.10467   0.92968   0.07330   0.00000  Uiso   1.00
H700   H     0.03615   0.95327   0.07325   0.00000  Uiso   1.00
H701   H     0.24117   0.94298   0.04208   0.00000  Uiso   1.00
H702   H     0.01581   0.89890   0.00758   0.00000  Uiso   1.00
H703   H     0.03975   0.86027   0.04968   0.00000  Uiso   1.00
H704   H     0.08669   0.87924   0.00087   0.00000  Uiso   1.00
H705   H     0.04241   0.84549   0.14678   0.00000  Uiso   1.00
H706   H     0.31042   0.86220   0.17173   0.00000  Uiso   1.00
H707   H     0.27191   0.77141   0.14283   0.00000  Uiso   1.00
H708   H     0.29298   0.82010   0.10165   0.00000  Uiso   1.00
H709   H     0.04837   0.78090   0.08283   0.00000  Uiso   1.00
H710   H     0.32397   0.73420   0.07882   0.00000  Uiso   1.00
H711   H     0.02865   0.73341   0.12724   0.00000  Uiso   1.00
H712   H     0.12300   0.70730   0.45278   0.00000  Uiso   1.00
H713   H     0.00351   0.93156   0.33934   0.00000  Uiso   1.00
H714   H     0.06149   0.90153   0.31871   0.00000  Uiso   1.00
H715   H     0.28537   0.84774   0.36742   0.00000  Uiso   1.00
H716   H     0.01507   0.81617   0.35198   0.00000  Uiso   1.00
H717   H     0.06467   0.87182   0.40622   0.00000  Uiso   1.00
H718   H     0.00089   0.84157   0.43385   0.00000  Uiso   1.00
H719   H     0.00366   0.90764   0.41863   0.00000  Uiso   1.00
H720   H     0.13963   0.68171   0.16077   0.00000  Uiso   1.00
H721   H     0.18787   0.73601   0.16370   0.00000  Uiso   1.00
H722   H     0.18320   0.98723   0.08883   0.00000  Uiso   1.00
H723   H     0.23055   0.71081   0.08445   0.00000  Uiso   1.00
H724   H     0.27495   0.68656   0.15162   0.00000  Uiso   1.00
N725   N     0.31678   0.81932   0.23783   0.00000  Uiso   1.00
N726   N     0.01656   0.84735   0.26217   0.00000  Uiso   1.00
O727   O     0.12975   0.91286   0.25298   0.00000  Uiso   1.00
O728   O     0.15686   0.92716   0.40424   0.00000  Uiso   1.00
O729   O     0.23194   0.96347   0.45678   0.00000  Uiso   1.00
O730   O     0.10908   0.69384   0.04495   0.00000  Uiso   1.00
O731   O     0.01056   0.79871   0.20060   0.00000  Uiso   1.00
O732   O     0.32151   0.88181   0.28787   0.00000  Uiso   1.00
O733   O     0.20358   0.75381   0.24702   0.00000  Uiso   1.00
O734   O     0.22613   0.90387   0.24519   0.00000  Uiso   1.00
O735   O     0.10720   0.76279   0.25482   0.00000  Uiso   1.00
O736   O     0.11847   0.83784   0.31998   0.00000  Uiso   1.00
O737   O     0.21486   0.82883   0.18003   0.00000  Uiso   1.00
O738   O     0.21485   0.82885   0.31218   0.00000  Uiso   1.00
O739   O     0.11848   0.83781   0.18783   0.00000  Uiso   1.00
O740   O     0.12818   0.73796   0.11742   0.00000  Uiso   1.00
Zn741  Zn    0.10231   0.83933   0.25521   0.00000  Uiso   1.00
Zn742  Zn    0.23102   0.82734   0.24479   0.00000  Uiso   1.00
C743   C     0.51501   0.93110   0.24770   0.00000  Uiso   1.00
C744   C     0.51362   0.88067   0.41002   0.00000  Uiso   1.00
C745   C     0.50267   0.82569   0.11540   0.00000  Uiso   1.00
C746   C     0.49991   0.83564   0.38466   0.00000  Uiso   1.00
C747   C     0.52939   0.86692   0.09179   0.00000  Uiso   1.00
C748   C     0.48907   0.78821   0.40530   0.00000  Uiso   1.00
C749   C     0.53629   0.86622   0.04543   0.00000  Uiso   1.00
C750   C     0.49237   0.78408   0.45119   0.00000  Uiso   1.00
C751   C     0.51582   0.82288   0.02175   0.00000  Uiso   1.00
C752   C     0.51468   0.82629   0.47512   0.00000  Uiso   1.00
C753   C     0.49185   0.77828   0.04526   0.00000  Uiso   1.00
C754   C     0.48501   0.73559   0.25196   0.00000  Uiso   1.00
C755   C     0.52977   0.87394   0.45333   0.00000  Uiso   1.00
C756   C     0.55889   0.91047   0.02299   0.00000  Uiso   1.00
C757   C     0.47239   0.73869   0.47318   0.00000  Uiso   1.00
C758   C     0.49896   0.71114   0.14009   0.00000  Uiso   1.00
C759   C     0.54047   0.68319   0.10801   0.00000  Uiso   1.00
C760   C     0.58281   0.99107   0.13335   0.00000  Uiso   1.00
C761   C     0.50413   0.95030   0.36201   0.00000  Uiso   1.00
C762   C     0.56697   0.96745   0.35312   0.00000  Uiso   1.00
C763   C     0.57820   0.69225   0.35554   0.00000  Uiso   1.00
C764   C     0.61780   0.98951   0.46449   0.00000  Uiso   1.00
C765   C     0.55528   0.91561   0.47694   0.00000  Uiso   1.00
C766   C     0.60846   0.71154   0.47884   0.00000  Uiso   1.00
C767   C     0.66319   0.74468   0.48117   0.00000  Uiso   1.00
C768   C     0.43059   0.98229   0.01941   0.00000  Uiso   1.00
C769   C     0.40580   0.93961   0.05134   0.00000  Uiso   1.00
C770   C     0.38592   0.89164   0.02564   0.00000  Uiso   1.00
C771   C     0.33514   0.82839   0.16283   0.00000  Uiso   1.00
C772   C     0.64113   0.79514   0.12687   0.00000  Uiso   1.00
C773   C     0.34692   0.75877   0.10254   0.00000  Uiso   1.00
C774   C     0.34929   0.89390   0.32640   0.00000  Uiso   1.00
C775   C     0.66517   0.85347   0.36272   0.00000  Uiso   1.00
C776   C     0.46987   0.73530   0.02064   0.00000  Uiso   1.00
C777   C     0.35170   0.86981   0.40808   0.00000  Uiso   1.00
C778   C     0.52293   0.98542   0.24760   0.00000  Uiso   1.00
C779   C     0.47721   0.68135   0.25196   0.00000  Uiso   1.00
C780   C     0.50012   0.83502   0.33640   0.00000  Uiso   1.00
C781   C     0.49986   0.83035   0.16375   0.00000  Uiso   1.00
C782   C     0.48828   0.77917   0.09318   0.00000  Uiso   1.00
Cl783  Cl    0.59596   0.67460   0.24212   0.00000  Uiso   1.00
Cl784  Cl    0.40438   0.99246   0.25543   0.00000  Uiso   1.00
H785   H     0.54352   0.90037   0.11004   0.00000  Uiso   1.00
H786   H     0.61210   0.97067   0.10936   0.00000  Uiso   1.00
H787   H     0.56073   0.96355   0.15803   0.00000  Uiso   1.00
H788   H     0.47874   0.98408   0.36165   0.00000  Uiso   1.00
H789   H     0.48935   0.92642   0.33454   0.00000  Uiso   1.00
H790   H     0.59119   0.94986   0.37738   0.00000  Uiso   1.00
H791   H     0.58307   0.95345   0.31949   0.00000  Uiso   1.00
H792   H     0.62426   0.70283   0.35114   0.00000  Uiso   1.00
H793   H     0.56041   0.70671   0.38848   0.00000  Uiso   1.00
H794   H     0.55787   0.71083   0.32906   0.00000  Uiso   1.00
H795   H     0.64555   0.99025   0.43233   0.00000  Uiso   1.00
H796   H     0.47543   0.75490   0.38572   0.00000  Uiso   1.00
H797   H     0.64060   0.97162   0.48976   0.00000  Uiso   1.00
H798   H     0.58437   0.72933   0.45462   0.00000  Uiso   1.00
H799   H     0.58360   0.71169   0.01199   0.00000  Uiso   1.00
H800   H     0.35575   0.72843   0.00495   0.00000  Uiso   1.00
H801   H     0.65357   0.78361   0.49369   0.00000  Uiso   1.00
H802   H     0.35385   0.74758   0.44732   0.00000  Uiso   1.00
H803   H     0.46946   0.97010   0.00045   0.00000  Uiso   1.00
H804   H     0.39934   0.98855   0.49563   0.00000  Uiso   1.00
H805   H     0.43801   0.92968   0.07330   0.00000  Uiso   1.00
H806   H     0.36949   0.95327   0.07325   0.00000  Uiso   1.00
H807   H     0.57450   0.94298   0.04208   0.00000  Uiso   1.00
H808   H     0.34915   0.89890   0.00758   0.00000  Uiso   1.00
H809   H     0.37308   0.86027   0.04968   0.00000  Uiso   1.00
H810   H     0.42003   0.87924   0.00087   0.00000  Uiso   1.00
H811   H     0.37574   0.84549   0.14678   0.00000  Uiso   1.00
H812   H     0.64376   0.86220   0.17173   0.00000  Uiso   1.00
H813   H     0.60524   0.77141   0.14283   0.00000  Uiso   1.00
H814   H     0.62632   0.82010   0.10165   0.00000  Uiso   1.00
H815   H     0.38171   0.78090   0.08283   0.00000  Uiso   1.00
H816   H     0.65731   0.73420   0.07882   0.00000  Uiso   1.00
H817   H     0.36198   0.73341   0.12724   0.00000  Uiso   1.00
H818   H     0.45633   0.70730   0.45278   0.00000  Uiso   1.00
H819   H     0.33684   0.93156   0.33934   0.00000  Uiso   1.00
H820   H     0.39482   0.90153   0.31871   0.00000  Uiso   1.00
H821   H     0.61870   0.84774   0.36742   0.00000  Uiso   1.00
H822   H     0.34840   0.81617   0.35198   0.00000  Uiso   1.00
H823   H     0.39800   0.87182   0.40622   0.00000  Uiso   1.00
H824   H     0.33422   0.84157   0.43385   0.00000  Uiso   1.00
H825   H     0.33700   0.90764   0.41863   0.00000  Uiso   1.00
H826   H     0.47297   0.68171   0.16077   0.00000  Uiso   1.00
H827   H     0.52121   0.73601   0.16370   0.00000  Uiso   1.00
H828   H     0.51654   0.98723   0.08883   0.00000  Uiso   1.00
H829   H     0.56388   0.71081   0.08445   0.00000  Uiso   1.00
H830   H     0.60829   0.68656   0.15162   0.00000  Uiso   1.00
N831   N     0.65011   0.81932   0.23783   0.00000  Uiso   1.00
N832   N     0.34989   0.84735   0.26217   0.00000  Uiso   1.00
O833   O     0.46308   0.91286   0.25298   0.00000  Uiso   1.00
O834   O     0.49019   0.92716   0.40424   0.00000  Uiso   1.00
O835   O     0.56528   0.96347   0.45678   0.00000  Uiso   1.00
O836   O     0.44242   0.69384   0.04495   0.00000  Uiso   1.00
O837   O     0.34389   0.79871   0.20060   0.00000  Uiso   1.00
O838   O     0.65485   0.88181   0.28787   0.00000  Uiso   1.00
O839   O     0.53692   0.75381   0.24702   0.00000  Uiso   1.00
O840   O     0.55946   0.90387   0.24519   0.00000  Uiso   1.00
O841   O     0.44054   0.76279   0.25482   0.00000  Uiso   1.00
O842   O     0.45181   0.83784   0.31998   0.00000  Uiso   1.00
O843   O     0.54819   0.82883   0.18003   0.00000  Uiso   1.00
O844   O     0.54819   0.82885   0.31218   0.00000  Uiso   1.00
O845   O     0.45181   0.83781   0.18783   0.00000  Uiso   1.00
O846   O     0.46152   0.73796   0.11742   0.00000  Uiso   1.00
Zn847  Zn    0.43565   0.83933   0.25521   0.00000  Uiso   1.00
Zn848  Zn    0.56435   0.82734   0.24479   0.00000  Uiso   1.00
C849   C     0.84834   0.93110   0.24770   0.00000  Uiso   1.00
C850   C     0.84695   0.88067   0.41002   0.00000  Uiso   1.00
C851   C     0.83600   0.82569   0.11540   0.00000  Uiso   1.00
C852   C     0.83324   0.83564   0.38466   0.00000  Uiso   1.00
C853   C     0.86273   0.86692   0.09179   0.00000  Uiso   1.00
C854   C     0.82240   0.78821   0.40530   0.00000  Uiso   1.00
C855   C     0.86962   0.86622   0.04543   0.00000  Uiso   1.00
C856   C     0.82570   0.78408   0.45119   0.00000  Uiso   1.00
C857   C     0.84916   0.82288   0.02175   0.00000  Uiso   1.00
C858   C     0.84801   0.82629   0.47512   0.00000  Uiso   1.00
C859   C     0.82518   0.77828   0.04526   0.00000  Uiso   1.00
C860   C     0.81835   0.73559   0.25196   0.00000  Uiso   1.00
C861   C     0.86311   0.87394   0.45333   0.00000  Uiso   1.00
C862   C     0.89223   0.91047   0.02299   0.00000  Uiso   1.00
C863   C     0.80573   0.73869   0.47318   0.00000  Uiso   1.00
C864   C     0.83229   0.71114   0.14009   0.00000  Uiso   1.00
C865   C     0.87380   0.68319   0.10801   0.00000  Uiso   1.00
C866   C     0.91615   0.99107   0.13335   0.00000  Uiso   1.00
C867   C     0.83746   0.95030   0.36201   0.00000  Uiso   1.00
C868   C     0.90030   0.96745   0.35312   0.00000  Uiso   1.00
C869   C     0.91153   0.69225   0.35554   0.00000  Uiso   1.00
C870   C     0.95113   0.98951   0.46449   0.00000  Uiso   1.00
C871   C     0.88861   0.91561   0.47694   0.00000  Uiso   1.00
C872   C     0.94179   0.71154   0.47884   0.00000  Uiso   1.00
C873   C     0.99652   0.74468   0.48117   0.00000  Uiso   1.00
C874   C     0.76393   0.98229   0.01941   0.00000  Uiso   1.00
C875   C     0.73914   0.93961   0.05134   0.00000  Uiso   1.00
C876   C     0.71925   0.89164   0.02564   0.00000  Uiso   1.00
C877   C     0.66847   0.82839   0.16283   0.00000  Uiso   1.00
C878   C     0.97447   0.79514   0.12687   0.00000  Uiso   1.00
C879   C     0.68026   0.75877   0.10254   0.00000  Uiso   1.00
C880   C     0.68263   0.89390   0.32640   0.00000  Uiso   1.00
C881   C     0.99851   0.85347   0.36272   0.00000  Uiso   1.00
C882   C     0.80321   0.73530   0.02064   0.00000  Uiso   1.00
C883   C     0.68503   0.86981   0.40808   0.00000  Uiso   1.00
C884   C     0.85626   0.98542   0.24760   0.00000  Uiso   1.00
C885   C     0.81054   0.68135   0.25196   0.00000  Uiso   1.00
C886   C     0.83345   0.83502   0.33640   0.00000  Uiso   1.00
C887   C     0.83319   0.83035   0.16375   0.00000  Uiso   1.00
C888   C     0.82162   0.77917   0.09318   0.00000  Uiso   1.00
Cl889  Cl    0.92929   0.67460   0.24212   0.00000  Uiso   1.00
Cl890  Cl    0.73771   0.99246   0.25543   0.00000  Uiso   1.00
H891   H     0.87685   0.90037   0.11004   0.00000  Uiso   1.00
H892   H     0.94543   0.97067   0.10936   0.00000  Uiso   1.00
H893   H     0.89407   0.96355   0.15803   0.00000  Uiso   1.00
H894   H     0.81208   0.98408   0.36165   0.00000  Uiso   1.00
H895   H     0.82268   0.92642   0.33454   0.00000  Uiso   1.00
H896   H     0.92452   0.94986   0.37738   0.00000  Uiso   1.00
H897   H     0.91641   0.95345   0.31949   0.00000  Uiso   1.00
H898   H     0.95760   0.70283   0.35114   0.00000  Uiso   1.00
H899   H     0.89374   0.70671   0.38848   0.00000  Uiso   1.00
H900   H     0.89120   0.71083   0.32906   0.00000  Uiso   1.00
H901   H     0.97888   0.99025   0.43233   0.00000  Uiso   1.00
H902   H     0.80876   0.75490   0.38572   0.00000  Uiso   1.00
H903   H     0.97393   0.97162   0.48976   0.00000  Uiso   1.00
H904   H     0.91770   0.72933   0.45462   0.00000  Uiso   1.00
H905   H     0.91693   0.71169   0.01199   0.00000  Uiso   1.00
H906   H     0.68909   0.72843   0.00495   0.00000  Uiso   1.00
H907   H     0.98690   0.78361   0.49369   0.00000  Uiso   1.00
H908   H     0.68719   0.74758   0.44732   0.00000  Uiso   1.00
H909   H     0.80279   0.97010   0.00045   0.00000  Uiso   1.00
H910   H     0.73267   0.98855   0.49563   0.00000  Uiso   1.00
H911   H     0.77134   0.92968   0.07330   0.00000  Uiso   1.00
H912   H     0.70282   0.95327   0.07325   0.00000  Uiso   1.00
H913   H     0.90784   0.94298   0.04208   0.00000  Uiso   1.00
H914   H     0.68248   0.89890   0.00758   0.00000  Uiso   1.00
H915   H     0.70642   0.86027   0.04968   0.00000  Uiso   1.00
H916   H     0.75336   0.87924   0.00087   0.00000  Uiso   1.00
H917   H     0.70908   0.84549   0.14678   0.00000  Uiso   1.00
H918   H     0.97709   0.86220   0.17173   0.00000  Uiso   1.00
H919   H     0.93857   0.77141   0.14283   0.00000  Uiso   1.00
H920   H     0.95965   0.82010   0.10165   0.00000  Uiso   1.00
H921   H     0.71504   0.78090   0.08283   0.00000  Uiso   1.00
H922   H     0.99064   0.73420   0.07882   0.00000  Uiso   1.00
H923   H     0.69531   0.73341   0.12724   0.00000  Uiso   1.00
H924   H     0.78967   0.70730   0.45278   0.00000  Uiso   1.00
H925   H     0.67018   0.93156   0.33934   0.00000  Uiso   1.00
H926   H     0.72815   0.90153   0.31871   0.00000  Uiso   1.00
H927   H     0.95203   0.84774   0.36742   0.00000  Uiso   1.00
H928   H     0.68174   0.81617   0.35198   0.00000  Uiso   1.00
H929   H     0.73134   0.87182   0.40622   0.00000  Uiso   1.00
H930   H     0.66756   0.84157   0.43385   0.00000  Uiso   1.00
H931   H     0.67033   0.90764   0.41863   0.00000  Uiso   1.00
H932   H     0.80630   0.68171   0.16077   0.00000  Uiso   1.00
H933   H     0.85454   0.73601   0.16370   0.00000  Uiso   1.00
H934   H     0.84987   0.98723   0.08883   0.00000  Uiso   1.00
H935   H     0.89721   0.71081   0.08445   0.00000  Uiso   1.00
H936   H     0.94162   0.68656   0.15162   0.00000  Uiso   1.00
N937   N     0.98344   0.81932   0.23783   0.00000  Uiso   1.00
N938   N     0.68322   0.84735   0.26217   0.00000  Uiso   1.00
O939   O     0.79642   0.91286   0.25298   0.00000  Uiso   1.00
O940   O     0.82352   0.92716   0.40424   0.00000  Uiso   1.00
O941   O     0.89861   0.96347   0.45678   0.00000  Uiso   1.00
O942   O     0.77575   0.69384   0.04495   0.00000  Uiso   1.00
O943   O     0.67722   0.79871   0.20060   0.00000  Uiso   1.00
O944   O     0.98818   0.88181   0.28787   0.00000  Uiso   1.00
O945   O     0.87025   0.75381   0.24702   0.00000  Uiso   1.00
O946   O     0.89280   0.90387   0.24519   0.00000  Uiso   1.00
O947   O     0.77387   0.76279   0.25482   0.00000  Uiso   1.00
O948   O     0.78514   0.83784   0.31998   0.00000  Uiso   1.00
O949   O     0.88153   0.82883   0.18003   0.00000  Uiso   1.00
O950   O     0.88152   0.82885   0.31218   0.00000  Uiso   1.00
O951   O     0.78515   0.83781   0.18783   0.00000  Uiso   1.00
O952   O     0.79485   0.73796   0.11742   0.00000  Uiso   1.00
Zn953  Zn    0.76898   0.83933   0.25521   0.00000  Uiso   1.00
Zn954  Zn    0.89769   0.82734   0.24479   0.00000  Uiso   1.00
C955   C     0.18167   0.26444   0.74770   0.00000  Uiso   1.00
C956   C     0.18029   0.21400   0.91002   0.00000  Uiso   1.00
C957   C     0.16933   0.15903   0.61540   0.00000  Uiso   1.00
C958   C     0.16658   0.16897   0.88466   0.00000  Uiso   1.00
C959   C     0.19606   0.20025   0.59179   0.00000  Uiso   1.00
C960   C     0.15574   0.12154   0.90530   0.00000  Uiso   1.00
C961   C     0.20296   0.19955   0.54543   0.00000  Uiso   1.00
C962   C     0.15904   0.11741   0.95119   0.00000  Uiso   1.00
C963   C     0.18249   0.15621   0.52175   0.00000  Uiso   1.00
C964   C     0.18135   0.15962   0.97512   0.00000  Uiso   1.00
C965   C     0.15852   0.11162   0.54526   0.00000  Uiso   1.00
C966   C     0.15168   0.06892   0.75196   0.00000  Uiso   1.00
C967   C     0.19644   0.20727   0.95333   0.00000  Uiso   1.00
C968   C     0.22556   0.24380   0.52299   0.00000  Uiso   1.00
C969   C     0.13906   0.07202   0.97318   0.00000  Uiso   1.00
C970   C     0.16562   0.04447   0.64009   0.00000  Uiso   1.00
C971   C     0.20714   0.01652   0.60801   0.00000  Uiso   1.00
C972   C     0.24948   0.32440   0.63335   0.00000  Uiso   1.00
C973   C     0.17079   0.28363   0.86201   0.00000  Uiso   1.00
C974   C     0.23364   0.30079   0.85312   0.00000  Uiso   1.00
C975   C     0.24487   0.02559   0.85554   0.00000  Uiso   1.00
C976   C     0.28446   0.32285   0.96449   0.00000  Uiso   1.00
C977   C     0.22195   0.24894   0.97694   0.00000  Uiso   1.00
C978   C     0.27513   0.04488   0.97884   0.00000  Uiso   1.00
C979   C     0.32986   0.07802   0.98117   0.00000  Uiso   1.00
C980   C     0.09726   0.31562   0.51941   0.00000  Uiso   1.00
C981   C     0.07247   0.27295   0.55134   0.00000  Uiso   1.00
C982   C     0.05258   0.22497   0.52564   0.00000  Uiso   1.00
C983   C     0.00180   0.16172   0.66283   0.00000  Uiso   1.00
C984   C     0.30780   0.12847   0.62687   0.00000  Uiso   1.00
C985   C     0.01359   0.09210   0.60254   0.00000  Uiso   1.00
C986   C     0.01596   0.22723   0.82640   0.00000  Uiso   1.00
C987   C     0.33184   0.18681   0.86272   0.00000  Uiso   1.00
C988   C     0.13654   0.06863   0.52064   0.00000  Uiso   1.00
C989   C     0.01836   0.20314   0.90808   0.00000  Uiso   1.00
C990   C     0.18959   0.31875   0.74760   0.00000  Uiso   1.00
C991   C     0.14387   0.01468   0.75196   0.00000  Uiso   1.00
C992   C     0.16679   0.16835   0.83640   0.00000  Uiso   1.00
C993   C     0.16652   0.16368   0.66375   0.00000  Uiso   1.00
C994   C     0.15495   0.11250   0.59318   0.00000  Uiso   1.00
Cl995  Cl    0.26263   0.00793   0.74212   0.00000  Uiso   1.00
Cl996  Cl    0.07104   0.32579   0.75543   0.00000  Uiso   1.00
H997   H     0.21019   0.23370   0.61004   0.00000  Uiso   1.00
H998   H     0.27876   0.30401   0.60936   0.00000  Uiso   1.00
H999   H     0.22740   0.29689   0.65803   0.00000  Uiso   1.00
H1000  H     0.14541   0.31741   0.86165   0.00000  Uiso   1.00
H1001  H     0.15601   0.25976   0.83454   0.00000  Uiso   1.00
H1002  H     0.25786   0.28319   0.87738   0.00000  Uiso   1.00
H1003  H     0.24974   0.28678   0.81949   0.00000  Uiso   1.00
H1004  H     0.29093   0.03616   0.85114   0.00000  Uiso   1.00
H1005  H     0.22707   0.04004   0.88848   0.00000  Uiso   1.00
H1006  H     0.22453   0.04417   0.82906   0.00000  Uiso   1.00
H1007  H     0.31221   0.32359   0.93233   0.00000  Uiso   1.00
H1008  H     0.14209   0.08824   0.88572   0.00000  Uiso   1.00
H1009  H     0.30726   0.30495   0.98976   0.00000  Uiso   1.00
H1010  H     0.25104   0.06267   0.95462   0.00000  Uiso   1.00
H1011  H     0.25027   0.04502   0.51199   0.00000  Uiso   1.00
H1012  H     0.02242   0.06177   0.50495   0.00000  Uiso   1.00
H1013  H     0.32023   0.11694   0.99369   0.00000  Uiso   1.00
H1014  H     0.02052   0.08091   0.94732   0.00000  Uiso   1.00
H1015  H     0.13612   0.30343   0.50045   0.00000  Uiso   1.00
H1016  H     0.06600   0.32189   0.99563   0.00000  Uiso   1.00
H1017  H     0.10467   0.26301   0.57330   0.00000  Uiso   1.00
H1018  H     0.03615   0.28661   0.57325   0.00000  Uiso   1.00
H1019  H     0.24117   0.27631   0.54208   0.00000  Uiso   1.00
H1020  H     0.01581   0.23223   0.50758   0.00000  Uiso   1.00
H1021  H     0.03975   0.19361   0.54968   0.00000  Uiso   1.00
H1022  H     0.08669   0.21257   0.50087   0.00000  Uiso   1.00
H1023  H     0.04241   0.17882   0.64678   0.00000  Uiso   1.00
H1024  H     0.31042   0.19554   0.67173   0.00000  Uiso   1.00
H1025  H     0.27191   0.10475   0.64283   0.00000  Uiso   1.00
H1026  H     0.29298   0.15344   0.60165   0.00000  Uiso   1.00
H1027  H     0.04837   0.11424   0.58283   0.00000  Uiso   1.00
H1028  H     0.32397   0.06754   0.57882   0.00000  Uiso   1.00
H1029  H     0.02865   0.06675   0.62724   0.00000  Uiso   1.00
H1030  H     0.12300   0.04064   0.95278   0.00000  Uiso   1.00
H1031  H     0.00351   0.26490   0.83934   0.00000  Uiso   1.00
H1032  H     0.06149   0.23486   0.81871   0.00000  Uiso   1.00
H1033  H     0.28537   0.18107   0.86742   0.00000  Uiso   1.00
H1034  H     0.01507   0.14950   0.85198   0.00000  Uiso   1.00
H1035  H     0.06467   0.20516   0.90622   0.00000  Uiso   1.00
H1036  H     0.00089   0.17490   0.93385   0.00000  Uiso   1.00
H1037  H     0.00366   0.24098   0.91863   0.00000  Uiso   1.00
H1038  H     0.13963   0.01504   0.66077   0.00000  Uiso   1.00
H1039  H     0.18787   0.06934   0.66370   0.00000  Uiso   1.00
H1040  H     0.18320   0.32057   0.58883   0.00000  Uiso   1.00
H1041  H     0.23055   0.04415   0.58445   0.00000  Uiso   1.00
H1042  H     0.27495   0.01989   0.65162   0.00000  Uiso   1.00
N1043  N     0.31678   0.15265   0.73783   0.00000  Uiso   1.00
N1044  N     0.01656   0.18068   0.76217   0.00000  Uiso   1.00
O1045  O     0.12975   0.24619   0.75298   0.00000  Uiso   1.00
O1046  O     0.15686   0.26049   0.90424   0.00000  Uiso   1.00
O1047  O     0.23194   0.29680   0.95678   0.00000  Uiso   1.00
O1048  O     0.10908   0.02717   0.54495   0.00000  Uiso   1.00
O1049  O     0.01056   0.13204   0.70060   0.00000  Uiso   1.00
O1050  O     0.32151   0.21514   0.78787   0.00000  Uiso   1.00
O1051  O     0.20358   0.08714   0.74702   0.00000  Uiso   1.00
O1052  O     0.22613   0.23721   0.74519   0.00000  Uiso   1.00
O1053  O     0.10720   0.09613   0.75482   0.00000  Uiso   1.00
O1054  O     0.11847   0.17117   0.81998   0.00000  Uiso   1.00
O1055  O     0.21486   0.16216   0.68003   0.00000  Uiso   1.00
O1056  O     0.21485   0.16219   0.81218   0.00000  Uiso   1.00
O1057  O     0.11848   0.17115   0.68783   0.00000  Uiso   1.00
O1058  O     0.12818   0.07130   0.61742   0.00000  Uiso   1.00
Zn1059 Zn    0.10231   0.17266   0.75521   0.00000  Uiso   1.00
Zn1060 Zn    0.23102   0.16067   0.74479   0.00000  Uiso   1.00
C1061  C     0.51501   0.26444   0.74770   0.00000  Uiso   1.00
C1062  C     0.51362   0.21400   0.91002   0.00000  Uiso   1.00
C1063  C     0.50267   0.15903   0.61540   0.00000  Uiso   1.00
C1064  C     0.49991   0.16897   0.88466   0.00000  Uiso   1.00
C1065  C     0.52939   0.20025   0.59179   0.00000  Uiso   1.00
C1066  C     0.48907   0.12154   0.90530   0.00000  Uiso   1.00
C1067  C     0.53629   0.19955   0.54543   0.00000  Uiso   1.00
C1068  C     0.49237   0.11741   0.95119   0.00000  Uiso   1.00
C1069  C     0.51582   0.15621   0.52175   0.00000  Uiso   1.00
C1070  C     0.51468   0.15962   0.97512   0.00000  Uiso   1.00
C1071  C     0.49185   0.11162   0.54526   0.00000  Uiso   1.00
C1072  C     0.48501   0.06892   0.75196   0.00000  Uiso   1.00
C1073  C     0.52977   0.20727   0.95333   0.00000  Uiso   1.00
C1074  C     0.55889   0.24380   0.52299   0.00000  Uiso   1.00
C1075  C     0.47239   0.07202   0.97318   0.00000  Uiso   1.00
C1076  C     0.49896   0.04447   0.64009   0.00000  Uiso   1.00
C1077  C     0.54047   0.01652   0.60801   0.00000  Uiso   1.00
C1078  C     0.58281   0.32440   0.63335   0.00000  Uiso   1.00
C1079  C     0.50413   0.28363   0.86201   0.00000  Uiso   1.00
C1080  C     0.56697   0.30079   0.85312   0.00000  Uiso   1.00
C1081  C     0.57820   0.02559   0.85554   0.00000  Uiso   1.00
C1082  C     0.61780   0.32285   0.96449   0.00000  Uiso   1.00
C1083  C     0.55528   0.24894   0.97694   0.00000  Uiso   1.00
C1084  C     0.60846   0.04488   0.97884   0.00000  Uiso   1.00
C1085  C     0.66319   0.07802   0.98117   0.00000  Uiso   1.00
C1086  C     0.43059   0.31562   0.51941   0.00000  Uiso   1.00
C1087  C     0.40580   0.27295   0.55134   0.00000  Uiso   1.00
C1088  C     0.38592   0.22497   0.52564   0.00000  Uiso   1.00
C1089  C     0.33514   0.16172   0.66283   0.00000  Uiso   1.00
C1090  C     0.64113   0.12847   0.62687   0.00000  Uiso   1.00
C1091  C     0.34692   0.09210   0.60254   0.00000  Uiso   1.00
C1092  C     0.34929   0.22723   0.82640   0.00000  Uiso   1.00
C1093  C     0.66517   0.18681   0.86272   0.00000  Uiso   1.00
C1094  C     0.46987   0.06863   0.52064   0.00000  Uiso   1.00
C1095  C     0.35170   0.20314   0.90808   0.00000  Uiso   1.00
C1096  C     0.52293   0.31875   0.74760   0.00000  Uiso   1.00
C1097  C     0.47721   0.01468   0.75196   0.00000  Uiso   1.00
C1098  C     0.50012   0.16835   0.83640   0.00000  Uiso   1.00
C1099  C     0.49986   0.16368   0.66375   0.00000  Uiso   1.00
C1100  C     0.48828   0.11250   0.59318   0.00000  Uiso   1.00
Cl1101 Cl    0.59596   0.00793   0.74212   0.00000  Uiso   1.00
Cl1102 Cl    0.40438   0.32579   0.75543   0.00000  Uiso   1.00
H1103  H     0.54352   0.23370   0.61004   0.00000  Uiso   1.00
H1104  H     0.61210   0.30401   0.60936   0.00000  Uiso   1.00
H1105  H     0.56073   0.29689   0.65803   0.00000  Uiso   1.00
H1106  H     0.47874   0.31741   0.86165   0.00000  Uiso   1.00
H1107  H     0.48935   0.25976   0.83454   0.00000  Uiso   1.00
H1108  H     0.59119   0.28319   0.87738   0.00000  Uiso   1.00
H1109  H     0.58307   0.28678   0.81949   0.00000  Uiso   1.00
H1110  H     0.62426   0.03616   0.85114   0.00000  Uiso   1.00
H1111  H     0.56041   0.04004   0.88848   0.00000  Uiso   1.00
H1112  H     0.55787   0.04417   0.82906   0.00000  Uiso   1.00
H1113  H     0.64555   0.32359   0.93233   0.00000  Uiso   1.00
H1114  H     0.47543   0.08824   0.88572   0.00000  Uiso   1.00
H1115  H     0.64060   0.30495   0.98976   0.00000  Uiso   1.00
H1116  H     0.58437   0.06267   0.95462   0.00000  Uiso   1.00
H1117  H     0.58360   0.04502   0.51199   0.00000  Uiso   1.00
H1118  H     0.35575   0.06177   0.50495   0.00000  Uiso   1.00
H1119  H     0.65357   0.11694   0.99369   0.00000  Uiso   1.00
H1120  H     0.35385   0.08091   0.94732   0.00000  Uiso   1.00
H1121  H     0.46946   0.30343   0.50045   0.00000  Uiso   1.00
H1122  H     0.39934   0.32189   0.99563   0.00000  Uiso   1.00
H1123  H     0.43801   0.26301   0.57330   0.00000  Uiso   1.00
H1124  H     0.36949   0.28661   0.57325   0.00000  Uiso   1.00
H1125  H     0.57450   0.27631   0.54208   0.00000  Uiso   1.00
H1126  H     0.34915   0.23223   0.50758   0.00000  Uiso   1.00
H1127  H     0.37308   0.19361   0.54968   0.00000  Uiso   1.00
H1128  H     0.42003   0.21257   0.50087   0.00000  Uiso   1.00
H1129  H     0.37574   0.17882   0.64678   0.00000  Uiso   1.00
H1130  H     0.64376   0.19554   0.67173   0.00000  Uiso   1.00
H1131  H     0.60524   0.10475   0.64283   0.00000  Uiso   1.00
H1132  H     0.62632   0.15344   0.60165   0.00000  Uiso   1.00
H1133  H     0.38171   0.11424   0.58283   0.00000  Uiso   1.00
H1134  H     0.65731   0.06754   0.57882   0.00000  Uiso   1.00
H1135  H     0.36198   0.06675   0.62724   0.00000  Uiso   1.00
H1136  H     0.45633   0.04064   0.95278   0.00000  Uiso   1.00
H1137  H     0.33684   0.26490   0.83934   0.00000  Uiso   1.00
H1138  H     0.39482   0.23486   0.81871   0.00000  Uiso   1.00
H1139  H     0.61870   0.18107   0.86742   0.00000  Uiso   1.00
H1140  H     0.34840   0.14950   0.85198   0.00000  Uiso   1.00
H1141  H     0.39800   0.20516   0.90622   0.00000  Uiso   1.00
H1142  H     0.33422   0.17490   0.93385   0.00000  Uiso   1.00
H1143  H     0.33700   0.24098   0.91863   0.00000  Uiso   1.00
H1144  H     0.47297   0.01504   0.66077   0.00000  Uiso   1.00
H1145  H     0.52121   0.06934   0.66370   0.00000  Uiso   1.00
H1146  H     0.51654   0.32057   0.58883   0.00000  Uiso   1.00
H1147  H     0.56388   0.04415   0.58445   0.00000  Uiso   1.00
H1148  H     0.60829   0.01989   0.65162   0.00000  Uiso   1.00
N1149  N     0.65011   0.15265   0.73783   0.00000  Uiso   1.00
N1150  N     0.34989   0.18068   0.76217   0.00000  Uiso   1.00
O1151  O     0.46308   0.24619   0.75298   0.00000  Uiso   1.00
O1152  O     0.49019   0.26049   0.90424   0.00000  Uiso   1.00
O1153  O     0.56528   0.29680   0.95678   0.00000  Uiso   1.00
O1154  O     0.44242   0.02717   0.54495   0.00000  Uiso   1.00
O1155  O     0.34389   0.13204   0.70060   0.00000  Uiso   1.00
O1156  O     0.65485   0.21514   0.78787   0.00000  Uiso   1.00
O1157  O     0.53692   0.08714   0.74702   0.00000  Uiso   1.00
O1158  O     0.55946   0.23721   0.74519   0.00000  Uiso   1.00
O1159  O     0.44054   0.09613   0.75482   0.00000  Uiso   1.00
O1160  O     0.45181   0.17117   0.81998   0.00000  Uiso   1.00
O1161  O     0.54819   0.16216   0.68003   0.00000  Uiso   1.00
O1162  O     0.54819   0.16219   0.81218   0.00000  Uiso   1.00
O1163  O     0.45181   0.17115   0.68783   0.00000  Uiso   1.00
O1164  O     0.46152   0.07130   0.61742   0.00000  Uiso   1.00
Zn1165 Zn    0.43565   0.17266   0.75521   0.00000  Uiso   1.00
Zn1166 Zn    0.56435   0.16067   0.74479   0.00000  Uiso   1.00
C1167  C     0.84834   0.26444   0.74770   0.00000  Uiso   1.00
C1168  C     0.84695   0.21400   0.91002   0.00000  Uiso   1.00
C1169  C     0.83600   0.15903   0.61540   0.00000  Uiso   1.00
C1170  C     0.83324   0.16897   0.88466   0.00000  Uiso   1.00
C1171  C     0.86273   0.20025   0.59179   0.00000  Uiso   1.00
C1172  C     0.82240   0.12154   0.90530   0.00000  Uiso   1.00
C1173  C     0.86962   0.19955   0.54543   0.00000  Uiso   1.00
C1174  C     0.82570   0.11741   0.95119   0.00000  Uiso   1.00
C1175  C     0.84916   0.15621   0.52175   0.00000  Uiso   1.00
C1176  C     0.84801   0.15962   0.97512   0.00000  Uiso   1.00
C1177  C     0.82518   0.11162   0.54526   0.00000  Uiso   1.00
C1178  C     0.81835   0.06892   0.75196   0.00000  Uiso   1.00
C1179  C     0.86311   0.20727   0.95333   0.00000  Uiso   1.00
C1180  C     0.89223   0.24380   0.52299   0.00000  Uiso   1.00
C1181  C     0.80573   0.07202   0.97318   0.00000  Uiso   1.00
C1182  C     0.83229   0.04447   0.64009   0.00000  Uiso   1.00
C1183  C     0.87380   0.01652   0.60801   0.00000  Uiso   1.00
C1184  C     0.91615   0.32440   0.63335   0.00000  Uiso   1.00
C1185  C     0.83746   0.28363   0.86201   0.00000  Uiso   1.00
C1186  C     0.90030   0.30079   0.85312   0.00000  Uiso   1.00
C1187  C     0.91153   0.02559   0.85554   0.00000  Uiso   1.00
C1188  C     0.95113   0.32285   0.96449   0.00000  Uiso   1.00
C1189  C     0.88861   0.24894   0.97694   0.00000  Uiso   1.00
C1190  C     0.94179   0.04488   0.97884   0.00000  Uiso   1.00
C1191  C     0.99652   0.07802   0.98117   0.00000  Uiso   1.00
C1192  C     0.76393   0.31562   0.51941   0.00000  Uiso   1.00
C1193  C     0.73914   0.27295   0.55134   0.00000  Uiso   1.00
C1194  C     0.71925   0.22497   0.52564   0.00000  Uiso   1.00
C1195  C     0.66847   0.16172   0.66283   0.00000  Uiso   1.00
C1196  C     0.97447   0.12847   0.62687   0.00000  Uiso   1.00
C1197  C     0.68026   0.09210   0.60254   0.00000  Uiso   1.00
C1198  C     0.68263   0.22723   0.82640   0.00000  Uiso   1.00
C1199  C     0.99851   0.18681   0.86272   0.00000  Uiso   1.00
C1200  C     0.80321   0.06863   0.52064   0.00000  Uiso   1.00
C1201  C     0.68503   0.20314   0.90808   0.00000  Uiso   1.00
C1202  C     0.85626   0.31875   0.74760   0.00000  Uiso   1.00
C1203  C     0.81054   0.01468   0.75196   0.00000  Uiso   1.00
C1204  C     0.83345   0.16835   0.83640   0.00000  Uiso   1.00
C1205  C     0.83319   0.16368   0.66375   0.00000  Uiso   1.00
C1206  C     0.82162   0.11250   0.59318   0.00000  Uiso   1.00
Cl1207 Cl    0.92929   0.00793   0.74212   0.00000  Uiso   1.00
Cl1208 Cl    0.73771   0.32579   0.75543   0.00000  Uiso   1.00
H1209  H     0.87685   0.23370   0.61004   0.00000  Uiso   1.00
H1210  H     0.94543   0.30401   0.60936   0.00000  Uiso   1.00
H1211  H     0.89407   0.29689   0.65803   0.00000  Uiso   1.00
H1212  H     0.81208   0.31741   0.86165   0.00000  Uiso   1.00
H1213  H     0.82268   0.25976   0.83454   0.00000  Uiso   1.00
H1214  H     0.92452   0.28319   0.87738   0.00000  Uiso   1.00
H1215  H     0.91641   0.28678   0.81949   0.00000  Uiso   1.00
H1216  H     0.95760   0.03616   0.85114   0.00000  Uiso   1.00
H1217  H     0.89374   0.04004   0.88848   0.00000  Uiso   1.00
H1218  H     0.89120   0.04417   0.82906   0.00000  Uiso   1.00
H1219  H     0.97888   0.32359   0.93233   0.00000  Uiso   1.00
H1220  H     0.80876   0.08824   0.88572   0.00000  Uiso   1.00
H1221  H     0.97393   0.30495   0.98976   0.00000  Uiso   1.00
H1222  H     0.91770   0.06267   0.95462   0.00000  Uiso   1.00
H1223  H     0.91693   0.04502   0.51199   0.00000  Uiso   1.00
H1224  H     0.68909   0.06177   0.50495   0.00000  Uiso   1.00
H1225  H     0.98690   0.11694   0.99369   0.00000  Uiso   1.00
H1226  H     0.68719   0.08091   0.94732   0.00000  Uiso   1.00
H1227  H     0.80279   0.30343   0.50045   0.00000  Uiso   1.00
H1228  H     0.73267   0.32189   0.99563   0.00000  Uiso   1.00
H1229  H     0.77134   0.26301   0.57330   0.00000  Uiso   1.00
H1230  H     0.70282   0.28661   0.57325   0.00000  Uiso   1.00
H1231  H     0.90784   0.27631   0.54208   0.00000  Uiso   1.00
H1232  H     0.68248   0.23223   0.50758   0.00000  Uiso   1.00
H1233  H     0.70642   0.19361   0.54968   0.00000  Uiso   1.00
H1234  H     0.75336   0.21257   0.50087   0.00000  Uiso   1.00
H1235  H     0.70908   0.17882   0.64678   0.00000  Uiso   1.00
H1236  H     0.97709   0.19554   0.67173   0.00000  Uiso   1.00
H1237  H     0.93857   0.10475   0.64283   0.00000  Uiso   1.00
H1238  H     0.95965   0.15344   0.60165   0.00000  Uiso   1.00
H1239  H     0.71504   0.11424   0.58283   0.00000  Uiso   1.00
H1240  H     0.99064   0.06754   0.57882   0.00000  Uiso   1.00
H1241  H     0.69531   0.06675   0.62724   0.00000  Uiso   1.00
H1242  H     0.78967   0.04064   0.95278   0.00000  Uiso   1.00
H1243  H     0.67018   0.26490   0.83934   0.00000  Uiso   1.00
H1244  H     0.72815   0.23486   0.81871   0.00000  Uiso   1.00
H1245  H     0.95203   0.18107   0.86742   0.00000  Uiso   1.00
H1246  H     0.68174   0.14950   0.85198   0.00000  Uiso   1.00
H1247  H     0.73134   0.20516   0.90622   0.00000  Uiso   1.00
H1248  H     0.66756   0.17490   0.93385   0.00000  Uiso   1.00
H1249  H     0.67033   0.24098   0.91863   0.00000  Uiso   1.00
H1250  H     0.80630   0.01504   0.66077   0.00000  Uiso   1.00
H1251  H     0.85454   0.06934   0.66370   0.00000  Uiso   1.00
H1252  H     0.84987   0.32057   0.58883   0.00000  Uiso   1.00
H1253  H     0.89721   0.04415   0.58445   0.00000  Uiso   1.00
H1254  H     0.94162   0.01989   0.65162   0.00000  Uiso   1.00
N1255  N     0.98344   0.15265   0.73783   0.00000  Uiso   1.00
N1256  N     0.68322   0.18068   0.76217   0.00000  Uiso   1.00
O1257  O     0.79642   0.24619   0.75298   0.00000  Uiso   1.00
O1258  O     0.82352   0.26049   0.90424   0.00000  Uiso   1.00
O1259  O     0.89861   0.29680   0.95678   0.00000  Uiso   1.00
O1260  O     0.77575   0.02717   0.54495   0.00000  Uiso   1.00
O1261  O     0.67722   0.13204   0.70060   0.00000  Uiso   1.00
O1262  O     0.98818   0.21514   0.78787   0.00000  Uiso   1.00
O1263  O     0.87025   0.08714   0.74702   0.00000  Uiso   1.00
O1264  O     0.89280   0.23721   0.74519   0.00000  Uiso   1.00
O1265  O     0.77387   0.09613   0.75482   0.00000  Uiso   1.00
O1266  O     0.78514   0.17117   0.81998   0.00000  Uiso   1.00
O1267  O     0.88153   0.16216   0.68003   0.00000  Uiso   1.00
O1268  O     0.88152   0.16219   0.81218   0.00000  Uiso   1.00
O1269  O     0.78515   0.17115   0.68783   0.00000  Uiso   1.00
O1270  O     0.79485   0.07130   0.61742   0.00000  Uiso   1.00
Zn1271 Zn    0.76898   0.17266   0.75521   0.00000  Uiso   1.00
Zn1272 Zn    0.89769   0.16067   0.74479   0.00000  Uiso   1.00
C1273  C     0.18167   0.59777   0.74770   0.00000  Uiso   1.00
C1274  C     0.18029   0.54733   0.91002   0.00000  Uiso   1.00
C1275  C     0.16933   0.49236   0.61540   0.00000  Uiso   1.00
C1276  C     0.16658   0.50231   0.88466   0.00000  Uiso   1.00
C1277  C     0.19606   0.53359   0.59179   0.00000  Uiso   1.00
C1278  C     0.15574   0.45487   0.90530   0.00000  Uiso   1.00
C1279  C     0.20296   0.53289   0.54543   0.00000  Uiso   1.00
C1280  C     0.15904   0.45075   0.95119   0.00000  Uiso   1.00
C1281  C     0.18249   0.48955   0.52175   0.00000  Uiso   1.00
C1282  C     0.18135   0.49295   0.97512   0.00000  Uiso   1.00
C1283  C     0.15852   0.44495   0.54526   0.00000  Uiso   1.00
C1284  C     0.15168   0.40225   0.75196   0.00000  Uiso   1.00
C1285  C     0.19644   0.54060   0.95333   0.00000  Uiso   1.00
C1286  C     0.22556   0.57713   0.52299   0.00000  Uiso   1.00
C1287  C     0.13906   0.40536   0.97318   0.00000  Uiso   1.00
C1288  C     0.16562   0.37781   0.64009   0.00000  Uiso   1.00
C1289  C     0.20714   0.34986   0.60801   0.00000  Uiso   1.00
C1290  C     0.24948   0.65774   0.63335   0.00000  Uiso   1.00
C1291  C     0.17079   0.61697   0.86201   0.00000  Uiso   1.00
C1292  C     0.23364   0.63412   0.85312   0.00000  Uiso   1.00
C1293  C     0.24487   0.35892   0.85554   0.00000  Uiso   1.00
C1294  C     0.28446   0.65618   0.96449   0.00000  Uiso   1.00
C1295  C     0.22195   0.58227   0.97694   0.00000  Uiso   1.00
C1296  C     0.27513   0.37821   0.97884   0.00000  Uiso   1.00
C1297  C     0.32986   0.41135   0.98117   0.00000  Uiso   1.00
C1298  C     0.09726   0.64896   0.51941   0.00000  Uiso   1.00
C1299  C     0.07247   0.60628   0.55134   0.00000  Uiso   1.00
C1300  C     0.05258   0.55831   0.52564   0.00000  Uiso   1.00
C1301  C     0.00180   0.49506   0.66283   0.00000  Uiso   1.00
C1302  C     0.30780   0.46181   0.62687   0.00000  Uiso   1.00
C1303  C     0.01359   0.42544   0.60254   0.00000  Uiso   1.00
C1304  C     0.01596   0.56056   0.82640   0.00000  Uiso   1.00
C1305  C     0.33184   0.52014   0.86272   0.00000  Uiso   1.00
C1306  C     0.13654   0.40197   0.52064   0.00000  Uiso   1.00
C1307  C     0.01836   0.53648   0.90808   0.00000  Uiso   1.00
C1308  C     0.18959   0.65209   0.74760   0.00000  Uiso   1.00
C1309  C     0.14387   0.34802   0.75196   0.00000  Uiso   1.00
C1310  C     0.16679   0.50168   0.83640   0.00000  Uiso   1.00
C1311  C     0.16652   0.49701   0.66375   0.00000  Uiso   1.00
C1312  C     0.15495   0.44583   0.59318   0.00000  Uiso   1.00
Cl1313 Cl    0.26263   0.34127   0.74212   0.00000  Uiso   1.00
Cl1314 Cl    0.07104   0.65912   0.75543   0.00000  Uiso   1.00
H1315  H     0.21019   0.56704   0.61004   0.00000  Uiso   1.00
H1316  H     0.27876   0.63734   0.60936   0.00000  Uiso   1.00
H1317  H     0.22740   0.63022   0.65803   0.00000  Uiso   1.00
H1318  H     0.14541   0.65075   0.86165   0.00000  Uiso   1.00
H1319  H     0.15601   0.59309   0.83454   0.00000  Uiso   1.00
H1320  H     0.25786   0.61653   0.87738   0.00000  Uiso   1.00
H1321  H     0.24974   0.62012   0.81949   0.00000  Uiso   1.00
H1322  H     0.29093   0.36950   0.85114   0.00000  Uiso   1.00
H1323  H     0.22707   0.37338   0.88848   0.00000  Uiso   1.00
H1324  H     0.22453   0.37750   0.82906   0.00000  Uiso   1.00
H1325  H     0.31221   0.65692   0.93233   0.00000  Uiso   1.00
H1326  H     0.14209   0.42157   0.88572   0.00000  Uiso   1.00
H1327  H     0.30726   0.63829   0.98976   0.00000  Uiso   1.00
H1328  H     0.25104   0.39600   0.95462   0.00000  Uiso   1.00
H1329  H     0.25027   0.37836   0.51199   0.00000  Uiso   1.00
H1330  H     0.02242   0.39510   0.50495   0.00000  Uiso   1.00
H1331  H     0.32023   0.45028   0.99369   0.00000  Uiso   1.00
H1332  H     0.02052   0.41424   0.94732   0.00000  Uiso   1.00
H1333  H     0.13612   0.63677   0.50045   0.00000  Uiso   1.00
H1334  H     0.06600   0.65522   0.99563   0.00000  Uiso   1.00
H1335  H     0.10467   0.59634   0.57330   0.00000  Uiso   1.00
H1336  H     0.03615   0.61994   0.57325   0.00000  Uiso   1.00
H1337  H     0.24117   0.60965   0.54208   0.00000  Uiso   1.00
H1338  H     0.01581   0.56557   0.50758   0.00000  Uiso   1.00
H1339  H     0.03975   0.52694   0.54968   0.00000  Uiso   1.00
H1340  H     0.08669   0.54591   0.50087   0.00000  Uiso   1.00
H1341  H     0.04241   0.51216   0.64678   0.00000  Uiso   1.00
H1342  H     0.31042   0.52887   0.67173   0.00000  Uiso   1.00
H1343  H     0.27191   0.43808   0.64283   0.00000  Uiso   1.00
H1344  H     0.29298   0.48677   0.60165   0.00000  Uiso   1.00
H1345  H     0.04837   0.44757   0.58283   0.00000  Uiso   1.00
H1346  H     0.32397   0.40087   0.57882   0.00000  Uiso   1.00
H1347  H     0.02865   0.40008   0.62724   0.00000  Uiso   1.00
H1348  H     0.12300   0.37397   0.95278   0.00000  Uiso   1.00
H1349  H     0.00351   0.59823   0.83934   0.00000  Uiso   1.00
H1350  H     0.06149   0.56819   0.81871   0.00000  Uiso   1.00
H1351  H     0.28537   0.51441   0.86742   0.00000  Uiso   1.00
H1352  H     0.01507   0.48283   0.85198   0.00000  Uiso   1.00
H1353  H     0.06467   0.53849   0.90622   0.00000  Uiso   1.00
H1354  H     0.00089   0.50823   0.93385   0.00000  Uiso   1.00
H1355  H     0.00366   0.57431   0.91863   0.00000  Uiso   1.00
H1356  H     0.13963   0.34837   0.66077   0.00000  Uiso   1.00
H1357  H     0.18787   0.40268   0.66370   0.00000  Uiso   1.00
H1358  H     0.18320   0.65390   0.58883   0.00000  Uiso   1.00
H1359  H     0.23055   0.37748   0.58445   0.00000  Uiso   1.00
H1360  H     0.27495   0.35322   0.65162   0.00000  Uiso   1.00
N1361  N     0.31678   0.48598   0.73783   0.00000  Uiso   1.00
N1362  N     0.01656   0.51402   0.76217   0.00000  Uiso   1.00
O1363  O     0.12975   0.57952   0.75298   0.00000  Uiso   1.00
O1364  O     0.15686   0.59382   0.90424   0.00000  Uiso   1.00
O1365  O     0.23194   0.63014   0.95678   0.00000  Uiso   1.00
O1366  O     0.10908   0.36050   0.54495   0.00000  Uiso   1.00
O1367  O     0.01056   0.46537   0.70060   0.00000  Uiso   1.00
O1368  O     0.32151   0.54847   0.78787   0.00000  Uiso   1.00
O1369  O     0.20358   0.42048   0.74702   0.00000  Uiso   1.00
O1370  O     0.22613   0.57054   0.74519   0.00000  Uiso   1.00
O1371  O     0.10720   0.42946   0.75482   0.00000  Uiso   1.00
O1372  O     0.11847   0.50450   0.81998   0.00000  Uiso   1.00
O1373  O     0.21486   0.49550   0.68003   0.00000  Uiso   1.00
O1374  O     0.21485   0.49552   0.81218   0.00000  Uiso   1.00
O1375  O     0.11848   0.50448   0.68783   0.00000  Uiso   1.00
O1376  O     0.12818   0.40463   0.61742   0.00000  Uiso   1.00
Zn1377 Zn    0.10231   0.50600   0.75521   0.00000  Uiso   1.00
Zn1378 Zn    0.23102   0.49400   0.74479   0.00000  Uiso   1.00
C1379  C     0.51501   0.59777   0.74770   0.00000  Uiso   1.00
C1380  C     0.51362   0.54733   0.91002   0.00000  Uiso   1.00
C1381  C     0.50267   0.49236   0.61540   0.00000  Uiso   1.00
C1382  C     0.49991   0.50231   0.88466   0.00000  Uiso   1.00
C1383  C     0.52939   0.53359   0.59179   0.00000  Uiso   1.00
C1384  C     0.48907   0.45487   0.90530   0.00000  Uiso   1.00
C1385  C     0.53629   0.53289   0.54543   0.00000  Uiso   1.00
C1386  C     0.49237   0.45075   0.95119   0.00000  Uiso   1.00
C1387  C     0.51582   0.48955   0.52175   0.00000  Uiso   1.00
C1388  C     0.51468   0.49295   0.97512   0.00000  Uiso   1.00
C1389  C     0.49185   0.44495   0.54526   0.00000  Uiso   1.00
C1390  C     0.48501   0.40225   0.75196   0.00000  Uiso   1.00
C1391  C     0.52977   0.54060   0.95333   0.00000  Uiso   1.00
C1392  C     0.55889   0.57713   0.52299   0.00000  Uiso   1.00
C1393  C     0.47239   0.40536   0.97318   0.00000  Uiso   1.00
C1394  C     0.49896   0.37781   0.64009   0.00000  Uiso   1.00
C1395  C     0.54047   0.34986   0.60801   0.00000  Uiso   1.00
C1396  C     0.58281   0.65774   0.63335   0.00000  Uiso   1.00
C1397  C     0.50413   0.61697   0.86201   0.00000  Uiso   1.00
C1398  C     0.56697   0.63412   0.85312   0.00000  Uiso   1.00
C1399  C     0.57820   0.35892   0.85554   0.00000  Uiso   1.00
C1400  C     0.61780   0.65618   0.96449   0.00000  Uiso   1.00
C1401  C     0.55528   0.58227   0.97694   0.00000  Uiso   1.00
C1402  C     0.60846   0.37821   0.97884   0.00000  Uiso   1.00
C1403  C     0.66319   0.41135   0.98117   0.00000  Uiso   1.00
C1404  C     0.43059   0.64896   0.51941   0.00000  Uiso   1.00
C1405  C     0.40580   0.60628   0.55134   0.00000  Uiso   1.00
C1406  C     0.38592   0.55831   0.52564   0.00000  Uiso   1.00
C1407  C     0.33514   0.49506   0.66283   0.00000  Uiso   1.00
C1408  C     0.64113   0.46181   0.62687   0.00000  Uiso   1.00
C1409  C     0.34692   0.42544   0.60254   0.00000  Uiso   1.00
C1410  C     0.34929   0.56056   0.82640   0.00000  Uiso   1.00
C1411  C     0.66517   0.52014   0.86272   0.00000  Uiso   1.00
C1412  C     0.46987   0.40197   0.52064   0.00000  Uiso   1.00
C1413  C     0.35170   0.53648   0.90808   0.00000  Uiso   1.00
C1414  C     0.52293   0.65209   0.74760   0.00000  Uiso   1.00
C1415  C     0.47721   0.34802   0.75196   0.00000  Uiso   1.00
C1416  C     0.50012   0.50168   0.83640   0.00000  Uiso   1.00
C1417  C     0.49986   0.49701   0.66375   0.00000  Uiso   1.00
C1418  C     0.48828   0.44583   0.59318   0.00000  Uiso   1.00
Cl1419 Cl    0.59596   0.34127   0.74212   0.00000  Uiso   1.00
Cl1420 Cl    0.40438   0.65912   0.75543   0.00000  Uiso   1.00
H1421  H     0.54352   0.56704   0.61004   0.00000  Uiso   1.00
H1422  H     0.61210   0.63734   0.60936   0.00000  Uiso   1.00
H1423  H     0.56073   0.63022   0.65803   0.00000  Uiso   1.00
H1424  H     0.47874   0.65075   0.86165   0.00000  Uiso   1.00
H1425  H     0.48935   0.59309   0.83454   0.00000  Uiso   1.00
H1426  H     0.59119   0.61653   0.87738   0.00000  Uiso   1.00
H1427  H     0.58307   0.62012   0.81949   0.00000  Uiso   1.00
H1428  H     0.62426   0.36950   0.85114   0.00000  Uiso   1.00
H1429  H     0.56041   0.37338   0.88848   0.00000  Uiso   1.00
H1430  H     0.55787   0.37750   0.82906   0.00000  Uiso   1.00
H1431  H     0.64555   0.65692   0.93233   0.00000  Uiso   1.00
H1432  H     0.47543   0.42157   0.88572   0.00000  Uiso   1.00
H1433  H     0.64060   0.63829   0.98976   0.00000  Uiso   1.00
H1434  H     0.58437   0.39600   0.95462   0.00000  Uiso   1.00
H1435  H     0.58360   0.37836   0.51199   0.00000  Uiso   1.00
H1436  H     0.35575   0.39510   0.50495   0.00000  Uiso   1.00
H1437  H     0.65357   0.45028   0.99369   0.00000  Uiso   1.00
H1438  H     0.35385   0.41424   0.94732   0.00000  Uiso   1.00
H1439  H     0.46946   0.63677   0.50045   0.00000  Uiso   1.00
H1440  H     0.39934   0.65522   0.99563   0.00000  Uiso   1.00
H1441  H     0.43801   0.59634   0.57330   0.00000  Uiso   1.00
H1442  H     0.36949   0.61994   0.57325   0.00000  Uiso   1.00
H1443  H     0.57450   0.60965   0.54208   0.00000  Uiso   1.00
H1444  H     0.34915   0.56557   0.50758   0.00000  Uiso   1.00
H1445  H     0.37308   0.52694   0.54968   0.00000  Uiso   1.00
H1446  H     0.42003   0.54591   0.50087   0.00000  Uiso   1.00
H1447  H     0.37574   0.51216   0.64678   0.00000  Uiso   1.00
H1448  H     0.64376   0.52887   0.67173   0.00000  Uiso   1.00
H1449  H     0.60524   0.43808   0.64283   0.00000  Uiso   1.00
H1450  H     0.62632   0.48677   0.60165   0.00000  Uiso   1.00
H1451  H     0.38171   0.44757   0.58283   0.00000  Uiso   1.00
H1452  H     0.65731   0.40087   0.57882   0.00000  Uiso   1.00
H1453  H     0.36198   0.40008   0.62724   0.00000  Uiso   1.00
H1454  H     0.45633   0.37397   0.95278   0.00000  Uiso   1.00
H1455  H     0.33684   0.59823   0.83934   0.00000  Uiso   1.00
H1456  H     0.39482   0.56819   0.81871   0.00000  Uiso   1.00
H1457  H     0.61870   0.51441   0.86742   0.00000  Uiso   1.00
H1458  H     0.34840   0.48283   0.85198   0.00000  Uiso   1.00
H1459  H     0.39800   0.53849   0.90622   0.00000  Uiso   1.00
H1460  H     0.33422   0.50823   0.93385   0.00000  Uiso   1.00
H1461  H     0.33700   0.57431   0.91863   0.00000  Uiso   1.00
H1462  H     0.47297   0.34837   0.66077   0.00000  Uiso   1.00
H1463  H     0.52121   0.40268   0.66370   0.00000  Uiso   1.00
H1464  H     0.51654   0.65390   0.58883   0.00000  Uiso   1.00
H1465  H     0.56388   0.37748   0.58445   0.00000  Uiso   1.00
H1466  H     0.60829   0.35322   0.65162   0.00000  Uiso   1.00
N1467  N     0.65011   0.48598   0.73783   0.00000  Uiso   1.00
N1468  N     0.34989   0.51402   0.76217   0.00000  Uiso   1.00
O1469  O     0.46308   0.57952   0.75298   0.00000  Uiso   1.00
O1470  O     0.49019   0.59382   0.90424   0.00000  Uiso   1.00
O1471  O     0.56528   0.63014   0.95678   0.00000  Uiso   1.00
O1472  O     0.44242   0.36050   0.54495   0.00000  Uiso   1.00
O1473  O     0.34389   0.46537   0.70060   0.00000  Uiso   1.00
O1474  O     0.65485   0.54847   0.78787   0.00000  Uiso   1.00
O1475  O     0.53692   0.42048   0.74702   0.00000  Uiso   1.00
O1476  O     0.55946   0.57054   0.74519   0.00000  Uiso   1.00
O1477  O     0.44054   0.42946   0.75482   0.00000  Uiso   1.00
O1478  O     0.45181   0.50450   0.81998   0.00000  Uiso   1.00
O1479  O     0.54819   0.49550   0.68003   0.00000  Uiso   1.00
O1480  O     0.54819   0.49552   0.81218   0.00000  Uiso   1.00
O1481  O     0.45181   0.50448   0.68783   0.00000  Uiso   1.00
O1482  O     0.46152   0.40463   0.61742   0.00000  Uiso   1.00
Zn1483 Zn    0.43565   0.50600   0.75521   0.00000  Uiso   1.00
Zn1484 Zn    0.56435   0.49400   0.74479   0.00000  Uiso   1.00
C1485  C     0.84834   0.59777   0.74770   0.00000  Uiso   1.00
C1486  C     0.84695   0.54733   0.91002   0.00000  Uiso   1.00
C1487  C     0.83600   0.49236   0.61540   0.00000  Uiso   1.00
C1488  C     0.83324   0.50231   0.88466   0.00000  Uiso   1.00
C1489  C     0.86273   0.53359   0.59179   0.00000  Uiso   1.00
C1490  C     0.82240   0.45487   0.90530   0.00000  Uiso   1.00
C1491  C     0.86962   0.53289   0.54543   0.00000  Uiso   1.00
C1492  C     0.82570   0.45075   0.95119   0.00000  Uiso   1.00
C1493  C     0.84916   0.48955   0.52175   0.00000  Uiso   1.00
C1494  C     0.84801   0.49295   0.97512   0.00000  Uiso   1.00
C1495  C     0.82518   0.44495   0.54526   0.00000  Uiso   1.00
C1496  C     0.81835   0.40225   0.75196   0.00000  Uiso   1.00
C1497  C     0.86311   0.54060   0.95333   0.00000  Uiso   1.00
C1498  C     0.89223   0.57713   0.52299   0.00000  Uiso   1.00
C1499  C     0.80573   0.40536   0.97318   0.00000  Uiso   1.00
C1500  C     0.83229   0.37781   0.64009   0.00000  Uiso   1.00
C1501  C     0.87380   0.34986   0.60801   0.00000  Uiso   1.00
C1502  C     0.91615   0.65774   0.63335   0.00000  Uiso   1.00
C1503  C     0.83746   0.61697   0.86201   0.00000  Uiso   1.00
C1504  C     0.90030   0.63412   0.85312   0.00000  Uiso   1.00
C1505  C     0.91153   0.35892   0.85554   0.00000  Uiso   1.00
C1506  C     0.95113   0.65618   0.96449   0.00000  Uiso   1.00
C1507  C     0.88861   0.58227   0.97694   0.00000  Uiso   1.00
C1508  C     0.94179   0.37821   0.97884   0.00000  Uiso   1.00
C1509  C     0.99652   0.41135   0.98117   0.00000  Uiso   1.00
C1510  C     0.76393   0.64896   0.51941   0.00000  Uiso   1.00
C1511  C     0.73914   0.60628   0.55134   0.00000  Uiso   1.00
C1512  C     0.71925   0.55831   0.52564   0.00000  Uiso   1.00
C1513  C     0.66847   0.49506   0.66283   0.00000  Uiso   1.00
C1514  C     0.97447   0.46181   0.62687   0.00000  Uiso   1.00
C1515  C     0.68026   0.42544   0.60254   0.00000  Uiso   1.00
C1516  C     0.68263   0.56056   0.82640   0.00000  Uiso   1.00
C1517  C     0.99851   0.52014   0.86272   0.00000  Uiso   1.00
C1518  C     0.80321   0.40197   0.52064   0.00000  Uiso   1.00
C1519  C     0.68503   0.53648   0.90808   0.00000  Uiso   1.00
C1520  C     0.85626   0.65209   0.74760   0.00000  Uiso   1.00
C1521  C     0.81054   0.34802   0.75196   0.00000  Uiso   1.00
C1522  C     0.83345   0.50168   0.83640   0.00000  Uiso   1.00
C1523  C     0.83319   0.49701   0.66375   0.00000  Uiso   1.00
C1524  C     0.82162   0.44583   0.59318   0.00000  Uiso   1.00
Cl1525 Cl    0.92929   0.34127   0.74212   0.00000  Uiso   1.00
Cl1526 Cl    0.73771   0.65912   0.75543   0.00000  Uiso   1.00
H1527  H     0.87685   0.56704   0.61004   0.00000  Uiso   1.00
H1528  H     0.94543   0.63734   0.60936   0.00000  Uiso   1.00
H1529  H     0.89407   0.63022   0.65803   0.00000  Uiso   1.00
H1530  H     0.81208   0.65075   0.86165   0.00000  Uiso   1.00
H1531  H     0.82268   0.59309   0.83454   0.00000  Uiso   1.00
H1532  H     0.92452   0.61653   0.87738   0.00000  Uiso   1.00
H1533  H     0.91641   0.62012   0.81949   0.00000  Uiso   1.00
H1534  H     0.95760   0.36950   0.85114   0.00000  Uiso   1.00
H1535  H     0.89374   0.37338   0.88848   0.00000  Uiso   1.00
H1536  H     0.89120   0.37750   0.82906   0.00000  Uiso   1.00
H1537  H     0.97888   0.65692   0.93233   0.00000  Uiso   1.00
H1538  H     0.80876   0.42157   0.88572   0.00000  Uiso   1.00
H1539  H     0.97393   0.63829   0.98976   0.00000  Uiso   1.00
H1540  H     0.91770   0.39600   0.95462   0.00000  Uiso   1.00
H1541  H     0.91693   0.37836   0.51199   0.00000  Uiso   1.00
H1542  H     0.68909   0.39510   0.50495   0.00000  Uiso   1.00
H1543  H     0.98690   0.45028   0.99369   0.00000  Uiso   1.00
H1544  H     0.68719   0.41424   0.94732   0.00000  Uiso   1.00
H1545  H     0.80279   0.63677   0.50045   0.00000  Uiso   1.00
H1546  H     0.73267   0.65522   0.99563   0.00000  Uiso   1.00
H1547  H     0.77134   0.59634   0.57330   0.00000  Uiso   1.00
H1548  H     0.70282   0.61994   0.57325   0.00000  Uiso   1.00
H1549  H     0.90784   0.60965   0.54208   0.00000  Uiso   1.00
H1550  H     0.68248   0.56557   0.50758   0.00000  Uiso   1.00
H1551  H     0.70642   0.52694   0.54968   0.00000  Uiso   1.00
H1552  H     0.75336   0.54591   0.50087   0.00000  Uiso   1.00
H1553  H     0.70908   0.51216   0.64678   0.00000  Uiso   1.00
H1554  H     0.97709   0.52887   0.67173   0.00000  Uiso   1.00
H1555  H     0.93857   0.43808   0.64283   0.00000  Uiso   1.00
H1556  H     0.95965   0.48677   0.60165   0.00000  Uiso   1.00
H1557  H     0.71504   0.44757   0.58283   0.00000  Uiso   1.00
H1558  H     0.99064   0.40087   0.57882   0.00000  Uiso   1.00
H1559  H     0.69531   0.40008   0.62724   0.00000  Uiso   1.00
H1560  H     0.78967   0.37397   0.95278   0.00000  Uiso   1.00
H1561  H     0.67018   0.59823   0.83934   0.00000  Uiso   1.00
H1562  H     0.72815   0.56819   0.81871   0.00000  Uiso   1.00
H1563  H     0.95203   0.51441   0.86742   0.00000  Uiso   1.00
H1564  H     0.68174   0.48283   0.85198   0.00000  Uiso   1.00
H1565  H     0.73134   0.53849   0.90622   0.00000  Uiso   1.00
H1566  H     0.66756   0.50823   0.93385   0.00000  Uiso   1.00
H1567  H     0.67033   0.57431   0.91863   0.00000  Uiso   1.00
H1568  H     0.80630   0.34837   0.66077   0.00000  Uiso   1.00
H1569  H     0.85454   0.40268   0.66370   0.00000  Uiso   1.00
H1570  H     0.84987   0.65390   0.58883   0.00000  Uiso   1.00
H1571  H     0.89721   0.37748   0.58445   0.00000  Uiso   1.00
H1572  H     0.94162   0.35322   0.65162   0.00000  Uiso   1.00
N1573  N     0.98344   0.48598   0.73783   0.00000  Uiso   1.00
N1574  N     0.68322   0.51402   0.76217   0.00000  Uiso   1.00
O1575  O     0.79642   0.57952   0.75298   0.00000  Uiso   1.00
O1576  O     0.82352   0.59382   0.90424   0.00000  Uiso   1.00
O1577  O     0.89861   0.63014   0.95678   0.00000  Uiso   1.00
O1578  O     0.77575   0.36050   0.54495   0.00000  Uiso   1.00
O1579  O     0.67722   0.46537   0.70060   0.00000  Uiso   1.00
O1580  O     0.98818   0.54847   0.78787   0.00000  Uiso   1.00
O1581  O     0.87025   0.42048   0.74702   0.00000  Uiso   1.00
O1582  O     0.89280   0.57054   0.74519   0.00000  Uiso   1.00
O1583  O     0.77387   0.42946   0.75482   0.00000  Uiso   1.00
O1584  O     0.78514   0.50450   0.81998   0.00000  Uiso   1.00
O1585  O     0.88153   0.49550   0.68003   0.00000  Uiso   1.00
O1586  O     0.88152   0.49552   0.81218   0.00000  Uiso   1.00
O1587  O     0.78515   0.50448   0.68783   0.00000  Uiso   1.00
O1588  O     0.79485   0.40463   0.61742   0.00000  Uiso   1.00
Zn1589 Zn    0.76898   0.50600   0.75521   0.00000  Uiso   1.00
Zn1590 Zn    0.89769   0.49400   0.74479   0.00000  Uiso   1.00
C1591  C     0.18167   0.93110   0.74770   0.00000  Uiso   1.00
C1592  C     0.18029   0.88067   0.91002   0.00000  Uiso   1.00
C1593  C     0.16933   0.82569   0.61540   0.00000  Uiso   1.00
C1594  C     0.16658   0.83564   0.88466   0.00000  Uiso   1.00
C1595  C     0.19606   0.86692   0.59179   0.00000  Uiso   1.00
C1596  C     0.15574   0.78821   0.90530   0.00000  Uiso   1.00
C1597  C     0.20296   0.86622   0.54543   0.00000  Uiso   1.00
C1598  C     0.15904   0.78408   0.95119   0.00000  Uiso   1.00
C1599  C     0.18249   0.82288   0.52175   0.00000  Uiso   1.00
C1600  C     0.18135   0.82629   0.97512   0.00000  Uiso   1.00
C1601  C     0.15852   0.77828   0.54526   0.00000  Uiso   1.00
C1602  C     0.15168   0.73559   0.75196   0.00000  Uiso   1.00
C1603  C     0.19644   0.87394   0.95333   0.00000  Uiso   1.00
C1604  C     0.22556   0.91047   0.52299   0.00000  Uiso   1.00
C1605  C     0.13906   0.73869   0.97318   0.00000  Uiso   1.00
C1606  C     0.16562   0.71114   0.64009   0.00000  Uiso   1.00
C1607  C     0.20714   0.68319   0.60801   0.00000  Uiso   1.00
C1608  C     0.24948   0.99107   0.63335   0.00000  Uiso   1.00
C1609  C     0.17079   0.95030   0.86201   0.00000  Uiso   1.00
C1610  C     0.23364   0.96745   0.85312   0.00000  Uiso   1.00
C1611  C     0.24487   0.69225   0.85554   0.00000  Uiso   1.00
C1612  C     0.28446   0.98951   0.96449   0.00000  Uiso   1.00
C1613  C     0.22195   0.91561   0.97694   0.00000  Uiso   1.00
C1614  C     0.27513   0.71154   0.97884   0.00000  Uiso   1.00
C1615  C     0.32986   0.74468   0.98117   0.00000  Uiso   1.00
C1616  C     0.09726   0.98229   0.51941   0.00000  Uiso   1.00
C1617  C     0.07247   0.93961   0.55134   0.00000  Uiso   1.00
C1618  C     0.05258   0.89164   0.52564   0.00000  Uiso   1.00
C1619  C     0.00180   0.82839   0.66283   0.00000  Uiso   1.00
C1620  C     0.30780   0.79514   0.62687   0.00000  Uiso   1.00
C1621  C     0.01359   0.75877   0.60254   0.00000  Uiso   1.00
C1622  C     0.01596   0.89390   0.82640   0.00000  Uiso   1.00
C1623  C     0.33184   0.85347   0.86272   0.00000  Uiso   1.00
C1624  C     0.13654   0.73530   0.52064   0.00000  Uiso   1.00
C1625  C     0.01836   0.86981   0.90808   0.00000  Uiso   1.00
C1626  C     0.18959   0.98542   0.74760   0.00000  Uiso   1.00
C1627  C     0.14387   0.68135   0.75196   0.00000  Uiso   1.00
C1628  C     0.16679   0.83502   0.83640   0.00000  Uiso   1.00
C1629  C     0.16652   0.83035   0.66375   0.00000  Uiso   1.00
C1630  C     0.15495   0.77917   0.59318   0.00000  Uiso   1.00
Cl1631 Cl    0.26263   0.67460   0.74212   0.00000  Uiso   1.00
Cl1632 Cl    0.07104   0.99246   0.75543   0.00000  Uiso   1.00
H1633  H     0.21019   0.90037   0.61004   0.00000  Uiso   1.00
H1634  H     0.27876   0.97067   0.60936   0.00000  Uiso   1.00
H1635  H     0.22740   0.96355   0.65803   0.00000  Uiso   1.00
H1636  H     0.14541   0.98408   0.86165   0.00000  Uiso   1.00
H1637  H     0.15601   0.92642   0.83454   0.00000  Uiso   1.00
H1638  H     0.25786   0.94986   0.87738   0.00000  Uiso   1.00
H1639  H     0.24974   0.95345   0.81949   0.00000  Uiso   1.00
H1640  H     0.29093   0.70283   0.85114   0.00000  Uiso   1.00
H1641  H     0.22707   0.70671   0.88848   0.00000  Uiso   1.00
H1642  H     0.22453   0.71083   0.82906   0.00000  Uiso   1.00
H1643  H     0.31221   0.99025   0.93233   0.00000  Uiso   1.00
H1644  H     0.14209   0.75490   0.88572   0.00000  Uiso   1.00
H1645  H     0.30726   0.97162   0.98976   0.00000  Uiso   1.00
H1646  H     0.25104   0.72933   0.95462   0.00000  Uiso   1.00
H1647  H     0.25027   0.71169   0.51199   0.00000  Uiso   1.00
H1648  H     0.02242   0.72843   0.50495   0.00000  Uiso   1.00
H1649  H     0.32023   0.78361   0.99369   0.00000  Uiso   1.00
H1650  H     0.02052   0.74758   0.94732   0.00000  Uiso   1.00
H1651  H     0.13612   0.97010   0.50045   0.00000  Uiso   1.00
H1652  H     0.06600   0.98855   0.99563   0.00000  Uiso   1.00
H1653  H     0.10467   0.92968   0.57330   0.00000  Uiso   1.00
H1654  H     0.03615   0.95327   0.57325   0.00000  Uiso   1.00
H1655  H     0.24117   0.94298   0.54208   0.00000  Uiso   1.00
H1656  H     0.01581   0.89890   0.50758   0.00000  Uiso   1.00
H1657  H     0.03975   0.86027   0.54968   0.00000  Uiso   1.00
H1658  H     0.08669   0.87924   0.50087   0.00000  Uiso   1.00
H1659  H     0.04241   0.84549   0.64678   0.00000  Uiso   1.00
H1660  H     0.31042   0.86220   0.67173   0.00000  Uiso   1.00
H1661  H     0.27191   0.77141   0.64283   0.00000  Uiso   1.00
H1662  H     0.29298   0.82010   0.60165   0.00000  Uiso   1.00
H1663  H     0.04837   0.78090   0.58283   0.00000  Uiso   1.00
H1664  H     0.32397   0.73420   0.57882   0.00000  Uiso   1.00
H1665  H     0.02865   0.73341   0.62724   0.00000  Uiso   1.00
H1666  H     0.12300   0.70730   0.95278   0.00000  Uiso   1.00
H1667  H     0.00351   0.93156   0.83934   0.00000  Uiso   1.00
H1668  H     0.06149   0.90153   0.81871   0.00000  Uiso   1.00
H1669  H     0.28537   0.84774   0.86742   0.00000  Uiso   1.00
H1670  H     0.01507   0.81617   0.85198   0.00000  Uiso   1.00
H1671  H     0.06467   0.87182   0.90622   0.00000  Uiso   1.00
H1672  H     0.00089   0.84157   0.93385   0.00000  Uiso   1.00
H1673  H     0.00366   0.90764   0.91863   0.00000  Uiso   1.00
H1674  H     0.13963   0.68171   0.66077   0.00000  Uiso   1.00
H1675  H     0.18787   0.73601   0.66370   0.00000  Uiso   1.00
H1676  H     0.18320   0.98723   0.58883   0.00000  Uiso   1.00
H1677  H     0.23055   0.71081   0.58445   0.00000  Uiso   1.00
H1678  H     0.27495   0.68656   0.65162   0.00000  Uiso   1.00
N1679  N     0.31678   0.81932   0.73783   0.00000  Uiso   1.00
N1680  N     0.01656   0.84735   0.76217   0.00000  Uiso   1.00
O1681  O     0.12975   0.91286   0.75298   0.00000  Uiso   1.00
O1682  O     0.15686   0.92716   0.90424   0.00000  Uiso   1.00
O1683  O     0.23194   0.96347   0.95678   0.00000  Uiso   1.00
O1684  O     0.10908   0.69384   0.54495   0.00000  Uiso   1.00
O1685  O     0.01056   0.79871   0.70060   0.00000  Uiso   1.00
O1686  O     0.32151   0.88181   0.78787   0.00000  Uiso   1.00
O1687  O     0.20358   0.75381   0.74702   0.00000  Uiso   1.00
O1688  O     0.22613   0.90387   0.74519   0.00000  Uiso   1.00
O1689  O     0.10720   0.76279   0.75482   0.00000  Uiso   1.00
O1690  O     0.11847   0.83784   0.81998   0.00000  Uiso   1.00
O1691  O     0.21486   0.82883   0.68003   0.00000  Uiso   1.00
O1692  O     0.21485   0.82885   0.81218   0.00000  Uiso   1.00
O1693  O     0.11848   0.83781   0.68783   0.00000  Uiso   1.00
O1694  O     0.12818   0.73796   0.61742   0.00000  Uiso   1.00
Zn1695 Zn    0.10231   0.83933   0.75521   0.00000  Uiso   1.00
Zn1696 Zn    0.23102   0.82734   0.74479   0.00000  Uiso   1.00
C1697  C     0.51501   0.93110   0.74770   0.00000  Uiso   1.00
C1698  C     0.51362   0.88067   0.91002   0.00000  Uiso   1.00
C1699  C     0.50267   0.82569   0.61540   0.00000  Uiso   1.00
C1700  C     0.49991   0.83564   0.88466   0.00000  Uiso   1.00
C1701  C     0.52939   0.86692   0.59179   0.00000  Uiso   1.00
C1702  C     0.48907   0.78821   0.90530   0.00000  Uiso   1.00
C1703  C     0.53629   0.86622   0.54543   0.00000  Uiso   1.00
C1704  C     0.49237   0.78408   0.95119   0.00000  Uiso   1.00
C1705  C     0.51582   0.82288   0.52175   0.00000  Uiso   1.00
C1706  C     0.51468   0.82629   0.97512   0.00000  Uiso   1.00
C1707  C     0.49185   0.77828   0.54526   0.00000  Uiso   1.00
C1708  C     0.48501   0.73559   0.75196   0.00000  Uiso   1.00
C1709  C     0.52977   0.87394   0.95333   0.00000  Uiso   1.00
C1710  C     0.55889   0.91047   0.52299   0.00000  Uiso   1.00
C1711  C     0.47239   0.73869   0.97318   0.00000  Uiso   1.00
C1712  C     0.49896   0.71114   0.64009   0.00000  Uiso   1.00
C1713  C     0.54047   0.68319   0.60801   0.00000  Uiso   1.00
C1714  C     0.58281   0.99107   0.63335   0.00000  Uiso   1.00
C1715  C     0.50413   0.95030   0.86201   0.00000  Uiso   1.00
C1716  C     0.56697   0.96745   0.85312   0.00000  Uiso   1.00
C1717  C     0.57820   0.69225   0.85554   0.00000  Uiso   1.00
C1718  C     0.61780   0.98951   0.96449   0.00000  Uiso   1.00
C1719  C     0.55528   0.91561   0.97694   0.00000  Uiso   1.00
C1720  C     0.60846   0.71154   0.97884   0.00000  Uiso   1.00
C1721  C     0.66319   0.74468   0.98117   0.00000  Uiso   1.00
C1722  C     0.43059   0.98229   0.51941   0.00000  Uiso   1.00
C1723  C     0.40580   0.93961   0.55134   0.00000  Uiso   1.00
C1724  C     0.38592   0.89164   0.52564   0.00000  Uiso   1.00
C1725  C     0.33514   0.82839   0.66283   0.00000  Uiso   1.00
C1726  C     0.64113   0.79514   0.62687   0.00000  Uiso   1.00
C1727  C     0.34692   0.75877   0.60254   0.00000  Uiso   1.00
C1728  C     0.34929   0.89390   0.82640   0.00000  Uiso   1.00
C1729  C     0.66517   0.85347   0.86272   0.00000  Uiso   1.00
C1730  C     0.46987   0.73530   0.52064   0.00000  Uiso   1.00
C1731  C     0.35170   0.86981   0.90808   0.00000  Uiso   1.00
C1732  C     0.52293   0.98542   0.74760   0.00000  Uiso   1.00
C1733  C     0.47721   0.68135   0.75196   0.00000  Uiso   1.00
C1734  C     0.50012   0.83502   0.83640   0.00000  Uiso   1.00
C1735  C     0.49986   0.83035   0.66375   0.00000  Uiso   1.00
C1736  C     0.48828   0.77917   0.59318   0.00000  Uiso   1.00
Cl1737 Cl    0.59596   0.67460   0.74212   0.00000  Uiso   1.00
Cl1738 Cl    0.40438   0.99246   0.75543   0.00000  Uiso   1.00
H1739  H     0.54352   0.90037   0.61004   0.00000  Uiso   1.00
H1740  H     0.61210   0.97067   0.60936   0.00000  Uiso   1.00
H1741  H     0.56073   0.96355   0.65803   0.00000  Uiso   1.00
H1742  H     0.47874   0.98408   0.86165   0.00000  Uiso   1.00
H1743  H     0.48935   0.92642   0.83454   0.00000  Uiso   1.00
H1744  H     0.59119   0.94986   0.87738   0.00000  Uiso   1.00
H1745  H     0.58307   0.95345   0.81949   0.00000  Uiso   1.00
H1746  H     0.62426   0.70283   0.85114   0.00000  Uiso   1.00
H1747  H     0.56041   0.70671   0.88848   0.00000  Uiso   1.00
H1748  H     0.55787   0.71083   0.82906   0.00000  Uiso   1.00
H1749  H     0.64555   0.99025   0.93233   0.00000  Uiso   1.00
H1750  H     0.47543   0.75490   0.88572   0.00000  Uiso   1.00
H1751  H     0.64060   0.97162   0.98976   0.00000  Uiso   1.00
H1752  H     0.58437   0.72933   0.95462   0.00000  Uiso   1.00
H1753  H     0.58360   0.71169   0.51199   0.00000  Uiso   1.00
H1754  H     0.35575   0.72843   0.50495   0.00000  Uiso   1.00
H1755  H     0.65357   0.78361   0.99369   0.00000  Uiso   1.00
H1756  H     0.35385   0.74758   0.94732   0.00000  Uiso   1.00
H1757  H     0.46946   0.97010   0.50045   0.00000  Uiso   1.00
H1758  H     0.39934   0.98855   0.99563   0.00000  Uiso   1.00
H1759  H     0.43801   0.92968   0.57330   0.00000  Uiso   1.00
H1760  H     0.36949   0.95327   0.57325   0.00000  Uiso   1.00
H1761  H     0.57450   0.94298   0.54208   0.00000  Uiso   1.00
H1762  H     0.34915   0.89890   0.50758   0.00000  Uiso   1.00
H1763  H     0.37308   0.86027   0.54968   0.00000  Uiso   1.00
H1764  H     0.42003   0.87924   0.50087   0.00000  Uiso   1.00
H1765  H     0.37574   0.84549   0.64678   0.00000  Uiso   1.00
H1766  H     0.64376   0.86220   0.67173   0.00000  Uiso   1.00
H1767  H     0.60524   0.77141   0.64283   0.00000  Uiso   1.00
H1768  H     0.62632   0.82010   0.60165   0.00000  Uiso   1.00
H1769  H     0.38171   0.78090   0.58283   0.00000  Uiso   1.00
H1770  H     0.65731   0.73420   0.57882   0.00000  Uiso   1.00
H1771  H     0.36198   0.73341   0.62724   0.00000  Uiso   1.00
H1772  H     0.45633   0.70730   0.95278   0.00000  Uiso   1.00
H1773  H     0.33684   0.93156   0.83934   0.00000  Uiso   1.00
H1774  H     0.39482   0.90153   0.81871   0.00000  Uiso   1.00
H1775  H     0.61870   0.84774   0.86742   0.00000  Uiso   1.00
H1776  H     0.34840   0.81617   0.85198   0.00000  Uiso   1.00
H1777  H     0.39800   0.87182   0.90622   0.00000  Uiso   1.00
H1778  H     0.33422   0.84157   0.93385   0.00000  Uiso   1.00
H1779  H     0.33700   0.90764   0.91863   0.00000  Uiso   1.00
H1780  H     0.47297   0.68171   0.66077   0.00000  Uiso   1.00
H1781  H     0.52121   0.73601   0.66370   0.00000  Uiso   1.00
H1782  H     0.51654   0.98723   0.58883   0.00000  Uiso   1.00
H1783  H     0.56388   0.71081   0.58445   0.00000  Uiso   1.00
H1784  H     0.60829   0.68656   0.65162   0.00000  Uiso   1.00
N1785  N     0.65011   0.81932   0.73783   0.00000  Uiso   1.00
N1786  N     0.34989   0.84735   0.76217   0.00000  Uiso   1.00
O1787  O     0.46308   0.91286   0.75298   0.00000  Uiso   1.00
O1788  O     0.49019   0.92716   0.90424   0.00000  Uiso   1.00
O1789  O     0.56528   0.96347   0.95678   0.00000  Uiso   1.00
O1790  O     0.44242   0.69384   0.54495   0.00000  Uiso   1.00
O1791  O     0.34389   0.79871   0.70060   0.00000  Uiso   1.00
O1792  O     0.65485   0.88181   0.78787   0.00000  Uiso   1.00
O1793  O     0.53692   0.75381   0.74702   0.00000  Uiso   1.00
O1794  O     0.55946   0.90387   0.74519   0.00000  Uiso   1.00
O1795  O     0.44054   0.76279   0.75482   0.00000  Uiso   1.00
O1796  O     0.45181   0.83784   0.81998   0.00000  Uiso   1.00
O1797  O     0.54819   0.82883   0.68003   0.00000  Uiso   1.00
O1798  O     0.54819   0.82885   0.81218   0.00000  Uiso   1.00
O1799  O     0.45181   0.83781   0.68783   0.00000  Uiso   1.00
O1800  O     0.46152   0.73796   0.61742   0.00000  Uiso   1.00
Zn1801 Zn    0.43565   0.83933   0.75521   0.00000  Uiso   1.00
Zn1802 Zn    0.56435   0.82734   0.74479   0.00000  Uiso   1.00
C1803  C     0.84834   0.93110   0.74770   0.00000  Uiso   1.00
C1804  C     0.84695   0.88067   0.91002   0.00000  Uiso   1.00
C1805  C     0.83600   0.82569   0.61540   0.00000  Uiso   1.00
C1806  C     0.83324   0.83564   0.88466   0.00000  Uiso   1.00
C1807  C     0.86273   0.86692   0.59179   0.00000  Uiso   1.00
C1808  C     0.82240   0.78821   0.90530   0.00000  Uiso   1.00
C1809  C     0.86962   0.86622   0.54543   0.00000  Uiso   1.00
C1810  C     0.82570   0.78408   0.95119   0.00000  Uiso   1.00
C1811  C     0.84916   0.82288   0.52175   0.00000  Uiso   1.00
C1812  C     0.84801   0.82629   0.97512   0.00000  Uiso   1.00
C1813  C     0.82518   0.77828   0.54526   0.00000  Uiso   1.00
C1814  C     0.81835   0.73559   0.75196   0.00000  Uiso   1.00
C1815  C     0.86311   0.87394   0.95333   0.00000  Uiso   1.00
C1816  C     0.89223   0.91047   0.52299   0.00000  Uiso   1.00
C1817  C     0.80573   0.73869   0.97318   0.00000  Uiso   1.00
C1818  C     0.83229   0.71114   0.64009   0.00000  Uiso   1.00
C1819  C     0.87380   0.68319   0.60801   0.00000  Uiso   1.00
C1820  C     0.91615   0.99107   0.63335   0.00000  Uiso   1.00
C1821  C     0.83746   0.95030   0.86201   0.00000  Uiso   1.00
C1822  C     0.90030   0.96745   0.85312   0.00000  Uiso   1.00
C1823  C     0.91153   0.69225   0.85554   0.00000  Uiso   1.00
C1824  C     0.95113   0.98951   0.96449   0.00000  Uiso   1.00
C1825  C     0.88861   0.91561   0.97694   0.00000  Uiso   1.00
C1826  C     0.94179   0.71154   0.97884   0.00000  Uiso   1.00
C1827  C     0.99652   0.74468   0.98117   0.00000  Uiso   1.00
C1828  C     0.76393   0.98229   0.51941   0.00000  Uiso   1.00
C1829  C     0.73914   0.93961   0.55134   0.00000  Uiso   1.00
C1830  C     0.71925   0.89164   0.52564   0.00000  Uiso   1.00
C1831  C     0.66847   0.82839   0.66283   0.00000  Uiso   1.00
C1832  C     0.97447   0.79514   0.62687   0.00000  Uiso   1.00
C1833  C     0.68026   0.75877   0.60254   0.00000  Uiso   1.00
C1834  C     0.68263   0.89390   0.82640   0.00000  Uiso   1.00
C1835  C     0.99851   0.85347   0.86272   0.00000  Uiso   1.00
C1836  C     0.80321   0.73530   0.52064   0.00000  Uiso   1.00
C1837  C     0.68503   0.86981   0.90808   0.00000  Uiso   1.00
C1838  C     0.85626   0.98542   0.74760   0.00000  Uiso   1.00
C1839  C     0.81054   0.68135   0.75196   0.00000  Uiso   1.00
C1840  C     0.83345   0.83502   0.83640   0.00000  Uiso   1.00
C1841  C     0.83319   0.83035   0.66375   0.00000  Uiso   1.00
C1842  C     0.82162   0.77917   0.59318   0.00000  Uiso   1.00
Cl1843 Cl    0.92929   0.67460   0.74212   0.00000  Uiso   1.00
Cl1844 Cl    0.73771   0.99246   0.75543   0.00000  Uiso   1.00
H1845  H     0.87685   0.90037   0.61004   0.00000  Uiso   1.00
H1846  H     0.94543   0.97067   0.60936   0.00000  Uiso   1.00
H1847  H     0.89407   0.96355   0.65803   0.00000  Uiso   1.00
H1848  H     0.81208   0.98408   0.86165   0.00000  Uiso   1.00
H1849  H     0.82268   0.92642   0.83454   0.00000  Uiso   1.00
H1850  H     0.92452   0.94986   0.87738   0.00000  Uiso   1.00
H1851  H     0.91641   0.95345   0.81949   0.00000  Uiso   1.00
H1852  H     0.95760   0.70283   0.85114   0.00000  Uiso   1.00
H1853  H     0.89374   0.70671   0.88848   0.00000  Uiso   1.00
H1854  H     0.89120   0.71083   0.82906   0.00000  Uiso   1.00
H1855  H     0.97888   0.99025   0.93233   0.00000  Uiso   1.00
H1856  H     0.80876   0.75490   0.88572   0.00000  Uiso   1.00
H1857  H     0.97393   0.97162   0.98976   0.00000  Uiso   1.00
H1858  H     0.91770   0.72933   0.95462   0.00000  Uiso   1.00
H1859  H     0.91693   0.71169   0.51199   0.00000  Uiso   1.00
H1860  H     0.68909   0.72843   0.50495   0.00000  Uiso   1.00
H1861  H     0.98690   0.78361   0.99369   0.00000  Uiso   1.00
H1862  H     0.68719   0.74758   0.94732   0.00000  Uiso   1.00
H1863  H     0.80279   0.97010   0.50045   0.00000  Uiso   1.00
H1864  H     0.73267   0.98855   0.99563   0.00000  Uiso   1.00
H1865  H     0.77134   0.92968   0.57330   0.00000  Uiso   1.00
H1866  H     0.70282   0.95327   0.57325   0.00000  Uiso   1.00
H1867  H     0.90784   0.94298   0.54208   0.00000  Uiso   1.00
H1868  H     0.68248   0.89890   0.50758   0.00000  Uiso   1.00
H1869  H     0.70642   0.86027   0.54968   0.00000  Uiso   1.00
H1870  H     0.75336   0.87924   0.50087   0.00000  Uiso   1.00
H1871  H     0.70908   0.84549   0.64678   0.00000  Uiso   1.00
H1872  H     0.97709   0.86220   0.67173   0.00000  Uiso   1.00
H1873  H     0.93857   0.77141   0.64283   0.00000  Uiso   1.00
H1874  H     0.95965   0.82010   0.60165   0.00000  Uiso   1.00
H1875  H     0.71504   0.78090   0.58283   0.00000  Uiso   1.00
H1876  H     0.99064   0.73420   0.57882   0.00000  Uiso   1.00
H1877  H     0.69531   0.73341   0.62724   0.00000  Uiso   1.00
H1878  H     0.78967   0.70730   0.95278   0.00000  Uiso   1.00
H1879  H     0.67018   0.93156   0.83934   0.00000  Uiso   1.00
H1880  H     0.72815   0.90153   0.81871   0.00000  Uiso   1.00
H1881  H     0.95203   0.84774   0.86742   0.00000  Uiso   1.00
H1882  H     0.68174   0.81617   0.85198   0.00000  Uiso   1.00
H1883  H     0.73134   0.87182   0.90622   0.00000  Uiso   1.00
H1884  H     0.66756   0.84157   0.93385   0.00000  Uiso   1.00
H1885  H     0.67033   0.90764   0.91863   0.00000  Uiso   1.00
H1886  H     0.80630   0.68171   0.66077   0.00000  Uiso   1.00
H1887  H     0.85454   0.73601   0.66370   0.00000  Uiso   1.00
H1888  H     0.84987   0.98723   0.58883   0.00000  Uiso   1.00
H1889  H     0.89721   0.71081   0.58445   0.00000  Uiso   1.00
H1890  H     0.94162   0.68656   0.65162   0.00000  Uiso   1.00
N1891  N     0.98344   0.81932   0.73783   0.00000  Uiso   1.00
N1892  N     0.68322   0.84735   0.76217   0.00000  Uiso   1.00
O1893  O     0.79642   0.91286   0.75298   0.00000  Uiso   1.00
O1894  O     0.82352   0.92716   0.90424   0.00000  Uiso   1.00
O1895  O     0.89861   0.96347   0.95678   0.00000  Uiso   1.00
O1896  O     0.77575   0.69384   0.54495   0.00000  Uiso   1.00
O1897  O     0.67722   0.79871   0.70060   0.00000  Uiso   1.00
O1898  O     0.98818   0.88181   0.78787   0.00000  Uiso   1.00
O1899  O     0.87025   0.75381   0.74702   0.00000  Uiso   1.00
O1900  O     0.89280   0.90387   0.74519   0.00000  Uiso   1.00
O1901  O     0.77387   0.76279   0.75482   0.00000  Uiso   1.00
O1902  O     0.78514   0.83784   0.81998   0.00000  Uiso   1.00
O1903  O     0.88153   0.82883   0.68003   0.00000  Uiso   1.00
O1904  O     0.88152   0.82885   0.81218   0.00000  Uiso   1.00
O1905  O     0.78515   0.83781   0.68783   0.00000  Uiso   1.00
O1906  O     0.79485   0.73796   0.61742   0.00000  Uiso   1.00
Zn1907 Zn    0.76898   0.83933   0.75521   0.00000  Uiso   1.00
Zn1908 Zn    0.89769   0.82734   0.74479   0.00000  Uiso   1.00
loop_
_geom_bond_atom_site_label_1
_geom_bond_atom_site_label_2
_geom_bond_distance
_geom_bond_site_symmetry_2
_ccdc_geom_bond_type
C1     O91     1.291   .     A
C1     O98     1.320   .     A
C1     C36     1.420   .     S
C2     C4      1.421   .     A
C2     C13     1.404   .     A
C2     O92     1.400   .     S
C3     C39     1.440   .     S
C3     C40     1.409   .     A
C3     C5      1.380   .     A
C4     C6      1.393   .     A
C4     C38     1.439   .     S
C5     H43     1.071   .     S
C5     C7      1.376   .     A
C6     H54     1.086   .     S
C6     C8      1.386   .     A
C7     C14     1.395   .     A
C7     C9      1.405   .     A
C8     C15     1.398   .     A
C8     C10     1.402   .     A
C9     C11     1.426   .     A
C9     C964    1.399   1_554 S
C10    C13     1.424   .     A
C10    C963    1.399   .     S
C11    C34     1.425   .     A
C11    C40     1.423   .     A
C12    O99     1.320   .     A
C12    O97     1.290   .     A
C12    C37     1.417   .     S
C13    C23     1.417   .     A
C14    H65     1.077   .     S
C14    C977    1.395   1_554 S
C15    H76     1.081   .     S
C15    C988    1.415   .     S
C16    H84     1.109   .     S
C16    O104    1.412   .     S
C16    H85     1.097   .     S
C16    C17     1.525   .     S
C17    H87     1.100   .     S
C17    C654    1.524   1_545 S
C17    H722    1.105   1_545 S
C18    H44     1.108   .     S
C18    H45     1.107   .     S
C18    C335    1.524   .     S
C18    H406    1.102   .     S
C19    C20     1.534   .     S
C19    H46     1.111   .     S
C19    H47     1.090   .     S
C19    O92     1.408   .     S
C20    H49     1.103   .     S
C20    H48     1.101   .     S
C20    C339    1.526   .     S
C21    H50     1.110   .     S
C21    H51     1.102   .     S
C21    H52     1.108   .     S
C21    C656    1.526   1_545 S
C22    H53     1.109   .     S
C22    O93     1.419   .     S
C22    H55     1.106   .     S
C22    C342    1.528   .     S
C23    O93     1.395   .     S
C23    C968    1.395   .     S
C24    C25     1.520   .     S
C24    H56     1.101   .     S
C24    C658    1.528   1_545 S
C24    H1011   1.101   .     S
C25    H59     1.110   .     S
C25    H1118   1.101   .     S
C25    H166    1.111   .     S
C26    H61     1.103   .     S
C26    C27     1.529   .     S
C26    H1016   1.105   1_554 S
C26    O412    1.411   .     S
C27    H63     1.110   .     S
C27    H64     1.110   .     S
C27    C28     1.526   .     S
C28    H68     1.107   .     S
C28    H67     1.107   .     S
C28    H66     1.107   .     S
C29    H69     1.105   .     S
C29    O95     1.424   .     S
C29    C242    1.532   1_455 S
C29    H282    1.114   1_455 S
C30    H71     1.094   .     S
C30    H72     1.109   .     S
C30    C135    1.532   .     S
C30    C137    1.509   .     S
C31    H73     1.102   .     S
C31    H75     1.107   .     S
C31    C242    1.509   1_455 S
C31    H286    1.104   1_455 S
C32    H77     1.102   .     S
C32    H78     1.094   .     S
C32    C245    1.536   1_455 S
C32    O308    1.403   1_455 S
C33    H79     1.105   .     S
C33    C138    1.536   .     S
C33    C141    1.520   .     S
C33    H186    1.111   .     S
C34    O94     1.401   .     S
C34    C969    1.415   1_554 S
C35    H81     1.101   .     S
C35    H82     1.107   .     S
C35    H83     1.105   .     S
C35    C245    1.520   1_455 S
C36    C355    1.377   .     S
C36    Cl359   1.793   .     S
C37    C672    1.377   1_545 S
C37    Cl678   1.787   1_545 S
C38    O100    1.308   .     A
C38    O102    1.314   .     A
C39    O101    1.302   .     A
C39    O103    1.318   .     A
C40    O104    1.389   .     S
Cl41   C672    1.793   1_545 S
Cl42   C355    1.787   .     S
H57    C978    1.101   1_554 S
H58    C1191   1.101   1_454 S
H60    C237    1.111   1_455 S
H62    C980    1.105   .     S
H70    C135    1.114   .     S
H74    C137    1.104   .     S
H80    C245    1.111   1_455 S
H86    C335    1.105   .     S
H88    C654    1.102   1_545 S
N89    Zn106   2.067   .     S
N89    N196    1.302   .     S
N89    O201    1.351   .     S
N90    Zn105   2.067   .     S
N90    N301    1.302   1_455 S
N90    O308    1.349   1_455 S
O91    Zn105   1.985   .     S
O94    C662    1.411   1_545 S
O95    N301    1.351   1_455 S
O96    C138    1.403   .     S
O96    N196    1.349   .     S
O97    Zn106   1.985   .     S
O98    Zn106   2.015   .     S
O99    Zn105   2.015   .     S
O100   Zn105   2.010   .     S
O101   Zn106   2.010   .     S
O102   Zn106   2.008   .     S
O103   Zn105   2.008   .     S
C107   O197    1.291   .     A
C107   O204    1.320   .     A
C107   C142    1.420   .     S
C108   C110    1.421   .     A
C108   C119    1.404   .     A
C108   O198    1.400   .     S
C109   C145    1.440   .     S
C109   C146    1.409   .     A
C109   C111    1.380   .     A
C110   C112    1.393   .     A
C110   C144    1.439   .     S
C111   H149    1.071   .     S
C111   C113    1.376   .     A
C112   H160    1.086   .     S
C112   C114    1.386   .     A
C113   C120    1.395   .     A
C113   C115    1.405   .     A
C114   C121    1.398   .     A
C114   C116    1.402   .     A
C115   C117    1.426   .     A
C115   C1070   1.399   1_554 S
C116   C119    1.424   .     A
C116   C1069   1.399   .     S
C117   C140    1.425   .     A
C117   C146    1.423   .     A
C118   O205    1.320   .     A
C118   O203    1.290   .     A
C118   C143    1.417   .     S
C119   C129    1.417   .     A
C120   H171    1.077   .     S
C120   C1083   1.395   1_554 S
C121   H182    1.081   .     S
C121   C1094   1.415   .     S
C122   H190    1.109   .     S
C122   O210    1.412   .     S
C122   H191    1.097   .     S
C122   C123    1.525   .     S
C123   H193    1.100   .     S
C123   C760    1.524   1_545 S
C123   H828    1.105   1_545 S
C124   H150    1.108   .     S
C124   H151    1.107   .     S
C124   C441    1.524   .     S
C124   H512    1.102   .     S
C125   C126    1.534   .     S
C125   H152    1.111   .     S
C125   H153    1.090   .     S
C125   O198    1.408   .     S
C126   H155    1.103   .     S
C126   H154    1.101   .     S
C126   C445    1.526   .     S
C127   H156    1.110   .     S
C127   H157    1.102   .     S
C127   H158    1.108   .     S
C127   C762    1.526   1_545 S
C128   H159    1.109   .     S
C128   O199    1.419   .     S
C128   H161    1.106   .     S
C128   C448    1.528   .     S
C129   O199    1.395   .     S
C129   C1074   1.395   .     S
C130   C131    1.520   .     S
C130   H162    1.101   .     S
C130   C764    1.528   1_545 S
C130   H1117   1.101   .     S
C131   H165    1.110   .     S
C131   H1224   1.101   .     S
C131   H272    1.111   .     S
C132   H167    1.103   .     S
C132   C133    1.529   .     S
C132   H1122   1.105   1_554 S
C132   O518    1.411   .     S
C133   H169    1.110   .     S
C133   H170    1.110   .     S
C133   C134    1.526   .     S
C134   H174    1.107   .     S
C134   H173    1.107   .     S
C134   H172    1.107   .     S
C135   H175    1.105   .     S
C135   O201    1.424   .     S
C136   H177    1.094   .     S
C136   H178    1.109   .     S
C136   C241    1.532   .     S
C136   C243    1.509   .     S
C137   H179    1.102   .     S
C137   H181    1.107   .     S
C138   H183    1.102   .     S
C138   H184    1.094   .     S
C139   H185    1.105   .     S
C139   C244    1.536   .     S
C139   C247    1.520   .     S
C139   H292    1.111   .     S
C140   O200    1.401   .     S
C140   C1075   1.415   1_554 S
C141   H187    1.101   .     S
C141   H188    1.107   .     S
C141   H189    1.105   .     S
C142   C461    1.377   .     S
C142   Cl465   1.793   .     S
C143   C778    1.377   1_545 S
C143   Cl784   1.787   1_545 S
C144   O206    1.308   .     A
C144   O208    1.314   .     A
C145   O207    1.302   .     A
C145   O209    1.318   .     A
C146   O210    1.389   .     S
Cl147  C778    1.793   1_545 S
Cl148  C461    1.787   .     S
H163   C1084   1.101   1_554 S
H164   C979    1.101   1_554 S
H168   C1086   1.105   .     S
H176   C241    1.114   .     S
H180   C243    1.104   .     S
H192   C441    1.105   .     S
H194   C760    1.102   1_545 S
N195   Zn212   2.067   .     S
N195   N302    1.302   .     S
N195   O307    1.351   .     S
N196   Zn211   2.067   .     S
O197   Zn211   1.985   .     S
O200   C768    1.411   1_545 S
O202   C244    1.403   .     S
O202   N302    1.349   .     S
O203   Zn212   1.985   .     S
O204   Zn212   2.015   .     S
O205   Zn211   2.015   .     S
O206   Zn211   2.010   .     S
O207   Zn212   2.010   .     S
O208   Zn212   2.008   .     S
O209   Zn211   2.008   .     S
C213   O303    1.291   .     A
C213   O310    1.320   .     A
C213   C248    1.420   .     S
C214   C216    1.421   .     A
C214   C225    1.404   .     A
C214   O304    1.400   .     S
C215   C251    1.440   .     S
C215   C252    1.409   .     A
C215   C217    1.380   .     A
C216   C218    1.393   .     A
C216   C250    1.439   .     S
C217   H255    1.071   .     S
C217   C219    1.376   .     A
C218   H266    1.086   .     S
C218   C220    1.386   .     A
C219   C226    1.395   .     A
C219   C221    1.405   .     A
C220   C227    1.398   .     A
C220   C222    1.402   .     A
C221   C223    1.426   .     A
C221   C1176   1.399   1_554 S
C222   C225    1.424   .     A
C222   C1175   1.399   .     S
C223   C246    1.425   .     A
C223   C252    1.423   .     A
C224   O311    1.320   .     A
C224   O309    1.290   .     A
C224   C249    1.417   .     S
C225   C235    1.417   .     A
C226   H277    1.077   .     S
C226   C1189   1.395   1_554 S
C227   H288    1.081   .     S
C227   C1200   1.415   .     S
C228   H296    1.109   .     S
C228   O316    1.412   .     S
C228   H297    1.097   .     S
C228   C229    1.525   .     S
C229   H299    1.100   .     S
C229   C866    1.524   1_545 S
C229   H934    1.105   1_545 S
C230   H256    1.108   .     S
C230   H257    1.107   .     S
C230   C547    1.524   .     S
C230   H618    1.102   .     S
C231   C232    1.534   .     S
C231   H258    1.111   .     S
C231   H259    1.090   .     S
C231   O304    1.408   .     S
C232   H261    1.103   .     S
C232   H260    1.101   .     S
C232   C551    1.526   .     S
C233   H262    1.110   .     S
C233   H263    1.102   .     S
C233   H264    1.108   .     S
C233   C868    1.526   1_545 S
C234   H265    1.109   .     S
C234   O305    1.419   .     S
C234   H267    1.106   .     S
C234   C554    1.528   .     S
C235   O305    1.395   .     S
C235   C1180   1.395   .     S
C236   C237    1.520   .     S
C236   H268    1.101   .     S
C236   C870    1.528   1_545 S
C236   H1223   1.101   .     S
C237   H271    1.110   .     S
C237   H1012   1.101   1_655 S
C237   H60     1.111   1_655 S
C238   H273    1.103   .     S
C238   C239    1.529   .     S
C238   H1228   1.105   1_554 S
C238   O624    1.411   .     S
C239   H275    1.110   .     S
C239   H276    1.110   .     S
C239   C240    1.526   .     S
C240   H280    1.107   .     S
C240   H279    1.107   .     S
C240   H278    1.107   .     S
C241   H281    1.105   .     S
C241   O307    1.424   .     S
C242   H283    1.094   .     S
C242   H284    1.109   .     S
C242   C29     1.532   1_655 S
C242   C31     1.509   1_655 S
C243   H285    1.102   .     S
C243   H287    1.107   .     S
C244   H289    1.102   .     S
C244   H290    1.094   .     S
C245   H291    1.105   .     S
C245   C32     1.536   1_655 S
C245   C35     1.520   1_655 S
C245   H80     1.111   1_655 S
C246   O306    1.401   .     S
C246   C1181   1.415   1_554 S
C247   H293    1.101   .     S
C247   H294    1.107   .     S
C247   H295    1.105   .     S
C248   C567    1.377   .     S
C248   Cl571   1.793   .     S
C249   C884    1.377   1_545 S
C249   Cl890   1.787   1_545 S
C250   O312    1.308   .     A
C250   O314    1.314   .     A
C251   O313    1.302   .     A
C251   O315    1.318   .     A
C252   O316    1.389   .     S
Cl253  C884    1.793   1_545 S
Cl254  C567    1.787   .     S
H269   C1190   1.101   1_554 S
H270   C1085   1.101   1_554 S
H274   C1192   1.105   .     S
H282   C29     1.114   1_655 S
H286   C31     1.104   1_655 S
H298   C547    1.105   .     S
H300   C866    1.102   1_545 S
N301   Zn318   2.067   .     S
N301   N90     1.302   1_655 S
N301   O95     1.351   1_655 S
N302   Zn317   2.067   .     S
O303   Zn317   1.985   .     S
O306   C874    1.411   1_545 S
O308   C32     1.403   1_655 S
O308   N90     1.349   1_655 S
O309   Zn318   1.985   .     S
O310   Zn318   2.015   .     S
O311   Zn317   2.015   .     S
O312   Zn317   2.010   .     S
O313   Zn318   2.010   .     S
O314   Zn318   2.008   .     S
O315   Zn317   2.008   .     S
C319   O409    1.291   .     A
C319   O416    1.320   .     A
C319   C354    1.420   .     S
C320   C322    1.421   .     A
C320   C331    1.404   .     A
C320   O410    1.400   .     S
C321   C357    1.440   .     S
C321   C358    1.409   .     A
C321   C323    1.380   .     A
C322   C324    1.393   .     A
C322   C356    1.439   .     S
C323   H361    1.071   .     S
C323   C325    1.376   .     A
C324   H372    1.086   .     S
C324   C326    1.386   .     A
C325   C332    1.395   .     A
C325   C327    1.405   .     A
C326   C333    1.398   .     A
C326   C328    1.402   .     A
C327   C329    1.426   .     A
C327   C1282   1.399   1_554 S
C328   C331    1.424   .     A
C328   C1281   1.399   .     S
C329   C352    1.425   .     A
C329   C358    1.423   .     A
C330   O417    1.320   .     A
C330   O415    1.290   .     A
C330   C355    1.417   .     S
C331   C341    1.417   .     A
C332   H383    1.077   .     S
C332   C1295   1.395   1_554 S
C333   H394    1.081   .     S
C333   C1306   1.415   .     S
C334   H402    1.109   .     S
C334   O422    1.412   .     S
C334   H403    1.097   .     S
C334   C335    1.525   .     S
C335   H405    1.100   .     S
C336   H362    1.108   .     S
C336   H363    1.107   .     S
C336   C653    1.524   .     S
C336   H724    1.102   .     S
C337   C338    1.534   .     S
C337   H364    1.111   .     S
C337   H365    1.090   .     S
C337   O410    1.408   .     S
C338   H367    1.103   .     S
C338   H366    1.101   .     S
C338   C657    1.526   .     S
C339   H368    1.110   .     S
C339   H369    1.102   .     S
C339   H370    1.108   .     S
C340   H371    1.109   .     S
C340   O411    1.419   .     S
C340   H373    1.106   .     S
C340   C660    1.528   .     S
C341   O411    1.395   .     S
C341   C1286   1.395   .     S
C342   C343    1.520   .     S
C342   H374    1.101   .     S
C342   H1329   1.101   .     S
C343   H377    1.110   .     S
C343   H1436   1.101   .     S
C343   H484    1.111   .     S
C344   H379    1.103   .     S
C344   C345    1.529   .     S
C344   H1334   1.105   1_554 S
C344   O730    1.411   .     S
C345   H381    1.110   .     S
C345   H382    1.110   .     S
C345   C346    1.526   .     S
C346   H386    1.107   .     S
C346   H385    1.107   .     S
C346   H384    1.107   .     S
C347   H387    1.105   .     S
C347   O413    1.424   .     S
C347   C560    1.532   1_455 S
C347   H600    1.114   1_455 S
C348   H389    1.094   .     S
C348   H390    1.109   .     S
C348   C453    1.532   .     S
C348   C455    1.509   .     S
C349   H391    1.102   .     S
C349   H393    1.107   .     S
C349   C560    1.509   1_455 S
C349   H604    1.104   1_455 S
C350   H395    1.102   .     S
C350   H396    1.094   .     S
C350   C563    1.536   1_455 S
C350   O626    1.403   1_455 S
C351   H397    1.105   .     S
C351   C456    1.536   .     S
C351   C459    1.520   .     S
C351   H504    1.111   .     S
C352   O412    1.401   .     S
C352   C1287   1.415   1_554 S
C353   H399    1.101   .     S
C353   H400    1.107   .     S
C353   H401    1.105   .     S
C353   C563    1.520   1_455 S
C354   C673    1.377   .     S
C354   Cl677   1.793   .     S
C356   O418    1.308   .     A
C356   O420    1.314   .     A
C357   O419    1.302   .     A
C357   O421    1.318   .     A
C358   O422    1.389   .     S
Cl360  C673    1.787   .     S
H375   C1296   1.101   1_554 S
H376   C1509   1.101   1_454 S
H378   C555    1.111   1_455 S
H380   C1298   1.105   .     S
H388   C453    1.114   .     S
H392   C455    1.104   .     S
H398   C563    1.111   1_455 S
H404   C653    1.105   .     S
N407   Zn424   2.067   .     S
N407   N514    1.302   .     S
N407   O519    1.351   .     S
N408   Zn423   2.067   .     S
N408   N619    1.302   1_455 S
N408   O626    1.349   1_455 S
O409   Zn423   1.985   .     S
O413   N619    1.351   1_455 S
O414   C456    1.403   .     S
O414   N514    1.349   .     S
O415   Zn424   1.985   .     S
O416   Zn424   2.015   .     S
O417   Zn423   2.015   .     S
O418   Zn423   2.010   .     S
O419   Zn424   2.010   .     S
O420   Zn424   2.008   .     S
O421   Zn423   2.008   .     S
C425   O515    1.291   .     A
C425   O522    1.320   .     A
C425   C460    1.420   .     S
C426   C428    1.421   .     A
C426   C437    1.404   .     A
C426   O516    1.400   .     S
C427   C463    1.440   .     S
C427   C464    1.409   .     A
C427   C429    1.380   .     A
C428   C430    1.393   .     A
C428   C462    1.439   .     S
C429   H467    1.071   .     S
C429   C431    1.376   .     A
C430   H478    1.086   .     S
C430   C432    1.386   .     A
C431   C438    1.395   .     A
C431   C433    1.405   .     A
C432   C439    1.398   .     A
C432   C434    1.402   .     A
C433   C435    1.426   .     A
C433   C1388   1.399   1_554 S
C434   C437    1.424   .     A
C434   C1387   1.399   .     S
C435   C458    1.425   .     A
C435   C464    1.423   .     A
C436   O523    1.320   .     A
C436   O521    1.290   .     A
C436   C461    1.417   .     S
C437   C447    1.417   .     A
C438   H489    1.077   .     S
C438   C1401   1.395   1_554 S
C439   H500    1.081   .     S
C439   C1412   1.415   .     S
C440   H508    1.109   .     S
C440   O528    1.412   .     S
C440   H509    1.097   .     S
C440   C441    1.525   .     S
C441   H511    1.100   .     S
C442   H468    1.108   .     S
C442   H469    1.107   .     S
C442   C759    1.524   .     S
C442   H830    1.102   .     S
C443   C444    1.534   .     S
C443   H470    1.111   .     S
C443   H471    1.090   .     S
C443   O516    1.408   .     S
C444   H473    1.103   .     S
C444   H472    1.101   .     S
C444   C763    1.526   .     S
C445   H474    1.110   .     S
C445   H475    1.102   .     S
C445   H476    1.108   .     S
C446   H477    1.109   .     S
C446   O517    1.419   .     S
C446   H479    1.106   .     S
C446   C766    1.528   .     S
C447   O517    1.395   .     S
C447   C1392   1.395   .     S
C448   C449    1.520   .     S
C448   H480    1.101   .     S
C448   H1435   1.101   .     S
C449   H483    1.110   .     S
C449   H1542   1.101   .     S
C449   H590    1.111   .     S
C450   H485    1.103   .     S
C450   C451    1.529   .     S
C450   H1440   1.105   1_554 S
C450   O836    1.411   .     S
C451   H487    1.110   .     S
C451   H488    1.110   .     S
C451   C452    1.526   .     S
C452   H492    1.107   .     S
C452   H491    1.107   .     S
C452   H490    1.107   .     S
C453   H493    1.105   .     S
C453   O519    1.424   .     S
C454   H495    1.094   .     S
C454   H496    1.109   .     S
C454   C559    1.532   .     S
C454   C561    1.509   .     S
C455   H497    1.102   .     S
C455   H499    1.107   .     S
C456   H501    1.102   .     S
C456   H502    1.094   .     S
C457   H503    1.105   .     S
C457   C562    1.536   .     S
C457   C565    1.520   .     S
C457   H610    1.111   .     S
C458   O518    1.401   .     S
C458   C1393   1.415   1_554 S
C459   H505    1.101   .     S
C459   H506    1.107   .     S
C459   H507    1.105   .     S
C460   C779    1.377   .     S
C460   Cl783   1.793   .     S
C462   O524    1.308   .     A
C462   O526    1.314   .     A
C463   O525    1.302   .     A
C463   O527    1.318   .     A
C464   O528    1.389   .     S
Cl466  C779    1.787   .     S
H481   C1402   1.101   1_554 S
H482   C1297   1.101   1_554 S
H486   C1404   1.105   .     S
H494   C559    1.114   .     S
H498   C561    1.104   .     S
H510   C759    1.105   .     S
N513   Zn530   2.067   .     S
N513   N620    1.302   .     S
N513   O625    1.351   .     S
N514   Zn529   2.067   .     S
O515   Zn529   1.985   .     S
O520   C562    1.403   .     S
O520   N620    1.349   .     S
O521   Zn530   1.985   .     S
O522   Zn530   2.015   .     S
O523   Zn529   2.015   .     S
O524   Zn529   2.010   .     S
O525   Zn530   2.010   .     S
O526   Zn530   2.008   .     S
O527   Zn529   2.008   .     S
C531   O621    1.291   .     A
C531   O628    1.320   .     A
C531   C566    1.420   .     S
C532   C534    1.421   .     A
C532   C543    1.404   .     A
C532   O622    1.400   .     S
C533   C569    1.440   .     S
C533   C570    1.409   .     A
C533   C535    1.380   .     A
C534   C536    1.393   .     A
C534   C568    1.439   .     S
C535   H573    1.071   .     S
C535   C537    1.376   .     A
C536   H584    1.086   .     S
C536   C538    1.386   .     A
C537   C544    1.395   .     A
C537   C539    1.405   .     A
C538   C545    1.398   .     A
C538   C540    1.402   .     A
C539   C541    1.426   .     A
C539   C1494   1.399   1_554 S
C540   C543    1.424   .     A
C540   C1493   1.399   .     S
C541   C564    1.425   .     A
C541   C570    1.423   .     A
C542   O629    1.320   .     A
C542   O627    1.290   .     A
C542   C567    1.417   .     S
C543   C553    1.417   .     A
C544   H595    1.077   .     S
C544   C1507   1.395   1_554 S
C545   H606    1.081   .     S
C545   C1518   1.415   .     S
C546   H614    1.109   .     S
C546   O634    1.412   .     S
C546   H615    1.097   .     S
C546   C547    1.525   .     S
C547   H617    1.100   .     S
C548   H574    1.108   .     S
C548   H575    1.107   .     S
C548   C865    1.524   .     S
C548   H936    1.102   .     S
C549   C550    1.534   .     S
C549   H576    1.111   .     S
C549   H577    1.090   .     S
C549   O622    1.408   .     S
C550   H579    1.103   .     S
C550   H578    1.101   .     S
C550   C869    1.526   .     S
C551   H580    1.110   .     S
C551   H581    1.102   .     S
C551   H582    1.108   .     S
C552   H583    1.109   .     S
C552   O623    1.419   .     S
C552   H585    1.106   .     S
C552   C872    1.528   .     S
C553   O623    1.395   .     S
C553   C1498   1.395   .     S
C554   C555    1.520   .     S
C554   H586    1.101   .     S
C554   H1541   1.101   .     S
C555   H589    1.110   .     S
C555   H1330   1.101   1_655 S
C555   H378    1.111   1_655 S
C556   H591    1.103   .     S
C556   C557    1.529   .     S
C556   H1546   1.105   1_554 S
C556   O942    1.411   .     S
C557   H593    1.110   .     S
C557   H594    1.110   .     S
C557   C558    1.526   .     S
C558   H598    1.107   .     S
C558   H597    1.107   .     S
C558   H596    1.107   .     S
C559   H599    1.105   .     S
C559   O625    1.424   .     S
C560   H601    1.094   .     S
C560   H602    1.109   .     S
C560   C347    1.532   1_655 S
C560   C349    1.509   1_655 S
C561   H603    1.102   .     S
C561   H605    1.107   .     S
C562   H607    1.102   .     S
C562   H608    1.094   .     S
C563   H609    1.105   .     S
C563   C350    1.536   1_655 S
C563   C353    1.520   1_655 S
C563   H398    1.111   1_655 S
C564   O624    1.401   .     S
C564   C1499   1.415   1_554 S
C565   H611    1.101   .     S
C565   H612    1.107   .     S
C565   H613    1.105   .     S
C566   C885    1.377   .     S
C566   Cl889   1.793   .     S
C568   O630    1.308   .     A
C568   O632    1.314   .     A
C569   O631    1.302   .     A
C569   O633    1.318   .     A
C570   O634    1.389   .     S
Cl572  C885    1.787   .     S
H587   C1508   1.101   1_554 S
H588   C1403   1.101   1_554 S
H592   C1510   1.105   .     S
H600   C347    1.114   1_655 S
H604   C349    1.104   1_655 S
H616   C865    1.105   .     S
N619   Zn636   2.067   .     S
N619   N408    1.302   1_655 S
N619   O413    1.351   1_655 S
N620   Zn635   2.067   .     S
O621   Zn635   1.985   .     S
O626   C350    1.403   1_655 S
O626   N408    1.349   1_655 S
O627   Zn636   1.985   .     S
O628   Zn636   2.015   .     S
O629   Zn635   2.015   .     S
O630   Zn635   2.010   .     S
O631   Zn636   2.010   .     S
O632   Zn636   2.008   .     S
O633   Zn635   2.008   .     S
C637   O727    1.291   .     A
C637   O734    1.320   .     A
C637   C672    1.420   .     S
C638   C640    1.421   .     A
C638   C649    1.404   .     A
C638   O728    1.400   .     S
C639   C675    1.440   .     S
C639   C676    1.409   .     A
C639   C641    1.380   .     A
C640   C642    1.393   .     A
C640   C674    1.439   .     S
C641   H679    1.071   .     S
C641   C643    1.376   .     A
C642   H690    1.086   .     S
C642   C644    1.386   .     A
C643   C650    1.395   .     A
C643   C645    1.405   .     A
C644   C651    1.398   .     A
C644   C646    1.402   .     A
C645   C647    1.426   .     A
C645   C1600   1.399   1_554 S
C646   C649    1.424   .     A
C646   C1599   1.399   .     S
C647   C670    1.425   .     A
C647   C676    1.423   .     A
C648   O735    1.320   .     A
C648   O733    1.290   .     A
C648   C673    1.417   .     S
C649   C659    1.417   .     A
C650   H701    1.077   .     S
C650   C1613   1.395   1_554 S
C651   H712    1.081   .     S
C651   C1624   1.415   .     S
C652   H720    1.109   .     S
C652   O740    1.412   .     S
C652   H721    1.097   .     S
C652   C653    1.525   .     S
C653   H723    1.100   .     S
C654   H680    1.108   .     S
C654   H681    1.107   .     S
C654   C17     1.524   1_565 S
C654   H88     1.102   1_565 S
C655   C656    1.534   .     S
C655   H682    1.111   .     S
C655   H683    1.090   .     S
C655   O728    1.408   .     S
C656   H685    1.103   .     S
C656   H684    1.101   .     S
C656   C21     1.526   1_565 S
C657   H686    1.110   .     S
C657   H687    1.102   .     S
C657   H688    1.108   .     S
C658   H689    1.109   .     S
C658   O729    1.419   .     S
C658   H691    1.106   .     S
C658   C24     1.528   1_565 S
C659   O729    1.395   .     S
C659   C1604   1.395   .     S
C660   C661    1.520   .     S
C660   H692    1.101   .     S
C660   H1647   1.101   .     S
C661   H695    1.110   .     S
C661   H1754   1.101   .     S
C661   H802    1.111   .     S
C662   H697    1.103   .     S
C662   C663    1.529   .     S
C662   H1652   1.105   1_554 S
C662   O94     1.411   1_565 S
C663   H699    1.110   .     S
C663   H700    1.110   .     S
C663   C664    1.526   .     S
C664   H704    1.107   .     S
C664   H703    1.107   .     S
C664   H702    1.107   .     S
C665   H705    1.105   .     S
C665   O731    1.424   .     S
C665   C878    1.532   1_455 S
C665   H918    1.114   1_455 S
C666   H707    1.094   .     S
C666   H708    1.109   .     S
C666   C771    1.532   .     S
C666   C773    1.509   .     S
C667   H709    1.102   .     S
C667   H711    1.107   .     S
C667   C878    1.509   1_455 S
C667   H922    1.104   1_455 S
C668   H713    1.102   .     S
C668   H714    1.094   .     S
C668   C881    1.536   1_455 S
C668   O944    1.403   1_455 S
C669   H715    1.105   .     S
C669   C774    1.536   .     S
C669   C777    1.520   .     S
C669   H822    1.111   .     S
C670   O730    1.401   .     S
C670   C1605   1.415   1_554 S
C671   H717    1.101   .     S
C671   H718    1.107   .     S
C671   H719    1.105   .     S
C671   C881    1.520   1_455 S
C672   C37     1.377   1_565 S
C672   Cl41    1.793   1_565 S
C674   O736    1.308   .     A
C674   O738    1.314   .     A
C675   O737    1.302   .     A
C675   O739    1.318   .     A
C676   O740    1.389   .     S
Cl678  C37     1.787   1_565 S
H693   C1614   1.101   1_554 S
H694   C1827   1.101   1_454 S
H696   C873    1.111   1_455 S
H698   C1616   1.105   .     S
H706   C771    1.114   .     S
H710   C773    1.104   .     S
H716   C881    1.111   1_455 S
H722   C17     1.105   1_565 S
N725   Zn742   2.067   .     S
N725   N832    1.302   .     S
N725   O837    1.351   .     S
N726   Zn741   2.067   .     S
N726   N937    1.302   1_455 S
N726   O944    1.349   1_455 S
O727   Zn741   1.985   .     S
O731   N937    1.351   1_455 S
O732   C774    1.403   .     S
O732   N832    1.349   .     S
O733   Zn742   1.985   .     S
O734   Zn742   2.015   .     S
O735   Zn741   2.015   .     S
O736   Zn741   2.010   .     S
O737   Zn742   2.010   .     S
O738   Zn742   2.008   .     S
O739   Zn741   2.008   .     S
C743   O833    1.291   .     A
C743   O840    1.320   .     A
C743   C778    1.420   .     S
C744   C746    1.421   .     A
C744   C755    1.404   .     A
C744   O834    1.400   .     S
C745   C781    1.440   .     S
C745   C782    1.409   .     A
C745   C747    1.380   .     A
C746   C748    1.393   .     A
C746   C780    1.439   .     S
C747   H785    1.071   .     S
C747   C749    1.376   .     A
C748   H796    1.086   .     S
C748   C750    1.386   .     A
C749   C756    1.395   .     A
C749   C751    1.405   .     A
C750   C757    1.398   .     A
C750   C752    1.402   .     A
C751   C753    1.426   .     A
C751   C1706   1.399   1_554 S
C752   C755    1.424   .     A
C752   C1705   1.399   .     S
C753   C776    1.425   .     A
C753   C782    1.423   .     A
C754   O841    1.320   .     A
C754   O839    1.290   .     A
C754   C779    1.417   .     S
C755   C765    1.417   .     A
C756   H807    1.077   .     S
C756   C1719   1.395   1_554 S
C757   H818    1.081   .     S
C757   C1730   1.415   .     S
C758   H826    1.109   .     S
C758   O846    1.412   .     S
C758   H827    1.097   .     S
C758   C759    1.525   .     S
C759   H829    1.100   .     S
C760   H786    1.108   .     S
C760   H787    1.107   .     S
C760   C123    1.524   1_565 S
C760   H194    1.102   1_565 S
C761   C762    1.534   .     S
C761   H788    1.111   .     S
C761   H789    1.090   .     S
C761   O834    1.408   .     S
C762   H791    1.103   .     S
C762   H790    1.101   .     S
C762   C127    1.526   1_565 S
C763   H792    1.110   .     S
C763   H793    1.102   .     S
C763   H794    1.108   .     S
C764   H795    1.109   .     S
C764   O835    1.419   .     S
C764   H797    1.106   .     S
C764   C130    1.528   1_565 S
C765   O835    1.395   .     S
C765   C1710   1.395   .     S
C766   C767    1.520   .     S
C766   H798    1.101   .     S
C766   H1753   1.101   .     S
C767   H801    1.110   .     S
C767   H1860   1.101   .     S
C767   H908    1.111   .     S
C768   H803    1.103   .     S
C768   C769    1.529   .     S
C768   H1758   1.105   1_554 S
C768   O200    1.411   1_565 S
C769   H805    1.110   .     S
C769   H806    1.110   .     S
C769   C770    1.526   .     S
C770   H810    1.107   .     S
C770   H809    1.107   .     S
C770   H808    1.107   .     S
C771   H811    1.105   .     S
C771   O837    1.424   .     S
C772   H813    1.094   .     S
C772   H814    1.109   .     S
C772   C877    1.532   .     S
C772   C879    1.509   .     S
C773   H815    1.102   .     S
C773   H817    1.107   .     S
C774   H819    1.102   .     S
C774   H820    1.094   .     S
C775   H821    1.105   .     S
C775   C880    1.536   .     S
C775   C883    1.520   .     S
C775   H928    1.111   .     S
C776   O836    1.401   .     S
C776   C1711   1.415   1_554 S
C777   H823    1.101   .     S
C777   H824    1.107   .     S
C777   H825    1.105   .     S
C778   C143    1.377   1_565 S
C778   Cl147   1.793   1_565 S
C780   O842    1.308   .     A
C780   O844    1.314   .     A
C781   O843    1.302   .     A
C781   O845    1.318   .     A
C782   O846    1.389   .     S
Cl784  C143    1.787   1_565 S
H799   C1720   1.101   1_554 S
H800   C1615   1.101   1_554 S
H804   C1722   1.105   .     S
H812   C877    1.114   .     S
H816   C879    1.104   .     S
H828   C123    1.105   1_565 S
N831   Zn848   2.067   .     S
N831   N938    1.302   .     S
N831   O943    1.351   .     S
N832   Zn847   2.067   .     S
O833   Zn847   1.985   .     S
O838   C880    1.403   .     S
O838   N938    1.349   .     S
O839   Zn848   1.985   .     S
O840   Zn848   2.015   .     S
O841   Zn847   2.015   .     S
O842   Zn847   2.010   .     S
O843   Zn848   2.010   .     S
O844   Zn848   2.008   .     S
O845   Zn847   2.008   .     S
C849   O939    1.291   .     A
C849   O946    1.320   .     A
C849   C884    1.420   .     S
C850   C852    1.421   .     A
C850   C861    1.404   .     A
C850   O940    1.400   .     S
C851   C887    1.440   .     S
C851   C888    1.409   .     A
C851   C853    1.380   .     A
C852   C854    1.393   .     A
C852   C886    1.439   .     S
C853   H891    1.071   .     S
C853   C855    1.376   .     A
C854   H902    1.086   .     S
C854   C856    1.386   .     A
C855   C862    1.395   .     A
C855   C857    1.405   .     A
C856   C863    1.398   .     A
C856   C858    1.402   .     A
C857   C859    1.426   .     A
C857   C1812   1.399   1_554 S
C858   C861    1.424   .     A
C858   C1811   1.399   .     S
C859   C882    1.425   .     A
C859   C888    1.423   .     A
C860   O947    1.320   .     A
C860   O945    1.290   .     A
C860   C885    1.417   .     S
C861   C871    1.417   .     A
C862   H913    1.077   .     S
C862   C1825   1.395   1_554 S
C863   H924    1.081   .     S
C863   C1836   1.415   .     S
C864   H932    1.109   .     S
C864   O952    1.412   .     S
C864   H933    1.097   .     S
C864   C865    1.525   .     S
C865   H935    1.100   .     S
C866   H892    1.108   .     S
C866   H893    1.107   .     S
C866   C229    1.524   1_565 S
C866   H300    1.102   1_565 S
C867   C868    1.534   .     S
C867   H894    1.111   .     S
C867   H895    1.090   .     S
C867   O940    1.408   .     S
C868   H897    1.103   .     S
C868   H896    1.101   .     S
C868   C233    1.526   1_565 S
C869   H898    1.110   .     S
C869   H899    1.102   .     S
C869   H900    1.108   .     S
C870   H901    1.109   .     S
C870   O941    1.419   .     S
C870   H903    1.106   .     S
C870   C236    1.528   1_565 S
C871   O941    1.395   .     S
C871   C1816   1.395   .     S
C872   C873    1.520   .     S
C872   H904    1.101   .     S
C872   H1859   1.101   .     S
C873   H907    1.110   .     S
C873   H1648   1.101   1_655 S
C873   H696    1.111   1_655 S
C874   H909    1.103   .     S
C874   C875    1.529   .     S
C874   H1864   1.105   1_554 S
C874   O306    1.411   1_565 S
C875   H911    1.110   .     S
C875   H912    1.110   .     S
C875   C876    1.526   .     S
C876   H916    1.107   .     S
C876   H915    1.107   .     S
C876   H914    1.107   .     S
C877   H917    1.105   .     S
C877   O943    1.424   .     S
C878   H919    1.094   .     S
C878   H920    1.109   .     S
C878   C665    1.532   1_655 S
C878   C667    1.509   1_655 S
C879   H921    1.102   .     S
C879   H923    1.107   .     S
C880   H925    1.102   .     S
C880   H926    1.094   .     S
C881   H927    1.105   .     S
C881   C668    1.536   1_655 S
C881   C671    1.520   1_655 S
C881   H716    1.111   1_655 S
C882   O942    1.401   .     S
C882   C1817   1.415   1_554 S
C883   H929    1.101   .     S
C883   H930    1.107   .     S
C883   H931    1.105   .     S
C884   C249    1.377   1_565 S
C884   Cl253   1.793   1_565 S
C886   O948    1.308   .     A
C886   O950    1.314   .     A
C887   O949    1.302   .     A
C887   O951    1.318   .     A
C888   O952    1.389   .     S
Cl890  C249    1.787   1_565 S
H905   C1826   1.101   1_554 S
H906   C1721   1.101   1_554 S
H910   C1828   1.105   .     S
H918   C665    1.114   1_655 S
H922   C667    1.104   1_655 S
H934   C229    1.105   1_565 S
N937   Zn954   2.067   .     S
N937   N726    1.302   1_655 S
N937   O731    1.351   1_655 S
N938   Zn953   2.067   .     S
O939   Zn953   1.985   .     S
O944   C668    1.403   1_655 S
O944   N726    1.349   1_655 S
O945   Zn954   1.985   .     S
O946   Zn954   2.015   .     S
O947   Zn953   2.015   .     S
O948   Zn953   2.010   .     S
O949   Zn954   2.010   .     S
O950   Zn954   2.008   .     S
O951   Zn953   2.008   .     S
C955   O1045   1.291   .     A
C955   O1052   1.320   .     A
C955   C990    1.420   .     S
C956   C958    1.421   .     A
C956   C967    1.404   .     A
C956   O1046   1.400   .     S
C957   C993    1.440   .     S
C957   C994    1.409   .     A
C957   C959    1.380   .     A
C958   C960    1.393   .     A
C958   C992    1.439   .     S
C959   H997    1.071   .     S
C959   C961    1.376   .     A
C960   H1008   1.086   .     S
C960   C962    1.386   .     A
C961   C968    1.395   .     A
C961   C963    1.405   .     A
C962   C969    1.398   .     A
C962   C964    1.402   .     A
C963   C965    1.426   .     A
C964   C967    1.424   .     A
C964   C9      1.399   1_556 S
C965   C988    1.425   .     A
C965   C994    1.423   .     A
C966   O1053   1.320   .     A
C966   O1051   1.290   .     A
C966   C991    1.417   .     S
C967   C977    1.417   .     A
C968   H1019   1.077   .     S
C969   H1030   1.081   .     S
C969   C34     1.415   1_556 S
C970   H1038   1.109   .     S
C970   O1058   1.412   .     S
C970   H1039   1.097   .     S
C970   C971    1.525   .     S
C971   H1041   1.100   .     S
C971   C1608   1.524   1_545 S
C971   H1676   1.105   1_545 S
C972   H998    1.108   .     S
C972   H999    1.107   .     S
C972   C1289   1.524   .     S
C972   H1360   1.102   .     S
C973   C974    1.534   .     S
C973   H1000   1.111   .     S
C973   H1001   1.090   .     S
C973   O1046   1.408   .     S
C974   H1003   1.103   .     S
C974   H1002   1.101   .     S
C974   C1293   1.526   .     S
C975   H1004   1.110   .     S
C975   H1005   1.102   .     S
C975   H1006   1.108   .     S
C975   C1610   1.526   1_545 S
C976   H1007   1.109   .     S
C976   O1047   1.419   .     S
C976   H1009   1.106   .     S
C976   C1296   1.528   .     S
C977   O1047   1.395   .     S
C977   C14     1.395   1_556 S
C978   C979    1.520   .     S
C978   H1010   1.101   .     S
C978   C1612   1.528   1_545 S
C978   H57     1.101   1_556 S
C979   H1013   1.110   .     S
C979   H164    1.101   1_556 S
C979   H1120   1.111   .     S
C980   H1015   1.103   .     S
C980   C981    1.529   .     S
C980   O1366   1.411   .     S
C981   H1017   1.110   .     S
C981   H1018   1.110   .     S
C981   C982    1.526   .     S
C982   H1022   1.107   .     S
C982   H1021   1.107   .     S
C982   H1020   1.107   .     S
C983   H1023   1.105   .     S
C983   O1049   1.424   .     S
C983   C1196   1.532   1_455 S
C983   H1236   1.114   1_455 S
C984   H1025   1.094   .     S
C984   H1026   1.109   .     S
C984   C1089   1.532   .     S
C984   C1091   1.509   .     S
C985   H1027   1.102   .     S
C985   H1029   1.107   .     S
C985   C1196   1.509   1_455 S
C985   H1240   1.104   1_455 S
C986   H1031   1.102   .     S
C986   H1032   1.094   .     S
C986   C1199   1.536   1_455 S
C986   O1262   1.403   1_455 S
C987   H1033   1.105   .     S
C987   C1092   1.536   .     S
C987   C1095   1.520   .     S
C987   H1140   1.111   .     S
C988   O1048   1.401   .     S
C989   H1035   1.101   .     S
C989   H1036   1.107   .     S
C989   H1037   1.105   .     S
C989   C1199   1.520   1_455 S
C990   C1309   1.377   .     S
C990   Cl1313  1.793   .     S
C991   C1626   1.377   1_545 S
C991   Cl1632  1.787   1_545 S
C992   O1054   1.308   .     A
C992   O1056   1.314   .     A
C993   O1055   1.302   .     A
C993   O1057   1.318   .     A
C994   O1058   1.389   .     S
Cl995  C1626   1.793   1_545 S
Cl996  C1309   1.787   .     S
H1012  C237    1.101   1_455 S
H1014  C1191   1.111   1_455 S
H1016  C26     1.105   1_556 S
H1024  C1089   1.114   .     S
H1028  C1091   1.104   .     S
H1034  C1199   1.111   1_455 S
H1040  C1289   1.105   .     S
H1042  C1608   1.102   1_545 S
N1043  Zn1060  2.067   .     S
N1043  N1150   1.302   .     S
N1043  O1155   1.351   .     S
N1044  Zn1059  2.067   .     S
N1044  N1255   1.302   1_455 S
N1044  O1262   1.349   1_455 S
O1045  Zn1059  1.985   .     S
O1048  C1616   1.411   1_545 S
O1049  N1255   1.351   1_455 S
O1050  C1092   1.403   .     S
O1050  N1150   1.349   .     S
O1051  Zn1060  1.985   .     S
O1052  Zn1060  2.015   .     S
O1053  Zn1059  2.015   .     S
O1054  Zn1059  2.010   .     S
O1055  Zn1060  2.010   .     S
O1056  Zn1060  2.008   .     S
O1057  Zn1059  2.008   .     S
C1061  O1151   1.291   .     A
C1061  O1158   1.320   .     A
C1061  C1096   1.420   .     S
C1062  C1064   1.421   .     A
C1062  C1073   1.404   .     A
C1062  O1152   1.400   .     S
C1063  C1099   1.440   .     S
C1063  C1100   1.409   .     A
C1063  C1065   1.380   .     A
C1064  C1066   1.393   .     A
C1064  C1098   1.439   .     S
C1065  H1103   1.071   .     S
C1065  C1067   1.376   .     A
C1066  H1114   1.086   .     S
C1066  C1068   1.386   .     A
C1067  C1074   1.395   .     A
C1067  C1069   1.405   .     A
C1068  C1075   1.398   .     A
C1068  C1070   1.402   .     A
C1069  C1071   1.426   .     A
C1070  C1073   1.424   .     A
C1070  C115    1.399   1_556 S
C1071  C1094   1.425   .     A
C1071  C1100   1.423   .     A
C1072  O1159   1.320   .     A
C1072  O1157   1.290   .     A
C1072  C1097   1.417   .     S
C1073  C1083   1.417   .     A
C1074  H1125   1.077   .     S
C1075  H1136   1.081   .     S
C1075  C140    1.415   1_556 S
C1076  H1144   1.109   .     S
C1076  O1164   1.412   .     S
C1076  H1145   1.097   .     S
C1076  C1077   1.525   .     S
C1077  H1147   1.100   .     S
C1077  C1714   1.524   1_545 S
C1077  H1782   1.105   1_545 S
C1078  H1104   1.108   .     S
C1078  H1105   1.107   .     S
C1078  C1395   1.524   .     S
C1078  H1466   1.102   .     S
C1079  C1080   1.534   .     S
C1079  H1106   1.111   .     S
C1079  H1107   1.090   .     S
C1079  O1152   1.408   .     S
C1080  H1109   1.103   .     S
C1080  H1108   1.101   .     S
C1080  C1399   1.526   .     S
C1081  H1110   1.110   .     S
C1081  H1111   1.102   .     S
C1081  H1112   1.108   .     S
C1081  C1716   1.526   1_545 S
C1082  H1113   1.109   .     S
C1082  O1153   1.419   .     S
C1082  H1115   1.106   .     S
C1082  C1402   1.528   .     S
C1083  O1153   1.395   .     S
C1083  C120    1.395   1_556 S
C1084  C1085   1.520   .     S
C1084  H1116   1.101   .     S
C1084  C1718   1.528   1_545 S
C1084  H163    1.101   1_556 S
C1085  H1119   1.110   .     S
C1085  H270    1.101   1_556 S
C1085  H1226   1.111   .     S
C1086  H1121   1.103   .     S
C1086  C1087   1.529   .     S
C1086  O1472   1.411   .     S
C1087  H1123   1.110   .     S
C1087  H1124   1.110   .     S
C1087  C1088   1.526   .     S
C1088  H1128   1.107   .     S
C1088  H1127   1.107   .     S
C1088  H1126   1.107   .     S
C1089  H1129   1.105   .     S
C1089  O1155   1.424   .     S
C1090  H1131   1.094   .     S
C1090  H1132   1.109   .     S
C1090  C1195   1.532   .     S
C1090  C1197   1.509   .     S
C1091  H1133   1.102   .     S
C1091  H1135   1.107   .     S
C1092  H1137   1.102   .     S
C1092  H1138   1.094   .     S
C1093  H1139   1.105   .     S
C1093  C1198   1.536   .     S
C1093  C1201   1.520   .     S
C1093  H1246   1.111   .     S
C1094  O1154   1.401   .     S
C1095  H1141   1.101   .     S
C1095  H1142   1.107   .     S
C1095  H1143   1.105   .     S
C1096  C1415   1.377   .     S
C1096  Cl1419  1.793   .     S
C1097  C1732   1.377   1_545 S
C1097  Cl1738  1.787   1_545 S
C1098  O1160   1.308   .     A
C1098  O1162   1.314   .     A
C1099  O1161   1.302   .     A
C1099  O1163   1.318   .     A
C1100  O1164   1.389   .     S
Cl1101 C1732   1.793   1_545 S
Cl1102 C1415   1.787   .     S
H1122  C132    1.105   1_556 S
H1130  C1195   1.114   .     S
H1134  C1197   1.104   .     S
H1146  C1395   1.105   .     S
H1148  C1714   1.102   1_545 S
N1149  Zn1166  2.067   .     S
N1149  N1256   1.302   .     S
N1149  O1261   1.351   .     S
N1150  Zn1165  2.067   .     S
O1151  Zn1165  1.985   .     S
O1154  C1722   1.411   1_545 S
O1156  C1198   1.403   .     S
O1156  N1256   1.349   .     S
O1157  Zn1166  1.985   .     S
O1158  Zn1166  2.015   .     S
O1159  Zn1165  2.015   .     S
O1160  Zn1165  2.010   .     S
O1161  Zn1166  2.010   .     S
O1162  Zn1166  2.008   .     S
O1163  Zn1165  2.008   .     S
C1167  O1257   1.291   .     A
C1167  O1264   1.320   .     A
C1167  C1202   1.420   .     S
C1168  C1170   1.421   .     A
C1168  C1179   1.404   .     A
C1168  O1258   1.400   .     S
C1169  C1205   1.440   .     S
C1169  C1206   1.409   .     A
C1169  C1171   1.380   .     A
C1170  C1172   1.393   .     A
C1170  C1204   1.439   .     S
C1171  H1209   1.071   .     S
C1171  C1173   1.376   .     A
C1172  H1220   1.086   .     S
C1172  C1174   1.386   .     A
C1173  C1180   1.395   .     A
C1173  C1175   1.405   .     A
C1174  C1181   1.398   .     A
C1174  C1176   1.402   .     A
C1175  C1177   1.426   .     A
C1176  C1179   1.424   .     A
C1176  C221    1.399   1_556 S
C1177  C1200   1.425   .     A
C1177  C1206   1.423   .     A
C1178  O1265   1.320   .     A
C1178  O1263   1.290   .     A
C1178  C1203   1.417   .     S
C1179  C1189   1.417   .     A
C1180  H1231   1.077   .     S
C1181  H1242   1.081   .     S
C1181  C246    1.415   1_556 S
C1182  H1250   1.109   .     S
C1182  O1270   1.412   .     S
C1182  H1251   1.097   .     S
C1182  C1183   1.525   .     S
C1183  H1253   1.100   .     S
C1183  C1820   1.524   1_545 S
C1183  H1888   1.105   1_545 S
C1184  H1210   1.108   .     S
C1184  H1211   1.107   .     S
C1184  C1501   1.524   .     S
C1184  H1572   1.102   .     S
C1185  C1186   1.534   .     S
C1185  H1212   1.111   .     S
C1185  H1213   1.090   .     S
C1185  O1258   1.408   .     S
C1186  H1215   1.103   .     S
C1186  H1214   1.101   .     S
C1186  C1505   1.526   .     S
C1187  H1216   1.110   .     S
C1187  H1217   1.102   .     S
C1187  H1218   1.108   .     S
C1187  C1822   1.526   1_545 S
C1188  H1219   1.109   .     S
C1188  O1259   1.419   .     S
C1188  H1221   1.106   .     S
C1188  C1508   1.528   .     S
C1189  O1259   1.395   .     S
C1189  C226    1.395   1_556 S
C1190  C1191   1.520   .     S
C1190  H1222   1.101   .     S
C1190  C1824   1.528   1_545 S
C1190  H269    1.101   1_556 S
C1191  H1225   1.110   .     S
C1191  H58     1.101   1_656 S
C1191  H1014   1.111   1_655 S
C1192  H1227   1.103   .     S
C1192  C1193   1.529   .     S
C1192  O1578   1.411   .     S
C1193  H1229   1.110   .     S
C1193  H1230   1.110   .     S
C1193  C1194   1.526   .     S
C1194  H1234   1.107   .     S
C1194  H1233   1.107   .     S
C1194  H1232   1.107   .     S
C1195  H1235   1.105   .     S
C1195  O1261   1.424   .     S
C1196  H1237   1.094   .     S
C1196  H1238   1.109   .     S
C1196  C983    1.532   1_655 S
C1196  C985    1.509   1_655 S
C1197  H1239   1.102   .     S
C1197  H1241   1.107   .     S
C1198  H1243   1.102   .     S
C1198  H1244   1.094   .     S
C1199  H1245   1.105   .     S
C1199  C986    1.536   1_655 S
C1199  C989    1.520   1_655 S
C1199  H1034   1.111   1_655 S
C1200  O1260   1.401   .     S
C1201  H1247   1.101   .     S
C1201  H1248   1.107   .     S
C1201  H1249   1.105   .     S
C1202  C1521   1.377   .     S
C1202  Cl1525  1.793   .     S
C1203  C1838   1.377   1_545 S
C1203  Cl1844  1.787   1_545 S
C1204  O1266   1.308   .     A
C1204  O1268   1.314   .     A
C1205  O1267   1.302   .     A
C1205  O1269   1.318   .     A
C1206  O1270   1.389   .     S
Cl1207 C1838   1.793   1_545 S
Cl1208 C1521   1.787   .     S
H1228  C238    1.105   1_556 S
H1236  C983    1.114   1_655 S
H1240  C985    1.104   1_655 S
H1252  C1501   1.105   .     S
H1254  C1820   1.102   1_545 S
N1255  Zn1272  2.067   .     S
N1255  N1044   1.302   1_655 S
N1255  O1049   1.351   1_655 S
N1256  Zn1271  2.067   .     S
O1257  Zn1271  1.985   .     S
O1260  C1828   1.411   1_545 S
O1262  C986    1.403   1_655 S
O1262  N1044   1.349   1_655 S
O1263  Zn1272  1.985   .     S
O1264  Zn1272  2.015   .     S
O1265  Zn1271  2.015   .     S
O1266  Zn1271  2.010   .     S
O1267  Zn1272  2.010   .     S
O1268  Zn1272  2.008   .     S
O1269  Zn1271  2.008   .     S
C1273  O1363   1.291   .     A
C1273  O1370   1.320   .     A
C1273  C1308   1.420   .     S
C1274  C1276   1.421   .     A
C1274  C1285   1.404   .     A
C1274  O1364   1.400   .     S
C1275  C1311   1.440   .     S
C1275  C1312   1.409   .     A
C1275  C1277   1.380   .     A
C1276  C1278   1.393   .     A
C1276  C1310   1.439   .     S
C1277  H1315   1.071   .     S
C1277  C1279   1.376   .     A
C1278  H1326   1.086   .     S
C1278  C1280   1.386   .     A
C1279  C1286   1.395   .     A
C1279  C1281   1.405   .     A
C1280  C1287   1.398   .     A
C1280  C1282   1.402   .     A
C1281  C1283   1.426   .     A
C1282  C1285   1.424   .     A
C1282  C327    1.399   1_556 S
C1283  C1306   1.425   .     A
C1283  C1312   1.423   .     A
C1284  O1371   1.320   .     A
C1284  O1369   1.290   .     A
C1284  C1309   1.417   .     S
C1285  C1295   1.417   .     A
C1286  H1337   1.077   .     S
C1287  H1348   1.081   .     S
C1287  C352    1.415   1_556 S
C1288  H1356   1.109   .     S
C1288  O1376   1.412   .     S
C1288  H1357   1.097   .     S
C1288  C1289   1.525   .     S
C1289  H1359   1.100   .     S
C1290  H1316   1.108   .     S
C1290  H1317   1.107   .     S
C1290  C1607   1.524   .     S
C1290  H1678   1.102   .     S
C1291  C1292   1.534   .     S
C1291  H1318   1.111   .     S
C1291  H1319   1.090   .     S
C1291  O1364   1.408   .     S
C1292  H1321   1.103   .     S
C1292  H1320   1.101   .     S
C1292  C1611   1.526   .     S
C1293  H1322   1.110   .     S
C1293  H1323   1.102   .     S
C1293  H1324   1.108   .     S
C1294  H1325   1.109   .     S
C1294  O1365   1.419   .     S
C1294  H1327   1.106   .     S
C1294  C1614   1.528   .     S
C1295  O1365   1.395   .     S
C1295  C332    1.395   1_556 S
C1296  C1297   1.520   .     S
C1296  H1328   1.101   .     S
C1296  H375    1.101   1_556 S
C1297  H1331   1.110   .     S
C1297  H482    1.101   1_556 S
C1297  H1438   1.111   .     S
C1298  H1333   1.103   .     S
C1298  C1299   1.529   .     S
C1298  O1684   1.411   .     S
C1299  H1335   1.110   .     S
C1299  H1336   1.110   .     S
C1299  C1300   1.526   .     S
C1300  H1340   1.107   .     S
C1300  H1339   1.107   .     S
C1300  H1338   1.107   .     S
C1301  H1341   1.105   .     S
C1301  O1367   1.424   .     S
C1301  C1514   1.532   1_455 S
C1301  H1554   1.114   1_455 S
C1302  H1343   1.094   .     S
C1302  H1344   1.109   .     S
C1302  C1407   1.532   .     S
C1302  C1409   1.509   .     S
C1303  H1345   1.102   .     S
C1303  H1347   1.107   .     S
C1303  C1514   1.509   1_455 S
C1303  H1558   1.104   1_455 S
C1304  H1349   1.102   .     S
C1304  H1350   1.094   .     S
C1304  C1517   1.536   1_455 S
C1304  O1580   1.403   1_455 S
C1305  H1351   1.105   .     S
C1305  C1410   1.536   .     S
C1305  C1413   1.520   .     S
C1305  H1458   1.111   .     S
C1306  O1366   1.401   .     S
C1307  H1353   1.101   .     S
C1307  H1354   1.107   .     S
C1307  H1355   1.105   .     S
C1307  C1517   1.520   1_455 S
C1308  C1627   1.377   .     S
C1308  Cl1631  1.793   .     S
C1310  O1372   1.308   .     A
C1310  O1374   1.314   .     A
C1311  O1373   1.302   .     A
C1311  O1375   1.318   .     A
C1312  O1376   1.389   .     S
Cl1314 C1627   1.787   .     S
H1330  C555    1.101   1_455 S
H1332  C1509   1.111   1_455 S
H1334  C344    1.105   1_556 S
H1342  C1407   1.114   .     S
H1346  C1409   1.104   .     S
H1352  C1517   1.111   1_455 S
H1358  C1607   1.105   .     S
N1361  Zn1378  2.067   .     S
N1361  N1468   1.302   .     S
N1361  O1473   1.351   .     S
N1362  Zn1377  2.067   .     S
N1362  N1573   1.302   1_455 S
N1362  O1580   1.349   1_455 S
O1363  Zn1377  1.985   .     S
O1367  N1573   1.351   1_455 S
O1368  C1410   1.403   .     S
O1368  N1468   1.349   .     S
O1369  Zn1378  1.985   .     S
O1370  Zn1378  2.015   .     S
O1371  Zn1377  2.015   .     S
O1372  Zn1377  2.010   .     S
O1373  Zn1378  2.010   .     S
O1374  Zn1378  2.008   .     S
O1375  Zn1377  2.008   .     S
C1379  O1469   1.291   .     A
C1379  O1476   1.320   .     A
C1379  C1414   1.420   .     S
C1380  C1382   1.421   .     A
C1380  C1391   1.404   .     A
C1380  O1470   1.400   .     S
C1381  C1417   1.440   .     S
C1381  C1418   1.409   .     A
C1381  C1383   1.380   .     A
C1382  C1384   1.393   .     A
C1382  C1416   1.439   .     S
C1383  H1421   1.071   .     S
C1383  C1385   1.376   .     A
C1384  H1432   1.086   .     S
C1384  C1386   1.386   .     A
C1385  C1392   1.395   .     A
C1385  C1387   1.405   .     A
C1386  C1393   1.398   .     A
C1386  C1388   1.402   .     A
C1387  C1389   1.426   .     A
C1388  C1391   1.424   .     A
C1388  C433    1.399   1_556 S
C1389  C1412   1.425   .     A
C1389  C1418   1.423   .     A
C1390  O1477   1.320   .     A
C1390  O1475   1.290   .     A
C1390  C1415   1.417   .     S
C1391  C1401   1.417   .     A
C1392  H1443   1.077   .     S
C1393  H1454   1.081   .     S
C1393  C458    1.415   1_556 S
C1394  H1462   1.109   .     S
C1394  O1482   1.412   .     S
C1394  H1463   1.097   .     S
C1394  C1395   1.525   .     S
C1395  H1465   1.100   .     S
C1396  H1422   1.108   .     S
C1396  H1423   1.107   .     S
C1396  C1713   1.524   .     S
C1396  H1784   1.102   .     S
C1397  C1398   1.534   .     S
C1397  H1424   1.111   .     S
C1397  H1425   1.090   .     S
C1397  O1470   1.408   .     S
C1398  H1427   1.103   .     S
C1398  H1426   1.101   .     S
C1398  C1717   1.526   .     S
C1399  H1428   1.110   .     S
C1399  H1429   1.102   .     S
C1399  H1430   1.108   .     S
C1400  H1431   1.109   .     S
C1400  O1471   1.419   .     S
C1400  H1433   1.106   .     S
C1400  C1720   1.528   .     S
C1401  O1471   1.395   .     S
C1401  C438    1.395   1_556 S
C1402  C1403   1.520   .     S
C1402  H1434   1.101   .     S
C1402  H481    1.101   1_556 S
C1403  H1437   1.110   .     S
C1403  H588    1.101   1_556 S
C1403  H1544   1.111   .     S
C1404  H1439   1.103   .     S
C1404  C1405   1.529   .     S
C1404  O1790   1.411   .     S
C1405  H1441   1.110   .     S
C1405  H1442   1.110   .     S
C1405  C1406   1.526   .     S
C1406  H1446   1.107   .     S
C1406  H1445   1.107   .     S
C1406  H1444   1.107   .     S
C1407  H1447   1.105   .     S
C1407  O1473   1.424   .     S
C1408  H1449   1.094   .     S
C1408  H1450   1.109   .     S
C1408  C1513   1.532   .     S
C1408  C1515   1.509   .     S
C1409  H1451   1.102   .     S
C1409  H1453   1.107   .     S
C1410  H1455   1.102   .     S
C1410  H1456   1.094   .     S
C1411  H1457   1.105   .     S
C1411  C1516   1.536   .     S
C1411  C1519   1.520   .     S
C1411  H1564   1.111   .     S
C1412  O1472   1.401   .     S
C1413  H1459   1.101   .     S
C1413  H1460   1.107   .     S
C1413  H1461   1.105   .     S
C1414  C1733   1.377   .     S
C1414  Cl1737  1.793   .     S
C1416  O1478   1.308   .     A
C1416  O1480   1.314   .     A
C1417  O1479   1.302   .     A
C1417  O1481   1.318   .     A
C1418  O1482   1.389   .     S
Cl1420 C1733   1.787   .     S
H1440  C450    1.105   1_556 S
H1448  C1513   1.114   .     S
H1452  C1515   1.104   .     S
H1464  C1713   1.105   .     S
N1467  Zn1484  2.067   .     S
N1467  N1574   1.302   .     S
N1467  O1579   1.351   .     S
N1468  Zn1483  2.067   .     S
O1469  Zn1483  1.985   .     S
O1474  C1516   1.403   .     S
O1474  N1574   1.349   .     S
O1475  Zn1484  1.985   .     S
O1476  Zn1484  2.015   .     S
O1477  Zn1483  2.015   .     S
O1478  Zn1483  2.010   .     S
O1479  Zn1484  2.010   .     S
O1480  Zn1484  2.008   .     S
O1481  Zn1483  2.008   .     S
C1485  O1575   1.291   .     A
C1485  O1582   1.320   .     A
C1485  C1520   1.420   .     S
C1486  C1488   1.421   .     A
C1486  C1497   1.404   .     A
C1486  O1576   1.400   .     S
C1487  C1523   1.440   .     S
C1487  C1524   1.409   .     A
C1487  C1489   1.380   .     A
C1488  C1490   1.393   .     A
C1488  C1522   1.439   .     S
C1489  H1527   1.071   .     S
C1489  C1491   1.376   .     A
C1490  H1538   1.086   .     S
C1490  C1492   1.386   .     A
C1491  C1498   1.395   .     A
C1491  C1493   1.405   .     A
C1492  C1499   1.398   .     A
C1492  C1494   1.402   .     A
C1493  C1495   1.426   .     A
C1494  C1497   1.424   .     A
C1494  C539    1.399   1_556 S
C1495  C1518   1.425   .     A
C1495  C1524   1.423   .     A
C1496  O1583   1.320   .     A
C1496  O1581   1.290   .     A
C1496  C1521   1.417   .     S
C1497  C1507   1.417   .     A
C1498  H1549   1.077   .     S
C1499  H1560   1.081   .     S
C1499  C564    1.415   1_556 S
C1500  H1568   1.109   .     S
C1500  O1588   1.412   .     S
C1500  H1569   1.097   .     S
C1500  C1501   1.525   .     S
C1501  H1571   1.100   .     S
C1502  H1528   1.108   .     S
C1502  H1529   1.107   .     S
C1502  C1819   1.524   .     S
C1502  H1890   1.102   .     S
C1503  C1504   1.534   .     S
C1503  H1530   1.111   .     S
C1503  H1531   1.090   .     S
C1503  O1576   1.408   .     S
C1504  H1533   1.103   .     S
C1504  H1532   1.101   .     S
C1504  C1823   1.526   .     S
C1505  H1534   1.110   .     S
C1505  H1535   1.102   .     S
C1505  H1536   1.108   .     S
C1506  H1537   1.109   .     S
C1506  O1577   1.419   .     S
C1506  H1539   1.106   .     S
C1506  C1826   1.528   .     S
C1507  O1577   1.395   .     S
C1507  C544    1.395   1_556 S
C1508  C1509   1.520   .     S
C1508  H1540   1.101   .     S
C1508  H587    1.101   1_556 S
C1509  H1543   1.110   .     S
C1509  H376    1.101   1_656 S
C1509  H1332   1.111   1_655 S
C1510  H1545   1.103   .     S
C1510  C1511   1.529   .     S
C1510  O1896   1.411   .     S
C1511  H1547   1.110   .     S
C1511  H1548   1.110   .     S
C1511  C1512   1.526   .     S
C1512  H1552   1.107   .     S
C1512  H1551   1.107   .     S
C1512  H1550   1.107   .     S
C1513  H1553   1.105   .     S
C1513  O1579   1.424   .     S
C1514  H1555   1.094   .     S
C1514  H1556   1.109   .     S
C1514  C1301   1.532   1_655 S
C1514  C1303   1.509   1_655 S
C1515  H1557   1.102   .     S
C1515  H1559   1.107   .     S
C1516  H1561   1.102   .     S
C1516  H1562   1.094   .     S
C1517  H1563   1.105   .     S
C1517  C1304   1.536   1_655 S
C1517  C1307   1.520   1_655 S
C1517  H1352   1.111   1_655 S
C1518  O1578   1.401   .     S
C1519  H1565   1.101   .     S
C1519  H1566   1.107   .     S
C1519  H1567   1.105   .     S
C1520  C1839   1.377   .     S
C1520  Cl1843  1.793   .     S
C1522  O1584   1.308   .     A
C1522  O1586   1.314   .     A
C1523  O1585   1.302   .     A
C1523  O1587   1.318   .     A
C1524  O1588   1.389   .     S
Cl1526 C1839   1.787   .     S
H1546  C556    1.105   1_556 S
H1554  C1301   1.114   1_655 S
H1558  C1303   1.104   1_655 S
H1570  C1819   1.105   .     S
N1573  Zn1590  2.067   .     S
N1573  N1362   1.302   1_655 S
N1573  O1367   1.351   1_655 S
N1574  Zn1589  2.067   .     S
O1575  Zn1589  1.985   .     S
O1580  C1304   1.403   1_655 S
O1580  N1362   1.349   1_655 S
O1581  Zn1590  1.985   .     S
O1582  Zn1590  2.015   .     S
O1583  Zn1589  2.015   .     S
O1584  Zn1589  2.010   .     S
O1585  Zn1590  2.010   .     S
O1586  Zn1590  2.008   .     S
O1587  Zn1589  2.008   .     S
C1591  O1681   1.291   .     A
C1591  O1688   1.320   .     A
C1591  C1626   1.420   .     S
C1592  C1594   1.421   .     A
C1592  C1603   1.404   .     A
C1592  O1682   1.400   .     S
C1593  C1629   1.440   .     S
C1593  C1630   1.409   .     A
C1593  C1595   1.380   .     A
C1594  C1596   1.393   .     A
C1594  C1628   1.439   .     S
C1595  H1633   1.071   .     S
C1595  C1597   1.376   .     A
C1596  H1644   1.086   .     S
C1596  C1598   1.386   .     A
C1597  C1604   1.395   .     A
C1597  C1599   1.405   .     A
C1598  C1605   1.398   .     A
C1598  C1600   1.402   .     A
C1599  C1601   1.426   .     A
C1600  C1603   1.424   .     A
C1600  C645    1.399   1_556 S
C1601  C1624   1.425   .     A
C1601  C1630   1.423   .     A
C1602  O1689   1.320   .     A
C1602  O1687   1.290   .     A
C1602  C1627   1.417   .     S
C1603  C1613   1.417   .     A
C1604  H1655   1.077   .     S
C1605  H1666   1.081   .     S
C1605  C670    1.415   1_556 S
C1606  H1674   1.109   .     S
C1606  O1694   1.412   .     S
C1606  H1675   1.097   .     S
C1606  C1607   1.525   .     S
C1607  H1677   1.100   .     S
C1608  H1634   1.108   .     S
C1608  H1635   1.107   .     S
C1608  C971    1.524   1_565 S
C1608  H1042   1.102   1_565 S
C1609  C1610   1.534   .     S
C1609  H1636   1.111   .     S
C1609  H1637   1.090   .     S
C1609  O1682   1.408   .     S
C1610  H1639   1.103   .     S
C1610  H1638   1.101   .     S
C1610  C975    1.526   1_565 S
C1611  H1640   1.110   .     S
C1611  H1641   1.102   .     S
C1611  H1642   1.108   .     S
C1612  H1643   1.109   .     S
C1612  O1683   1.419   .     S
C1612  H1645   1.106   .     S
C1612  C978    1.528   1_565 S
C1613  O1683   1.395   .     S
C1613  C650    1.395   1_556 S
C1614  C1615   1.520   .     S
C1614  H1646   1.101   .     S
C1614  H693    1.101   1_556 S
C1615  H1649   1.110   .     S
C1615  H800    1.101   1_556 S
C1615  H1756   1.111   .     S
C1616  H1651   1.103   .     S
C1616  C1617   1.529   .     S
C1616  O1048   1.411   1_565 S
C1617  H1653   1.110   .     S
C1617  H1654   1.110   .     S
C1617  C1618   1.526   .     S
C1618  H1658   1.107   .     S
C1618  H1657   1.107   .     S
C1618  H1656   1.107   .     S
C1619  H1659   1.105   .     S
C1619  O1685   1.424   .     S
C1619  C1832   1.532   1_455 S
C1619  H1872   1.114   1_455 S
C1620  H1661   1.094   .     S
C1620  H1662   1.109   .     S
C1620  C1725   1.532   .     S
C1620  C1727   1.509   .     S
C1621  H1663   1.102   .     S
C1621  H1665   1.107   .     S
C1621  C1832   1.509   1_455 S
C1621  H1876   1.104   1_455 S
C1622  H1667   1.102   .     S
C1622  H1668   1.094   .     S
C1622  C1835   1.536   1_455 S
C1622  O1898   1.403   1_455 S
C1623  H1669   1.105   .     S
C1623  C1728   1.536   .     S
C1623  C1731   1.520   .     S
C1623  H1776   1.111   .     S
C1624  O1684   1.401   .     S
C1625  H1671   1.101   .     S
C1625  H1672   1.107   .     S
C1625  H1673   1.105   .     S
C1625  C1835   1.520   1_455 S
C1626  C991    1.377   1_565 S
C1626  Cl995   1.793   1_565 S
C1628  O1690   1.308   .     A
C1628  O1692   1.314   .     A
C1629  O1691   1.302   .     A
C1629  O1693   1.318   .     A
C1630  O1694   1.389   .     S
Cl1632 C991    1.787   1_565 S
H1648  C873    1.101   1_455 S
H1650  C1827   1.111   1_455 S
H1652  C662    1.105   1_556 S
H1660  C1725   1.114   .     S
H1664  C1727   1.104   .     S
H1670  C1835   1.111   1_455 S
H1676  C971    1.105   1_565 S
N1679  Zn1696  2.067   .     S
N1679  N1786   1.302   .     S
N1679  O1791   1.351   .     S
N1680  Zn1695  2.067   .     S
N1680  N1891   1.302   1_455 S
N1680  O1898   1.349   1_455 S
O1681  Zn1695  1.985   .     S
O1685  N1891   1.351   1_455 S
O1686  C1728   1.403   .     S
O1686  N1786   1.349   .     S
O1687  Zn1696  1.985   .     S
O1688  Zn1696  2.015   .     S
O1689  Zn1695  2.015   .     S
O1690  Zn1695  2.010   .     S
O1691  Zn1696  2.010   .     S
O1692  Zn1696  2.008   .     S
O1693  Zn1695  2.008   .     S
C1697  O1787   1.291   .     A
C1697  O1794   1.320   .     A
C1697  C1732   1.420   .     S
C1698  C1700   1.421   .     A
C1698  C1709   1.404   .     A
C1698  O1788   1.400   .     S
C1699  C1735   1.440   .     S
C1699  C1736   1.409   .     A
C1699  C1701   1.380   .     A
C1700  C1702   1.393   .     A
C1700  C1734   1.439   .     S
C1701  H1739   1.071   .     S
C1701  C1703   1.376   .     A
C1702  H1750   1.086   .     S
C1702  C1704   1.386   .     A
C1703  C1710   1.395   .     A
C1703  C1705   1.405   .     A
C1704  C1711   1.398   .     A
C1704  C1706   1.402   .     A
C1705  C1707   1.426   .     A
C1706  C1709   1.424   .     A
C1706  C751    1.399   1_556 S
C1707  C1730   1.425   .     A
C1707  C1736   1.423   .     A
C1708  O1795   1.320   .     A
C1708  O1793   1.290   .     A
C1708  C1733   1.417   .     S
C1709  C1719   1.417   .     A
C1710  H1761   1.077   .     S
C1711  H1772   1.081   .     S
C1711  C776    1.415   1_556 S
C1712  H1780   1.109   .     S
C1712  O1800   1.412   .     S
C1712  H1781   1.097   .     S
C1712  C1713   1.525   .     S
C1713  H1783   1.100   .     S
C1714  H1740   1.108   .     S
C1714  H1741   1.107   .     S
C1714  C1077   1.524   1_565 S
C1714  H1148   1.102   1_565 S
C1715  C1716   1.534   .     S
C1715  H1742   1.111   .     S
C1715  H1743   1.090   .     S
C1715  O1788   1.408   .     S
C1716  H1745   1.103   .     S
C1716  H1744   1.101   .     S
C1716  C1081   1.526   1_565 S
C1717  H1746   1.110   .     S
C1717  H1747   1.102   .     S
C1717  H1748   1.108   .     S
C1718  H1749   1.109   .     S
C1718  O1789   1.419   .     S
C1718  H1751   1.106   .     S
C1718  C1084   1.528   1_565 S
C1719  O1789   1.395   .     S
C1719  C756    1.395   1_556 S
C1720  C1721   1.520   .     S
C1720  H1752   1.101   .     S
C1720  H799    1.101   1_556 S
C1721  H1755   1.110   .     S
C1721  H906    1.101   1_556 S
C1721  H1862   1.111   .     S
C1722  H1757   1.103   .     S
C1722  C1723   1.529   .     S
C1722  O1154   1.411   1_565 S
C1723  H1759   1.110   .     S
C1723  H1760   1.110   .     S
C1723  C1724   1.526   .     S
C1724  H1764   1.107   .     S
C1724  H1763   1.107   .     S
C1724  H1762   1.107   .     S
C1725  H1765   1.105   .     S
C1725  O1791   1.424   .     S
C1726  H1767   1.094   .     S
C1726  H1768   1.109   .     S
C1726  C1831   1.532   .     S
C1726  C1833   1.509   .     S
C1727  H1769   1.102   .     S
C1727  H1771   1.107   .     S
C1728  H1773   1.102   .     S
C1728  H1774   1.094   .     S
C1729  H1775   1.105   .     S
C1729  C1834   1.536   .     S
C1729  C1837   1.520   .     S
C1729  H1882   1.111   .     S
C1730  O1790   1.401   .     S
C1731  H1777   1.101   .     S
C1731  H1778   1.107   .     S
C1731  H1779   1.105   .     S
C1732  C1097   1.377   1_565 S
C1732  Cl1101  1.793   1_565 S
C1734  O1796   1.308   .     A
C1734  O1798   1.314   .     A
C1735  O1797   1.302   .     A
C1735  O1799   1.318   .     A
C1736  O1800   1.389   .     S
Cl1738 C1097   1.787   1_565 S
H1758  C768    1.105   1_556 S
H1766  C1831   1.114   .     S
H1770  C1833   1.104   .     S
H1782  C1077   1.105   1_565 S
N1785  Zn1802  2.067   .     S
N1785  N1892   1.302   .     S
N1785  O1897   1.351   .     S
N1786  Zn1801  2.067   .     S
O1787  Zn1801  1.985   .     S
O1792  C1834   1.403   .     S
O1792  N1892   1.349   .     S
O1793  Zn1802  1.985   .     S
O1794  Zn1802  2.015   .     S
O1795  Zn1801  2.015   .     S
O1796  Zn1801  2.010   .     S
O1797  Zn1802  2.010   .     S
O1798  Zn1802  2.008   .     S
O1799  Zn1801  2.008   .     S
C1803  O1893   1.291   .     A
C1803  O1900   1.320   .     A
C1803  C1838   1.420   .     S
C1804  C1806   1.421   .     A
C1804  C1815   1.404   .     A
C1804  O1894   1.400   .     S
C1805  C1841   1.440   .     S
C1805  C1842   1.409   .     A
C1805  C1807   1.380   .     A
C1806  C1808   1.393   .     A
C1806  C1840   1.439   .     S
C1807  H1845   1.071   .     S
C1807  C1809   1.376   .     A
C1808  H1856   1.086   .     S
C1808  C1810   1.386   .     A
C1809  C1816   1.395   .     A
C1809  C1811   1.405   .     A
C1810  C1817   1.398   .     A
C1810  C1812   1.402   .     A
C1811  C1813   1.426   .     A
C1812  C1815   1.424   .     A
C1812  C857    1.399   1_556 S
C1813  C1836   1.425   .     A
C1813  C1842   1.423   .     A
C1814  O1901   1.320   .     A
C1814  O1899   1.290   .     A
C1814  C1839   1.417   .     S
C1815  C1825   1.417   .     A
C1816  H1867   1.077   .     S
C1817  H1878   1.081   .     S
C1817  C882    1.415   1_556 S
C1818  H1886   1.109   .     S
C1818  O1906   1.412   .     S
C1818  H1887   1.097   .     S
C1818  C1819   1.525   .     S
C1819  H1889   1.100   .     S
C1820  H1846   1.108   .     S
C1820  H1847   1.107   .     S
C1820  C1183   1.524   1_565 S
C1820  H1254   1.102   1_565 S
C1821  C1822   1.534   .     S
C1821  H1848   1.111   .     S
C1821  H1849   1.090   .     S
C1821  O1894   1.408   .     S
C1822  H1851   1.103   .     S
C1822  H1850   1.101   .     S
C1822  C1187   1.526   1_565 S
C1823  H1852   1.110   .     S
C1823  H1853   1.102   .     S
C1823  H1854   1.108   .     S
C1824  H1855   1.109   .     S
C1824  O1895   1.419   .     S
C1824  H1857   1.106   .     S
C1824  C1190   1.528   1_565 S
C1825  O1895   1.395   .     S
C1825  C862    1.395   1_556 S
C1826  C1827   1.520   .     S
C1826  H1858   1.101   .     S
C1826  H905    1.101   1_556 S
C1827  H1861   1.110   .     S
C1827  H694    1.101   1_656 S
C1827  H1650   1.111   1_655 S
C1828  H1863   1.103   .     S
C1828  C1829   1.529   .     S
C1828  O1260   1.411   1_565 S
C1829  H1865   1.110   .     S
C1829  H1866   1.110   .     S
C1829  C1830   1.526   .     S
C1830  H1870   1.107   .     S
C1830  H1869   1.107   .     S
C1830  H1868   1.107   .     S
C1831  H1871   1.105   .     S
C1831  O1897   1.424   .     S
C1832  H1873   1.094   .     S
C1832  H1874   1.109   .     S
C1832  C1619   1.532   1_655 S
C1832  C1621   1.509   1_655 S
C1833  H1875   1.102   .     S
C1833  H1877   1.107   .     S
C1834  H1879   1.102   .     S
C1834  H1880   1.094   .     S
C1835  H1881   1.105   .     S
C1835  C1622   1.536   1_655 S
C1835  C1625   1.520   1_655 S
C1835  H1670   1.111   1_655 S
C1836  O1896   1.401   .     S
C1837  H1883   1.101   .     S
C1837  H1884   1.107   .     S
C1837  H1885   1.105   .     S
C1838  C1203   1.377   1_565 S
C1838  Cl1207  1.793   1_565 S
C1840  O1902   1.308   .     A
C1840  O1904   1.314   .     A
C1841  O1903   1.302   .     A
C1841  O1905   1.318   .     A
C1842  O1906   1.389   .     S
Cl1844 C1203   1.787   1_565 S
H1864  C874    1.105   1_556 S
H1872  C1619   1.114   1_655 S
H1876  C1621   1.104   1_655 S
H1888  C1183   1.105   1_565 S
N1891  Zn1908  2.067   .     S
N1891  N1680   1.302   1_655 S
N1891  O1685   1.351   1_655 S
N1892  Zn1907  2.067   .     S
O1893  Zn1907  1.985   .     S
O1898  C1622   1.403   1_655 S
O1898  N1680   1.349   1_655 S
O1899  Zn1908  1.985   .     S
O1900  Zn1908  2.015   .     S
O1901  Zn1907  2.015   .     S
O1902  Zn1907  2.010   .     S
O1903  Zn1908  2.010   .     S
O1904  Zn1908  2.008   .     S
O1905  Zn1907  2.008   .     S
