data_str_m3_o1_o17_pcu_sym.92
_audit_creation_date              2020-01-03
_audit_creation_method            'Materials Studio'
_symmetry_space_group_name_H-M    'P1'
_symmetry_Int_Tables_number       1
_symmetry_cell_setting            triclinic
loop_
_symmetry_equiv_pos_as_xyz
  x,y,z
_cell_length_a                    32.1234
_cell_length_b                    29.5255
_cell_length_c                    29.8940
_cell_angle_alpha                 90.1382
_cell_angle_beta                  90.0286
_cell_angle_gamma                 89.9387
loop_
_atom_site_label
_atom_site_type_symbol
_atom_site_fract_x
_atom_site_fract_y
_atom_site_fract_z
_atom_site_U_iso_or_equiv
_atom_site_adp_type
_atom_site_occupancy
Br1    Br    0.24237   0.22360   0.37459   0.00000  Uiso   1.00
Br2    Br    0.09096   0.10974   0.12541   0.00000  Uiso   1.00
C3     C     0.08663   0.16668   0.24995   0.00000  Uiso   1.00
C4     C     0.04249   0.16670   0.24992   0.00000  Uiso   1.00
C5     C     0.19515   0.02401   0.27466   0.00000  Uiso   1.00
C6     C     0.13818   0.30932   0.22534   0.00000  Uiso   1.00
C7     C     0.13817   0.02395   0.22535   0.00000  Uiso   1.00
C8     C     0.19516   0.30938   0.27465   0.00000  Uiso   1.00
C9     C     0.16557   0.16660   0.16349   0.00000  Uiso   1.00
C10    C     0.16776   0.16673   0.33651   0.00000  Uiso   1.00
C11    C     0.19907   0.19220   0.40731   0.00000  Uiso   1.00
C12    C     0.13426   0.14113   0.09269   0.00000  Uiso   1.00
C13    C     0.16899   0.16682   0.38422   0.00000  Uiso   1.00
C14    C     0.24670   0.16665   0.25005   0.00000  Uiso   1.00
C15    C     0.16434   0.16652   0.11578   0.00000  Uiso   1.00
C16    C     0.13926   0.14106   0.40634   0.00000  Uiso   1.00
C17    C     0.19407   0.19227   0.09366   0.00000  Uiso   1.00
C18    C     0.13812   0.14089   0.45246   0.00000  Uiso   1.00
C19    C     0.19521   0.19245   0.04754   0.00000  Uiso   1.00
C20    C     0.16739   0.16673   0.47664   0.00000  Uiso   1.00
C21    C     0.16594   0.16661   0.02336   0.00000  Uiso   1.00
C22    C     0.19814   0.19255   0.45413   0.00000  Uiso   1.00
C23    C     0.13520   0.14079   0.04587   0.00000  Uiso   1.00
C24    C     0.10790   0.11545   0.47460   0.00000  Uiso   1.00
C25    C     0.10637   0.11539   0.02094   0.00000  Uiso   1.00
C26    C     0.22544   0.21788   0.02540   0.00000  Uiso   1.00
C27    C     0.22696   0.21795   0.47906   0.00000  Uiso   1.00
C28    C     0.02136   0.12685   0.23898   0.00000  Uiso   1.00
C29    C     0.31197   0.20648   0.26102   0.00000  Uiso   1.00
C30    C     0.31205   0.12681   0.23909   0.00000  Uiso   1.00
C31    C     0.02129   0.20652   0.26091   0.00000  Uiso   1.00
C32    C     0.29085   0.16664   0.25008   0.00000  Uiso   1.00
H33    H     0.11654   0.12170   0.38739   0.00000  Uiso   1.00
H34    H     0.03754   0.23742   0.26975   0.00000  Uiso   1.00
H35    H     0.21792   0.04220   0.29440   0.00000  Uiso   1.00
H36    H     0.11541   0.29113   0.20560   0.00000  Uiso   1.00
H37    H     0.11537   0.04208   0.20567   0.00000  Uiso   1.00
H38    H     0.21796   0.29126   0.29433   0.00000  Uiso   1.00
H39    H     0.21679   0.21163   0.11261   0.00000  Uiso   1.00
H40    H     0.08536   0.09558   0.45603   0.00000  Uiso   1.00
H41    H     0.24797   0.23775   0.04397   0.00000  Uiso   1.00
H42    H     0.08257   0.09511   0.03670   0.00000  Uiso   1.00
H43    H     0.25077   0.23822   0.46330   0.00000  Uiso   1.00
H44    H     0.03767   0.09597   0.23007   0.00000  Uiso   1.00
H45    H     0.29566   0.23736   0.26993   0.00000  Uiso   1.00
H46    H     0.29579   0.09592   0.23025   0.00000  Uiso   1.00
N47    N     0.16667   0.28573   0.25000   0.00000  Uiso   1.00
N48    N     0.16667   0.04760   0.25000   0.00000  Uiso   1.00
O49    O     0.10559   0.20487   0.24999   0.00000  Uiso   1.00
O50    O     0.22774   0.12846   0.25001   0.00000  Uiso   1.00
O51    O     0.22774   0.20487   0.25001   0.00000  Uiso   1.00
O52    O     0.10559   0.12846   0.24999   0.00000  Uiso   1.00
O53    O     0.16666   0.20489   0.18393   0.00000  Uiso   1.00
O54    O     0.16667   0.12844   0.31607   0.00000  Uiso   1.00
O55    O     0.16667   0.20489   0.31607   0.00000  Uiso   1.00
O56    O     0.16666   0.12844   0.18393   0.00000  Uiso   1.00
Zn57   Zn    0.16667   0.21771   0.25000   0.00000  Uiso   1.00
Zn58   Zn    0.16667   0.11563   0.25000   0.00000  Uiso   1.00
Br59   Br    0.57570   0.22360   0.37459   0.00000  Uiso   1.00
Br60   Br    0.42430   0.10974   0.12541   0.00000  Uiso   1.00
C61    C     0.41996   0.16668   0.24995   0.00000  Uiso   1.00
C62    C     0.37582   0.16670   0.24992   0.00000  Uiso   1.00
C63    C     0.52849   0.02401   0.27466   0.00000  Uiso   1.00
C64    C     0.47151   0.30932   0.22534   0.00000  Uiso   1.00
C65    C     0.47151   0.02395   0.22535   0.00000  Uiso   1.00
C66    C     0.52849   0.30938   0.27465   0.00000  Uiso   1.00
C67    C     0.49890   0.16660   0.16349   0.00000  Uiso   1.00
C68    C     0.50109   0.16673   0.33651   0.00000  Uiso   1.00
C69    C     0.53241   0.19220   0.40731   0.00000  Uiso   1.00
C70    C     0.46759   0.14113   0.09269   0.00000  Uiso   1.00
C71    C     0.50232   0.16682   0.38422   0.00000  Uiso   1.00
C72    C     0.58003   0.16665   0.25005   0.00000  Uiso   1.00
C73    C     0.49768   0.16652   0.11578   0.00000  Uiso   1.00
C74    C     0.47259   0.14106   0.40634   0.00000  Uiso   1.00
C75    C     0.52741   0.19227   0.09366   0.00000  Uiso   1.00
C76    C     0.47145   0.14089   0.45246   0.00000  Uiso   1.00
C77    C     0.52855   0.19245   0.04754   0.00000  Uiso   1.00
C78    C     0.50073   0.16673   0.47664   0.00000  Uiso   1.00
C79    C     0.49927   0.16661   0.02336   0.00000  Uiso   1.00
C80    C     0.53147   0.19255   0.45413   0.00000  Uiso   1.00
C81    C     0.46853   0.14079   0.04587   0.00000  Uiso   1.00
C82    C     0.44123   0.11545   0.47460   0.00000  Uiso   1.00
C83    C     0.43971   0.11539   0.02094   0.00000  Uiso   1.00
C84    C     0.55877   0.21788   0.02540   0.00000  Uiso   1.00
C85    C     0.56029   0.21795   0.47906   0.00000  Uiso   1.00
C86    C     0.35469   0.12685   0.23898   0.00000  Uiso   1.00
C87    C     0.64531   0.20648   0.26102   0.00000  Uiso   1.00
C88    C     0.64538   0.12681   0.23909   0.00000  Uiso   1.00
C89    C     0.35462   0.20652   0.26091   0.00000  Uiso   1.00
C90    C     0.62418   0.16664   0.25008   0.00000  Uiso   1.00
H91    H     0.44987   0.12170   0.38739   0.00000  Uiso   1.00
H92    H     0.37087   0.23742   0.26975   0.00000  Uiso   1.00
H93    H     0.55126   0.04220   0.29440   0.00000  Uiso   1.00
H94    H     0.44874   0.29113   0.20560   0.00000  Uiso   1.00
H95    H     0.44870   0.04208   0.20567   0.00000  Uiso   1.00
H96    H     0.55130   0.29126   0.29433   0.00000  Uiso   1.00
H97    H     0.55013   0.21163   0.11261   0.00000  Uiso   1.00
H98    H     0.41870   0.09558   0.45603   0.00000  Uiso   1.00
H99    H     0.58130   0.23775   0.04397   0.00000  Uiso   1.00
H100   H     0.41590   0.09511   0.03670   0.00000  Uiso   1.00
H101   H     0.58410   0.23822   0.46330   0.00000  Uiso   1.00
H102   H     0.37100   0.09597   0.23007   0.00000  Uiso   1.00
H103   H     0.62899   0.23736   0.26993   0.00000  Uiso   1.00
H104   H     0.62913   0.09592   0.23025   0.00000  Uiso   1.00
N105   N     0.50000   0.28573   0.25000   0.00000  Uiso   1.00
N106   N     0.50000   0.04760   0.25000   0.00000  Uiso   1.00
O107   O     0.43892   0.20487   0.24999   0.00000  Uiso   1.00
O108   O     0.56108   0.12846   0.25001   0.00000  Uiso   1.00
O109   O     0.56108   0.20487   0.25001   0.00000  Uiso   1.00
O110   O     0.43892   0.12846   0.24999   0.00000  Uiso   1.00
O111   O     0.49999   0.20489   0.18393   0.00000  Uiso   1.00
O112   O     0.50001   0.12844   0.31607   0.00000  Uiso   1.00
O113   O     0.50001   0.20489   0.31607   0.00000  Uiso   1.00
O114   O     0.49999   0.12844   0.18393   0.00000  Uiso   1.00
Zn115  Zn    0.50000   0.21771   0.25000   0.00000  Uiso   1.00
Zn116  Zn    0.50000   0.11563   0.25000   0.00000  Uiso   1.00
Br117  Br    0.90904   0.22360   0.37459   0.00000  Uiso   1.00
Br118  Br    0.75763   0.10974   0.12541   0.00000  Uiso   1.00
C119   C     0.75330   0.16668   0.24995   0.00000  Uiso   1.00
C120   C     0.70915   0.16670   0.24992   0.00000  Uiso   1.00
C121   C     0.86182   0.02401   0.27466   0.00000  Uiso   1.00
C122   C     0.80485   0.30932   0.22534   0.00000  Uiso   1.00
C123   C     0.80484   0.02395   0.22535   0.00000  Uiso   1.00
C124   C     0.86183   0.30938   0.27465   0.00000  Uiso   1.00
C125   C     0.83224   0.16660   0.16349   0.00000  Uiso   1.00
C126   C     0.83443   0.16673   0.33651   0.00000  Uiso   1.00
C127   C     0.86574   0.19220   0.40731   0.00000  Uiso   1.00
C128   C     0.80093   0.14113   0.09269   0.00000  Uiso   1.00
C129   C     0.83566   0.16682   0.38422   0.00000  Uiso   1.00
C130   C     0.91337   0.16665   0.25005   0.00000  Uiso   1.00
C131   C     0.83101   0.16652   0.11578   0.00000  Uiso   1.00
C132   C     0.80593   0.14106   0.40634   0.00000  Uiso   1.00
C133   C     0.86074   0.19227   0.09366   0.00000  Uiso   1.00
C134   C     0.80479   0.14089   0.45246   0.00000  Uiso   1.00
C135   C     0.86188   0.19245   0.04754   0.00000  Uiso   1.00
C136   C     0.83406   0.16673   0.47664   0.00000  Uiso   1.00
C137   C     0.83261   0.16661   0.02336   0.00000  Uiso   1.00
C138   C     0.86480   0.19255   0.45413   0.00000  Uiso   1.00
C139   C     0.80186   0.14079   0.04587   0.00000  Uiso   1.00
C140   C     0.77456   0.11545   0.47460   0.00000  Uiso   1.00
C141   C     0.77304   0.11539   0.02094   0.00000  Uiso   1.00
C142   C     0.89210   0.21788   0.02540   0.00000  Uiso   1.00
C143   C     0.89363   0.21795   0.47906   0.00000  Uiso   1.00
C144   C     0.68803   0.12685   0.23898   0.00000  Uiso   1.00
C145   C     0.97864   0.20648   0.26102   0.00000  Uiso   1.00
C146   C     0.97871   0.12681   0.23909   0.00000  Uiso   1.00
C147   C     0.68795   0.20652   0.26091   0.00000  Uiso   1.00
C148   C     0.95751   0.16664   0.25008   0.00000  Uiso   1.00
H149   H     0.78321   0.12170   0.38739   0.00000  Uiso   1.00
H150   H     0.70421   0.23742   0.26975   0.00000  Uiso   1.00
H151   H     0.88459   0.04220   0.29440   0.00000  Uiso   1.00
H152   H     0.78208   0.29113   0.20560   0.00000  Uiso   1.00
H153   H     0.78204   0.04208   0.20567   0.00000  Uiso   1.00
H154   H     0.88463   0.29126   0.29433   0.00000  Uiso   1.00
H155   H     0.88346   0.21163   0.11261   0.00000  Uiso   1.00
H156   H     0.75203   0.09558   0.45603   0.00000  Uiso   1.00
H157   H     0.91464   0.23775   0.04397   0.00000  Uiso   1.00
H158   H     0.74923   0.09511   0.03670   0.00000  Uiso   1.00
H159   H     0.91743   0.23822   0.46330   0.00000  Uiso   1.00
H160   H     0.70434   0.09597   0.23007   0.00000  Uiso   1.00
H161   H     0.96233   0.23736   0.26993   0.00000  Uiso   1.00
H162   H     0.96246   0.09592   0.23025   0.00000  Uiso   1.00
N163   N     0.83333   0.28573   0.25000   0.00000  Uiso   1.00
N164   N     0.83333   0.04760   0.25000   0.00000  Uiso   1.00
O165   O     0.77226   0.20487   0.24999   0.00000  Uiso   1.00
O166   O     0.89441   0.12846   0.25001   0.00000  Uiso   1.00
O167   O     0.89441   0.20487   0.25001   0.00000  Uiso   1.00
O168   O     0.77226   0.12846   0.24999   0.00000  Uiso   1.00
O169   O     0.83333   0.20489   0.18393   0.00000  Uiso   1.00
O170   O     0.83334   0.12844   0.31607   0.00000  Uiso   1.00
O171   O     0.83334   0.20489   0.31607   0.00000  Uiso   1.00
O172   O     0.83333   0.12844   0.18393   0.00000  Uiso   1.00
Zn173  Zn    0.83333   0.21771   0.25000   0.00000  Uiso   1.00
Zn174  Zn    0.83333   0.11563   0.25000   0.00000  Uiso   1.00
Br175  Br    0.24237   0.55693   0.37459   0.00000  Uiso   1.00
Br176  Br    0.09096   0.44307   0.12541   0.00000  Uiso   1.00
C177   C     0.08663   0.50002   0.24995   0.00000  Uiso   1.00
C178   C     0.04249   0.50003   0.24992   0.00000  Uiso   1.00
C179   C     0.19515   0.35734   0.27466   0.00000  Uiso   1.00
C180   C     0.13818   0.64266   0.22534   0.00000  Uiso   1.00
C181   C     0.13817   0.35728   0.22535   0.00000  Uiso   1.00
C182   C     0.19516   0.64272   0.27465   0.00000  Uiso   1.00
C183   C     0.16557   0.49994   0.16349   0.00000  Uiso   1.00
C184   C     0.16776   0.50006   0.33651   0.00000  Uiso   1.00
C185   C     0.19907   0.52553   0.40731   0.00000  Uiso   1.00
C186   C     0.13426   0.47447   0.09269   0.00000  Uiso   1.00
C187   C     0.16899   0.50015   0.38422   0.00000  Uiso   1.00
C188   C     0.24670   0.49998   0.25005   0.00000  Uiso   1.00
C189   C     0.16434   0.49985   0.11578   0.00000  Uiso   1.00
C190   C     0.13926   0.47440   0.40634   0.00000  Uiso   1.00
C191   C     0.19407   0.52560   0.09366   0.00000  Uiso   1.00
C192   C     0.13812   0.47422   0.45246   0.00000  Uiso   1.00
C193   C     0.19521   0.52578   0.04754   0.00000  Uiso   1.00
C194   C     0.16739   0.50006   0.47664   0.00000  Uiso   1.00
C195   C     0.16594   0.49994   0.02336   0.00000  Uiso   1.00
C196   C     0.19814   0.52588   0.45413   0.00000  Uiso   1.00
C197   C     0.13520   0.47412   0.04587   0.00000  Uiso   1.00
C198   C     0.10790   0.44879   0.47460   0.00000  Uiso   1.00
C199   C     0.10637   0.44872   0.02094   0.00000  Uiso   1.00
C200   C     0.22544   0.55121   0.02540   0.00000  Uiso   1.00
C201   C     0.22696   0.55128   0.47906   0.00000  Uiso   1.00
C202   C     0.02136   0.46018   0.23898   0.00000  Uiso   1.00
C203   C     0.31197   0.53982   0.26102   0.00000  Uiso   1.00
C204   C     0.31205   0.46015   0.23909   0.00000  Uiso   1.00
C205   C     0.02129   0.53985   0.26091   0.00000  Uiso   1.00
C206   C     0.29085   0.49997   0.25008   0.00000  Uiso   1.00
H207   H     0.11654   0.45503   0.38739   0.00000  Uiso   1.00
H208   H     0.03754   0.57075   0.26975   0.00000  Uiso   1.00
H209   H     0.21792   0.37553   0.29440   0.00000  Uiso   1.00
H210   H     0.11541   0.62447   0.20560   0.00000  Uiso   1.00
H211   H     0.11537   0.37541   0.20567   0.00000  Uiso   1.00
H212   H     0.21796   0.62459   0.29433   0.00000  Uiso   1.00
H213   H     0.21679   0.54497   0.11261   0.00000  Uiso   1.00
H214   H     0.08536   0.42892   0.45603   0.00000  Uiso   1.00
H215   H     0.24797   0.57108   0.04397   0.00000  Uiso   1.00
H216   H     0.08257   0.42844   0.03670   0.00000  Uiso   1.00
H217   H     0.25077   0.57156   0.46330   0.00000  Uiso   1.00
H218   H     0.03767   0.42931   0.23007   0.00000  Uiso   1.00
H219   H     0.29566   0.57069   0.26993   0.00000  Uiso   1.00
H220   H     0.29579   0.42925   0.23025   0.00000  Uiso   1.00
N221   N     0.16667   0.61907   0.25000   0.00000  Uiso   1.00
N222   N     0.16667   0.38093   0.25000   0.00000  Uiso   1.00
O223   O     0.10559   0.53821   0.24999   0.00000  Uiso   1.00
O224   O     0.22774   0.46179   0.25001   0.00000  Uiso   1.00
O225   O     0.22774   0.53821   0.25001   0.00000  Uiso   1.00
O226   O     0.10559   0.46179   0.24999   0.00000  Uiso   1.00
O227   O     0.16666   0.53823   0.18393   0.00000  Uiso   1.00
O228   O     0.16667   0.46177   0.31607   0.00000  Uiso   1.00
O229   O     0.16667   0.53823   0.31607   0.00000  Uiso   1.00
O230   O     0.16666   0.46177   0.18393   0.00000  Uiso   1.00
Zn231  Zn    0.16667   0.55104   0.25000   0.00000  Uiso   1.00
Zn232  Zn    0.16667   0.44896   0.25000   0.00000  Uiso   1.00
Br233  Br    0.57570   0.55693   0.37459   0.00000  Uiso   1.00
Br234  Br    0.42430   0.44307   0.12541   0.00000  Uiso   1.00
C235   C     0.41996   0.50002   0.24995   0.00000  Uiso   1.00
C236   C     0.37582   0.50003   0.24992   0.00000  Uiso   1.00
C237   C     0.52849   0.35734   0.27466   0.00000  Uiso   1.00
C238   C     0.47151   0.64266   0.22534   0.00000  Uiso   1.00
C239   C     0.47151   0.35728   0.22535   0.00000  Uiso   1.00
C240   C     0.52849   0.64272   0.27465   0.00000  Uiso   1.00
C241   C     0.49890   0.49994   0.16349   0.00000  Uiso   1.00
C242   C     0.50109   0.50006   0.33651   0.00000  Uiso   1.00
C243   C     0.53241   0.52553   0.40731   0.00000  Uiso   1.00
C244   C     0.46759   0.47447   0.09269   0.00000  Uiso   1.00
C245   C     0.50232   0.50015   0.38422   0.00000  Uiso   1.00
C246   C     0.58003   0.49998   0.25005   0.00000  Uiso   1.00
C247   C     0.49768   0.49985   0.11578   0.00000  Uiso   1.00
C248   C     0.47259   0.47440   0.40634   0.00000  Uiso   1.00
C249   C     0.52741   0.52560   0.09366   0.00000  Uiso   1.00
C250   C     0.47145   0.47422   0.45246   0.00000  Uiso   1.00
C251   C     0.52855   0.52578   0.04754   0.00000  Uiso   1.00
C252   C     0.50073   0.50006   0.47664   0.00000  Uiso   1.00
C253   C     0.49927   0.49994   0.02336   0.00000  Uiso   1.00
C254   C     0.53147   0.52588   0.45413   0.00000  Uiso   1.00
C255   C     0.46853   0.47412   0.04587   0.00000  Uiso   1.00
C256   C     0.44123   0.44879   0.47460   0.00000  Uiso   1.00
C257   C     0.43971   0.44872   0.02094   0.00000  Uiso   1.00
C258   C     0.55877   0.55121   0.02540   0.00000  Uiso   1.00
C259   C     0.56029   0.55128   0.47906   0.00000  Uiso   1.00
C260   C     0.35469   0.46018   0.23898   0.00000  Uiso   1.00
C261   C     0.64531   0.53982   0.26102   0.00000  Uiso   1.00
C262   C     0.64538   0.46015   0.23909   0.00000  Uiso   1.00
C263   C     0.35462   0.53985   0.26091   0.00000  Uiso   1.00
C264   C     0.62418   0.49997   0.25008   0.00000  Uiso   1.00
H265   H     0.44987   0.45503   0.38739   0.00000  Uiso   1.00
H266   H     0.37087   0.57075   0.26975   0.00000  Uiso   1.00
H267   H     0.55126   0.37553   0.29440   0.00000  Uiso   1.00
H268   H     0.44874   0.62447   0.20560   0.00000  Uiso   1.00
H269   H     0.44870   0.37541   0.20567   0.00000  Uiso   1.00
H270   H     0.55130   0.62459   0.29433   0.00000  Uiso   1.00
H271   H     0.55013   0.54497   0.11261   0.00000  Uiso   1.00
H272   H     0.41870   0.42892   0.45603   0.00000  Uiso   1.00
H273   H     0.58130   0.57108   0.04397   0.00000  Uiso   1.00
H274   H     0.41590   0.42844   0.03670   0.00000  Uiso   1.00
H275   H     0.58410   0.57156   0.46330   0.00000  Uiso   1.00
H276   H     0.37100   0.42931   0.23007   0.00000  Uiso   1.00
H277   H     0.62899   0.57069   0.26993   0.00000  Uiso   1.00
H278   H     0.62913   0.42925   0.23025   0.00000  Uiso   1.00
N279   N     0.50000   0.61907   0.25000   0.00000  Uiso   1.00
N280   N     0.50000   0.38093   0.25000   0.00000  Uiso   1.00
O281   O     0.43892   0.53821   0.24999   0.00000  Uiso   1.00
O282   O     0.56108   0.46179   0.25001   0.00000  Uiso   1.00
O283   O     0.56108   0.53821   0.25001   0.00000  Uiso   1.00
O284   O     0.43892   0.46179   0.24999   0.00000  Uiso   1.00
O285   O     0.49999   0.53823   0.18393   0.00000  Uiso   1.00
O286   O     0.50001   0.46177   0.31607   0.00000  Uiso   1.00
O287   O     0.50001   0.53823   0.31607   0.00000  Uiso   1.00
O288   O     0.49999   0.46177   0.18393   0.00000  Uiso   1.00
Zn289  Zn    0.50000   0.55104   0.25000   0.00000  Uiso   1.00
Zn290  Zn    0.50000   0.44896   0.25000   0.00000  Uiso   1.00
Br291  Br    0.90904   0.55693   0.37459   0.00000  Uiso   1.00
Br292  Br    0.75763   0.44307   0.12541   0.00000  Uiso   1.00
C293   C     0.75330   0.50002   0.24995   0.00000  Uiso   1.00
C294   C     0.70915   0.50003   0.24992   0.00000  Uiso   1.00
C295   C     0.86182   0.35734   0.27466   0.00000  Uiso   1.00
C296   C     0.80485   0.64266   0.22534   0.00000  Uiso   1.00
C297   C     0.80484   0.35728   0.22535   0.00000  Uiso   1.00
C298   C     0.86183   0.64272   0.27465   0.00000  Uiso   1.00
C299   C     0.83224   0.49994   0.16349   0.00000  Uiso   1.00
C300   C     0.83443   0.50006   0.33651   0.00000  Uiso   1.00
C301   C     0.86574   0.52553   0.40731   0.00000  Uiso   1.00
C302   C     0.80093   0.47447   0.09269   0.00000  Uiso   1.00
C303   C     0.83566   0.50015   0.38422   0.00000  Uiso   1.00
C304   C     0.91337   0.49998   0.25005   0.00000  Uiso   1.00
C305   C     0.83101   0.49985   0.11578   0.00000  Uiso   1.00
C306   C     0.80593   0.47440   0.40634   0.00000  Uiso   1.00
C307   C     0.86074   0.52560   0.09366   0.00000  Uiso   1.00
C308   C     0.80479   0.47422   0.45246   0.00000  Uiso   1.00
C309   C     0.86188   0.52578   0.04754   0.00000  Uiso   1.00
C310   C     0.83406   0.50006   0.47664   0.00000  Uiso   1.00
C311   C     0.83261   0.49994   0.02336   0.00000  Uiso   1.00
C312   C     0.86480   0.52588   0.45413   0.00000  Uiso   1.00
C313   C     0.80186   0.47412   0.04587   0.00000  Uiso   1.00
C314   C     0.77456   0.44879   0.47460   0.00000  Uiso   1.00
C315   C     0.77304   0.44872   0.02094   0.00000  Uiso   1.00
C316   C     0.89210   0.55121   0.02540   0.00000  Uiso   1.00
C317   C     0.89363   0.55128   0.47906   0.00000  Uiso   1.00
C318   C     0.68803   0.46018   0.23898   0.00000  Uiso   1.00
C319   C     0.97864   0.53982   0.26102   0.00000  Uiso   1.00
C320   C     0.97871   0.46015   0.23909   0.00000  Uiso   1.00
C321   C     0.68795   0.53985   0.26091   0.00000  Uiso   1.00
C322   C     0.95751   0.49997   0.25008   0.00000  Uiso   1.00
H323   H     0.78321   0.45503   0.38739   0.00000  Uiso   1.00
H324   H     0.70421   0.57075   0.26975   0.00000  Uiso   1.00
H325   H     0.88459   0.37553   0.29440   0.00000  Uiso   1.00
H326   H     0.78208   0.62447   0.20560   0.00000  Uiso   1.00
H327   H     0.78204   0.37541   0.20567   0.00000  Uiso   1.00
H328   H     0.88463   0.62459   0.29433   0.00000  Uiso   1.00
H329   H     0.88346   0.54497   0.11261   0.00000  Uiso   1.00
H330   H     0.75203   0.42892   0.45603   0.00000  Uiso   1.00
H331   H     0.91464   0.57108   0.04397   0.00000  Uiso   1.00
H332   H     0.74923   0.42844   0.03670   0.00000  Uiso   1.00
H333   H     0.91743   0.57156   0.46330   0.00000  Uiso   1.00
H334   H     0.70434   0.42931   0.23007   0.00000  Uiso   1.00
H335   H     0.96233   0.57069   0.26993   0.00000  Uiso   1.00
H336   H     0.96246   0.42925   0.23025   0.00000  Uiso   1.00
N337   N     0.83333   0.61907   0.25000   0.00000  Uiso   1.00
N338   N     0.83333   0.38093   0.25000   0.00000  Uiso   1.00
O339   O     0.77226   0.53821   0.24999   0.00000  Uiso   1.00
O340   O     0.89441   0.46179   0.25001   0.00000  Uiso   1.00
O341   O     0.89441   0.53821   0.25001   0.00000  Uiso   1.00
O342   O     0.77226   0.46179   0.24999   0.00000  Uiso   1.00
O343   O     0.83333   0.53823   0.18393   0.00000  Uiso   1.00
O344   O     0.83334   0.46177   0.31607   0.00000  Uiso   1.00
O345   O     0.83334   0.53823   0.31607   0.00000  Uiso   1.00
O346   O     0.83333   0.46177   0.18393   0.00000  Uiso   1.00
Zn347  Zn    0.83333   0.55104   0.25000   0.00000  Uiso   1.00
Zn348  Zn    0.83333   0.44896   0.25000   0.00000  Uiso   1.00
Br349  Br    0.24237   0.89026   0.37459   0.00000  Uiso   1.00
Br350  Br    0.09096   0.77640   0.12541   0.00000  Uiso   1.00
C351   C     0.08663   0.83335   0.24995   0.00000  Uiso   1.00
C352   C     0.04249   0.83336   0.24992   0.00000  Uiso   1.00
C353   C     0.19515   0.69068   0.27466   0.00000  Uiso   1.00
C354   C     0.13818   0.97599   0.22534   0.00000  Uiso   1.00
C355   C     0.13817   0.69062   0.22535   0.00000  Uiso   1.00
C356   C     0.19516   0.97605   0.27465   0.00000  Uiso   1.00
C357   C     0.16557   0.83327   0.16349   0.00000  Uiso   1.00
C358   C     0.16776   0.83340   0.33651   0.00000  Uiso   1.00
C359   C     0.19907   0.85887   0.40731   0.00000  Uiso   1.00
C360   C     0.13426   0.80780   0.09269   0.00000  Uiso   1.00
C361   C     0.16899   0.83348   0.38422   0.00000  Uiso   1.00
C362   C     0.24670   0.83332   0.25005   0.00000  Uiso   1.00
C363   C     0.16434   0.83318   0.11578   0.00000  Uiso   1.00
C364   C     0.13926   0.80773   0.40634   0.00000  Uiso   1.00
C365   C     0.19407   0.85894   0.09366   0.00000  Uiso   1.00
C366   C     0.13812   0.80755   0.45246   0.00000  Uiso   1.00
C367   C     0.19521   0.85911   0.04754   0.00000  Uiso   1.00
C368   C     0.16739   0.83339   0.47664   0.00000  Uiso   1.00
C369   C     0.16594   0.83327   0.02336   0.00000  Uiso   1.00
C370   C     0.19814   0.85921   0.45413   0.00000  Uiso   1.00
C371   C     0.13520   0.80745   0.04587   0.00000  Uiso   1.00
C372   C     0.10790   0.78212   0.47460   0.00000  Uiso   1.00
C373   C     0.10637   0.78205   0.02094   0.00000  Uiso   1.00
C374   C     0.22544   0.88455   0.02540   0.00000  Uiso   1.00
C375   C     0.22696   0.88461   0.47906   0.00000  Uiso   1.00
C376   C     0.02136   0.79352   0.23898   0.00000  Uiso   1.00
C377   C     0.31197   0.87315   0.26102   0.00000  Uiso   1.00
C378   C     0.31205   0.79348   0.23909   0.00000  Uiso   1.00
C379   C     0.02129   0.87319   0.26091   0.00000  Uiso   1.00
C380   C     0.29085   0.83330   0.25008   0.00000  Uiso   1.00
H381   H     0.11654   0.78837   0.38739   0.00000  Uiso   1.00
H382   H     0.03754   0.90408   0.26975   0.00000  Uiso   1.00
H383   H     0.21792   0.70887   0.29440   0.00000  Uiso   1.00
H384   H     0.11541   0.95780   0.20560   0.00000  Uiso   1.00
H385   H     0.11537   0.70874   0.20567   0.00000  Uiso   1.00
H386   H     0.21796   0.95792   0.29433   0.00000  Uiso   1.00
H387   H     0.21679   0.87830   0.11261   0.00000  Uiso   1.00
H388   H     0.08536   0.76225   0.45603   0.00000  Uiso   1.00
H389   H     0.24797   0.90441   0.04397   0.00000  Uiso   1.00
H390   H     0.08257   0.76178   0.03670   0.00000  Uiso   1.00
H391   H     0.25077   0.90489   0.46330   0.00000  Uiso   1.00
H392   H     0.03767   0.76264   0.23007   0.00000  Uiso   1.00
H393   H     0.29566   0.90403   0.26993   0.00000  Uiso   1.00
H394   H     0.29579   0.76258   0.23025   0.00000  Uiso   1.00
N395   N     0.16667   0.95240   0.25000   0.00000  Uiso   1.00
N396   N     0.16667   0.71427   0.25000   0.00000  Uiso   1.00
O397   O     0.10559   0.87154   0.24999   0.00000  Uiso   1.00
O398   O     0.22774   0.79513   0.25001   0.00000  Uiso   1.00
O399   O     0.22774   0.87154   0.25001   0.00000  Uiso   1.00
O400   O     0.10559   0.79513   0.24999   0.00000  Uiso   1.00
O401   O     0.16666   0.87156   0.18393   0.00000  Uiso   1.00
O402   O     0.16667   0.79511   0.31607   0.00000  Uiso   1.00
O403   O     0.16667   0.87156   0.31607   0.00000  Uiso   1.00
O404   O     0.16666   0.79511   0.18393   0.00000  Uiso   1.00
Zn405  Zn    0.16667   0.88437   0.25000   0.00000  Uiso   1.00
Zn406  Zn    0.16667   0.78229   0.25000   0.00000  Uiso   1.00
Br407  Br    0.57570   0.89026   0.37459   0.00000  Uiso   1.00
Br408  Br    0.42430   0.77640   0.12541   0.00000  Uiso   1.00
C409   C     0.41996   0.83335   0.24995   0.00000  Uiso   1.00
C410   C     0.37582   0.83336   0.24992   0.00000  Uiso   1.00
C411   C     0.52849   0.69068   0.27466   0.00000  Uiso   1.00
C412   C     0.47151   0.97599   0.22534   0.00000  Uiso   1.00
C413   C     0.47151   0.69062   0.22535   0.00000  Uiso   1.00
C414   C     0.52849   0.97605   0.27465   0.00000  Uiso   1.00
C415   C     0.49890   0.83327   0.16349   0.00000  Uiso   1.00
C416   C     0.50109   0.83340   0.33651   0.00000  Uiso   1.00
C417   C     0.53241   0.85887   0.40731   0.00000  Uiso   1.00
C418   C     0.46759   0.80780   0.09269   0.00000  Uiso   1.00
C419   C     0.50232   0.83348   0.38422   0.00000  Uiso   1.00
C420   C     0.58003   0.83332   0.25005   0.00000  Uiso   1.00
C421   C     0.49768   0.83318   0.11578   0.00000  Uiso   1.00
C422   C     0.47259   0.80773   0.40634   0.00000  Uiso   1.00
C423   C     0.52741   0.85894   0.09366   0.00000  Uiso   1.00
C424   C     0.47145   0.80755   0.45246   0.00000  Uiso   1.00
C425   C     0.52855   0.85911   0.04754   0.00000  Uiso   1.00
C426   C     0.50073   0.83339   0.47664   0.00000  Uiso   1.00
C427   C     0.49927   0.83327   0.02336   0.00000  Uiso   1.00
C428   C     0.53147   0.85921   0.45413   0.00000  Uiso   1.00
C429   C     0.46853   0.80745   0.04587   0.00000  Uiso   1.00
C430   C     0.44123   0.78212   0.47460   0.00000  Uiso   1.00
C431   C     0.43971   0.78205   0.02094   0.00000  Uiso   1.00
C432   C     0.55877   0.88455   0.02540   0.00000  Uiso   1.00
C433   C     0.56029   0.88461   0.47906   0.00000  Uiso   1.00
C434   C     0.35469   0.79352   0.23898   0.00000  Uiso   1.00
C435   C     0.64531   0.87315   0.26102   0.00000  Uiso   1.00
C436   C     0.64538   0.79348   0.23909   0.00000  Uiso   1.00
C437   C     0.35462   0.87319   0.26091   0.00000  Uiso   1.00
C438   C     0.62418   0.83330   0.25008   0.00000  Uiso   1.00
H439   H     0.44987   0.78837   0.38739   0.00000  Uiso   1.00
H440   H     0.37087   0.90408   0.26975   0.00000  Uiso   1.00
H441   H     0.55126   0.70887   0.29440   0.00000  Uiso   1.00
H442   H     0.44874   0.95780   0.20560   0.00000  Uiso   1.00
H443   H     0.44870   0.70874   0.20567   0.00000  Uiso   1.00
H444   H     0.55130   0.95792   0.29433   0.00000  Uiso   1.00
H445   H     0.55013   0.87830   0.11261   0.00000  Uiso   1.00
H446   H     0.41870   0.76225   0.45603   0.00000  Uiso   1.00
H447   H     0.58130   0.90441   0.04397   0.00000  Uiso   1.00
H448   H     0.41590   0.76178   0.03670   0.00000  Uiso   1.00
H449   H     0.58410   0.90489   0.46330   0.00000  Uiso   1.00
H450   H     0.37100   0.76264   0.23007   0.00000  Uiso   1.00
H451   H     0.62899   0.90403   0.26993   0.00000  Uiso   1.00
H452   H     0.62913   0.76258   0.23025   0.00000  Uiso   1.00
N453   N     0.50000   0.95240   0.25000   0.00000  Uiso   1.00
N454   N     0.50000   0.71427   0.25000   0.00000  Uiso   1.00
O455   O     0.43892   0.87154   0.24999   0.00000  Uiso   1.00
O456   O     0.56108   0.79513   0.25001   0.00000  Uiso   1.00
O457   O     0.56108   0.87154   0.25001   0.00000  Uiso   1.00
O458   O     0.43892   0.79513   0.24999   0.00000  Uiso   1.00
O459   O     0.49999   0.87156   0.18393   0.00000  Uiso   1.00
O460   O     0.50001   0.79511   0.31607   0.00000  Uiso   1.00
O461   O     0.50001   0.87156   0.31607   0.00000  Uiso   1.00
O462   O     0.49999   0.79511   0.18393   0.00000  Uiso   1.00
Zn463  Zn    0.50000   0.88437   0.25000   0.00000  Uiso   1.00
Zn464  Zn    0.50000   0.78229   0.25000   0.00000  Uiso   1.00
Br465  Br    0.90904   0.89026   0.37459   0.00000  Uiso   1.00
Br466  Br    0.75763   0.77640   0.12541   0.00000  Uiso   1.00
C467   C     0.75330   0.83335   0.24995   0.00000  Uiso   1.00
C468   C     0.70915   0.83336   0.24992   0.00000  Uiso   1.00
C469   C     0.86182   0.69068   0.27466   0.00000  Uiso   1.00
C470   C     0.80485   0.97599   0.22534   0.00000  Uiso   1.00
C471   C     0.80484   0.69062   0.22535   0.00000  Uiso   1.00
C472   C     0.86183   0.97605   0.27465   0.00000  Uiso   1.00
C473   C     0.83224   0.83327   0.16349   0.00000  Uiso   1.00
C474   C     0.83443   0.83340   0.33651   0.00000  Uiso   1.00
C475   C     0.86574   0.85887   0.40731   0.00000  Uiso   1.00
C476   C     0.80093   0.80780   0.09269   0.00000  Uiso   1.00
C477   C     0.83566   0.83348   0.38422   0.00000  Uiso   1.00
C478   C     0.91337   0.83332   0.25005   0.00000  Uiso   1.00
C479   C     0.83101   0.83318   0.11578   0.00000  Uiso   1.00
C480   C     0.80593   0.80773   0.40634   0.00000  Uiso   1.00
C481   C     0.86074   0.85894   0.09366   0.00000  Uiso   1.00
C482   C     0.80479   0.80755   0.45246   0.00000  Uiso   1.00
C483   C     0.86188   0.85911   0.04754   0.00000  Uiso   1.00
C484   C     0.83406   0.83339   0.47664   0.00000  Uiso   1.00
C485   C     0.83261   0.83327   0.02336   0.00000  Uiso   1.00
C486   C     0.86480   0.85921   0.45413   0.00000  Uiso   1.00
C487   C     0.80186   0.80745   0.04587   0.00000  Uiso   1.00
C488   C     0.77456   0.78212   0.47460   0.00000  Uiso   1.00
C489   C     0.77304   0.78205   0.02094   0.00000  Uiso   1.00
C490   C     0.89210   0.88455   0.02540   0.00000  Uiso   1.00
C491   C     0.89363   0.88461   0.47906   0.00000  Uiso   1.00
C492   C     0.68803   0.79352   0.23898   0.00000  Uiso   1.00
C493   C     0.97864   0.87315   0.26102   0.00000  Uiso   1.00
C494   C     0.97871   0.79348   0.23909   0.00000  Uiso   1.00
C495   C     0.68795   0.87319   0.26091   0.00000  Uiso   1.00
C496   C     0.95751   0.83330   0.25008   0.00000  Uiso   1.00
H497   H     0.78321   0.78837   0.38739   0.00000  Uiso   1.00
H498   H     0.70421   0.90408   0.26975   0.00000  Uiso   1.00
H499   H     0.88459   0.70887   0.29440   0.00000  Uiso   1.00
H500   H     0.78208   0.95780   0.20560   0.00000  Uiso   1.00
H501   H     0.78204   0.70874   0.20567   0.00000  Uiso   1.00
H502   H     0.88463   0.95792   0.29433   0.00000  Uiso   1.00
H503   H     0.88346   0.87830   0.11261   0.00000  Uiso   1.00
H504   H     0.75203   0.76225   0.45603   0.00000  Uiso   1.00
H505   H     0.91464   0.90441   0.04397   0.00000  Uiso   1.00
H506   H     0.74923   0.76178   0.03670   0.00000  Uiso   1.00
H507   H     0.91743   0.90489   0.46330   0.00000  Uiso   1.00
H508   H     0.70434   0.76264   0.23007   0.00000  Uiso   1.00
H509   H     0.96233   0.90403   0.26993   0.00000  Uiso   1.00
H510   H     0.96246   0.76258   0.23025   0.00000  Uiso   1.00
N511   N     0.83333   0.95240   0.25000   0.00000  Uiso   1.00
N512   N     0.83333   0.71427   0.25000   0.00000  Uiso   1.00
O513   O     0.77226   0.87154   0.24999   0.00000  Uiso   1.00
O514   O     0.89441   0.79513   0.25001   0.00000  Uiso   1.00
O515   O     0.89441   0.87154   0.25001   0.00000  Uiso   1.00
O516   O     0.77226   0.79513   0.24999   0.00000  Uiso   1.00
O517   O     0.83333   0.87156   0.18393   0.00000  Uiso   1.00
O518   O     0.83334   0.79511   0.31607   0.00000  Uiso   1.00
O519   O     0.83334   0.87156   0.31607   0.00000  Uiso   1.00
O520   O     0.83333   0.79511   0.18393   0.00000  Uiso   1.00
Zn521  Zn    0.83333   0.88437   0.25000   0.00000  Uiso   1.00
Zn522  Zn    0.83333   0.78229   0.25000   0.00000  Uiso   1.00
Br523  Br    0.24237   0.22360   0.87459   0.00000  Uiso   1.00
Br524  Br    0.09096   0.10974   0.62541   0.00000  Uiso   1.00
C525   C     0.08663   0.16668   0.74995   0.00000  Uiso   1.00
C526   C     0.04249   0.16670   0.74992   0.00000  Uiso   1.00
C527   C     0.19515   0.02401   0.77466   0.00000  Uiso   1.00
C528   C     0.13818   0.30932   0.72534   0.00000  Uiso   1.00
C529   C     0.13817   0.02395   0.72535   0.00000  Uiso   1.00
C530   C     0.19516   0.30938   0.77465   0.00000  Uiso   1.00
C531   C     0.16557   0.16660   0.66349   0.00000  Uiso   1.00
C532   C     0.16776   0.16673   0.83651   0.00000  Uiso   1.00
C533   C     0.19907   0.19220   0.90731   0.00000  Uiso   1.00
C534   C     0.13426   0.14113   0.59269   0.00000  Uiso   1.00
C535   C     0.16899   0.16682   0.88422   0.00000  Uiso   1.00
C536   C     0.24670   0.16665   0.75005   0.00000  Uiso   1.00
C537   C     0.16434   0.16652   0.61578   0.00000  Uiso   1.00
C538   C     0.13926   0.14106   0.90634   0.00000  Uiso   1.00
C539   C     0.19407   0.19227   0.59366   0.00000  Uiso   1.00
C540   C     0.13812   0.14089   0.95246   0.00000  Uiso   1.00
C541   C     0.19521   0.19245   0.54754   0.00000  Uiso   1.00
C542   C     0.16739   0.16673   0.97664   0.00000  Uiso   1.00
C543   C     0.16594   0.16661   0.52336   0.00000  Uiso   1.00
C544   C     0.19814   0.19255   0.95413   0.00000  Uiso   1.00
C545   C     0.13520   0.14079   0.54587   0.00000  Uiso   1.00
C546   C     0.10790   0.11545   0.97460   0.00000  Uiso   1.00
C547   C     0.10637   0.11539   0.52094   0.00000  Uiso   1.00
C548   C     0.22544   0.21788   0.52540   0.00000  Uiso   1.00
C549   C     0.22696   0.21795   0.97906   0.00000  Uiso   1.00
C550   C     0.02136   0.12685   0.73898   0.00000  Uiso   1.00
C551   C     0.31197   0.20648   0.76102   0.00000  Uiso   1.00
C552   C     0.31205   0.12681   0.73909   0.00000  Uiso   1.00
C553   C     0.02129   0.20652   0.76091   0.00000  Uiso   1.00
C554   C     0.29085   0.16664   0.75008   0.00000  Uiso   1.00
H555   H     0.11654   0.12170   0.88739   0.00000  Uiso   1.00
H556   H     0.03754   0.23742   0.76975   0.00000  Uiso   1.00
H557   H     0.21792   0.04220   0.79440   0.00000  Uiso   1.00
H558   H     0.11541   0.29113   0.70560   0.00000  Uiso   1.00
H559   H     0.11537   0.04208   0.70567   0.00000  Uiso   1.00
H560   H     0.21796   0.29126   0.79433   0.00000  Uiso   1.00
H561   H     0.21679   0.21163   0.61261   0.00000  Uiso   1.00
H562   H     0.08536   0.09558   0.95603   0.00000  Uiso   1.00
H563   H     0.24797   0.23775   0.54397   0.00000  Uiso   1.00
H564   H     0.08257   0.09511   0.53670   0.00000  Uiso   1.00
H565   H     0.25077   0.23822   0.96330   0.00000  Uiso   1.00
H566   H     0.03767   0.09597   0.73007   0.00000  Uiso   1.00
H567   H     0.29566   0.23736   0.76993   0.00000  Uiso   1.00
H568   H     0.29579   0.09592   0.73025   0.00000  Uiso   1.00
N569   N     0.16667   0.28573   0.75000   0.00000  Uiso   1.00
N570   N     0.16667   0.04760   0.75000   0.00000  Uiso   1.00
O571   O     0.10559   0.20487   0.74999   0.00000  Uiso   1.00
O572   O     0.22774   0.12846   0.75001   0.00000  Uiso   1.00
O573   O     0.22774   0.20487   0.75001   0.00000  Uiso   1.00
O574   O     0.10559   0.12846   0.74999   0.00000  Uiso   1.00
O575   O     0.16666   0.20489   0.68393   0.00000  Uiso   1.00
O576   O     0.16667   0.12844   0.81607   0.00000  Uiso   1.00
O577   O     0.16667   0.20489   0.81607   0.00000  Uiso   1.00
O578   O     0.16666   0.12844   0.68393   0.00000  Uiso   1.00
Zn579  Zn    0.16667   0.21771   0.75000   0.00000  Uiso   1.00
Zn580  Zn    0.16667   0.11563   0.75000   0.00000  Uiso   1.00
Br581  Br    0.57570   0.22360   0.87459   0.00000  Uiso   1.00
Br582  Br    0.42430   0.10974   0.62541   0.00000  Uiso   1.00
C583   C     0.41996   0.16668   0.74995   0.00000  Uiso   1.00
C584   C     0.37582   0.16670   0.74992   0.00000  Uiso   1.00
C585   C     0.52849   0.02401   0.77466   0.00000  Uiso   1.00
C586   C     0.47151   0.30932   0.72534   0.00000  Uiso   1.00
C587   C     0.47151   0.02395   0.72535   0.00000  Uiso   1.00
C588   C     0.52849   0.30938   0.77465   0.00000  Uiso   1.00
C589   C     0.49890   0.16660   0.66349   0.00000  Uiso   1.00
C590   C     0.50109   0.16673   0.83651   0.00000  Uiso   1.00
C591   C     0.53241   0.19220   0.90731   0.00000  Uiso   1.00
C592   C     0.46759   0.14113   0.59269   0.00000  Uiso   1.00
C593   C     0.50232   0.16682   0.88422   0.00000  Uiso   1.00
C594   C     0.58003   0.16665   0.75005   0.00000  Uiso   1.00
C595   C     0.49768   0.16652   0.61578   0.00000  Uiso   1.00
C596   C     0.47259   0.14106   0.90634   0.00000  Uiso   1.00
C597   C     0.52741   0.19227   0.59366   0.00000  Uiso   1.00
C598   C     0.47145   0.14089   0.95246   0.00000  Uiso   1.00
C599   C     0.52855   0.19245   0.54754   0.00000  Uiso   1.00
C600   C     0.50073   0.16673   0.97664   0.00000  Uiso   1.00
C601   C     0.49927   0.16661   0.52336   0.00000  Uiso   1.00
C602   C     0.53147   0.19255   0.95413   0.00000  Uiso   1.00
C603   C     0.46853   0.14079   0.54587   0.00000  Uiso   1.00
C604   C     0.44123   0.11545   0.97460   0.00000  Uiso   1.00
C605   C     0.43971   0.11539   0.52094   0.00000  Uiso   1.00
C606   C     0.55877   0.21788   0.52540   0.00000  Uiso   1.00
C607   C     0.56029   0.21795   0.97906   0.00000  Uiso   1.00
C608   C     0.35469   0.12685   0.73898   0.00000  Uiso   1.00
C609   C     0.64531   0.20648   0.76102   0.00000  Uiso   1.00
C610   C     0.64538   0.12681   0.73909   0.00000  Uiso   1.00
C611   C     0.35462   0.20652   0.76091   0.00000  Uiso   1.00
C612   C     0.62418   0.16664   0.75008   0.00000  Uiso   1.00
H613   H     0.44987   0.12170   0.88739   0.00000  Uiso   1.00
H614   H     0.37087   0.23742   0.76975   0.00000  Uiso   1.00
H615   H     0.55126   0.04220   0.79440   0.00000  Uiso   1.00
H616   H     0.44874   0.29113   0.70560   0.00000  Uiso   1.00
H617   H     0.44870   0.04208   0.70567   0.00000  Uiso   1.00
H618   H     0.55130   0.29126   0.79433   0.00000  Uiso   1.00
H619   H     0.55013   0.21163   0.61261   0.00000  Uiso   1.00
H620   H     0.41870   0.09558   0.95603   0.00000  Uiso   1.00
H621   H     0.58130   0.23775   0.54397   0.00000  Uiso   1.00
H622   H     0.41590   0.09511   0.53670   0.00000  Uiso   1.00
H623   H     0.58410   0.23822   0.96330   0.00000  Uiso   1.00
H624   H     0.37100   0.09597   0.73007   0.00000  Uiso   1.00
H625   H     0.62899   0.23736   0.76993   0.00000  Uiso   1.00
H626   H     0.62913   0.09592   0.73025   0.00000  Uiso   1.00
N627   N     0.50000   0.28573   0.75000   0.00000  Uiso   1.00
N628   N     0.50000   0.04760   0.75000   0.00000  Uiso   1.00
O629   O     0.43892   0.20487   0.74999   0.00000  Uiso   1.00
O630   O     0.56108   0.12846   0.75001   0.00000  Uiso   1.00
O631   O     0.56108   0.20487   0.75001   0.00000  Uiso   1.00
O632   O     0.43892   0.12846   0.74999   0.00000  Uiso   1.00
O633   O     0.49999   0.20489   0.68393   0.00000  Uiso   1.00
O634   O     0.50001   0.12844   0.81607   0.00000  Uiso   1.00
O635   O     0.50001   0.20489   0.81607   0.00000  Uiso   1.00
O636   O     0.49999   0.12844   0.68393   0.00000  Uiso   1.00
Zn637  Zn    0.50000   0.21771   0.75000   0.00000  Uiso   1.00
Zn638  Zn    0.50000   0.11563   0.75000   0.00000  Uiso   1.00
Br639  Br    0.90904   0.22360   0.87459   0.00000  Uiso   1.00
Br640  Br    0.75763   0.10974   0.62541   0.00000  Uiso   1.00
C641   C     0.75330   0.16668   0.74995   0.00000  Uiso   1.00
C642   C     0.70915   0.16670   0.74992   0.00000  Uiso   1.00
C643   C     0.86182   0.02401   0.77466   0.00000  Uiso   1.00
C644   C     0.80485   0.30932   0.72534   0.00000  Uiso   1.00
C645   C     0.80484   0.02395   0.72535   0.00000  Uiso   1.00
C646   C     0.86183   0.30938   0.77465   0.00000  Uiso   1.00
C647   C     0.83224   0.16660   0.66349   0.00000  Uiso   1.00
C648   C     0.83443   0.16673   0.83651   0.00000  Uiso   1.00
C649   C     0.86574   0.19220   0.90731   0.00000  Uiso   1.00
C650   C     0.80093   0.14113   0.59269   0.00000  Uiso   1.00
C651   C     0.83566   0.16682   0.88422   0.00000  Uiso   1.00
C652   C     0.91337   0.16665   0.75005   0.00000  Uiso   1.00
C653   C     0.83101   0.16652   0.61578   0.00000  Uiso   1.00
C654   C     0.80593   0.14106   0.90634   0.00000  Uiso   1.00
C655   C     0.86074   0.19227   0.59366   0.00000  Uiso   1.00
C656   C     0.80479   0.14089   0.95246   0.00000  Uiso   1.00
C657   C     0.86188   0.19245   0.54754   0.00000  Uiso   1.00
C658   C     0.83406   0.16673   0.97664   0.00000  Uiso   1.00
C659   C     0.83261   0.16661   0.52336   0.00000  Uiso   1.00
C660   C     0.86480   0.19255   0.95413   0.00000  Uiso   1.00
C661   C     0.80186   0.14079   0.54587   0.00000  Uiso   1.00
C662   C     0.77456   0.11545   0.97460   0.00000  Uiso   1.00
C663   C     0.77304   0.11539   0.52094   0.00000  Uiso   1.00
C664   C     0.89210   0.21788   0.52540   0.00000  Uiso   1.00
C665   C     0.89363   0.21795   0.97906   0.00000  Uiso   1.00
C666   C     0.68803   0.12685   0.73898   0.00000  Uiso   1.00
C667   C     0.97864   0.20648   0.76102   0.00000  Uiso   1.00
C668   C     0.97871   0.12681   0.73909   0.00000  Uiso   1.00
C669   C     0.68795   0.20652   0.76091   0.00000  Uiso   1.00
C670   C     0.95751   0.16664   0.75008   0.00000  Uiso   1.00
H671   H     0.78321   0.12170   0.88739   0.00000  Uiso   1.00
H672   H     0.70421   0.23742   0.76975   0.00000  Uiso   1.00
H673   H     0.88459   0.04220   0.79440   0.00000  Uiso   1.00
H674   H     0.78208   0.29113   0.70560   0.00000  Uiso   1.00
H675   H     0.78204   0.04208   0.70567   0.00000  Uiso   1.00
H676   H     0.88463   0.29126   0.79433   0.00000  Uiso   1.00
H677   H     0.88346   0.21163   0.61261   0.00000  Uiso   1.00
H678   H     0.75203   0.09558   0.95603   0.00000  Uiso   1.00
H679   H     0.91464   0.23775   0.54397   0.00000  Uiso   1.00
H680   H     0.74923   0.09511   0.53670   0.00000  Uiso   1.00
H681   H     0.91743   0.23822   0.96330   0.00000  Uiso   1.00
H682   H     0.70434   0.09597   0.73007   0.00000  Uiso   1.00
H683   H     0.96233   0.23736   0.76993   0.00000  Uiso   1.00
H684   H     0.96246   0.09592   0.73025   0.00000  Uiso   1.00
N685   N     0.83333   0.28573   0.75000   0.00000  Uiso   1.00
N686   N     0.83333   0.04760   0.75000   0.00000  Uiso   1.00
O687   O     0.77226   0.20487   0.74999   0.00000  Uiso   1.00
O688   O     0.89441   0.12846   0.75001   0.00000  Uiso   1.00
O689   O     0.89441   0.20487   0.75001   0.00000  Uiso   1.00
O690   O     0.77226   0.12846   0.74999   0.00000  Uiso   1.00
O691   O     0.83333   0.20489   0.68393   0.00000  Uiso   1.00
O692   O     0.83334   0.12844   0.81607   0.00000  Uiso   1.00
O693   O     0.83334   0.20489   0.81607   0.00000  Uiso   1.00
O694   O     0.83333   0.12844   0.68393   0.00000  Uiso   1.00
Zn695  Zn    0.83333   0.21771   0.75000   0.00000  Uiso   1.00
Zn696  Zn    0.83333   0.11563   0.75000   0.00000  Uiso   1.00
Br697  Br    0.24237   0.55693   0.87459   0.00000  Uiso   1.00
Br698  Br    0.09096   0.44307   0.62541   0.00000  Uiso   1.00
C699   C     0.08663   0.50002   0.74995   0.00000  Uiso   1.00
C700   C     0.04249   0.50003   0.74992   0.00000  Uiso   1.00
C701   C     0.19515   0.35734   0.77466   0.00000  Uiso   1.00
C702   C     0.13818   0.64266   0.72534   0.00000  Uiso   1.00
C703   C     0.13817   0.35728   0.72535   0.00000  Uiso   1.00
C704   C     0.19516   0.64272   0.77465   0.00000  Uiso   1.00
C705   C     0.16557   0.49994   0.66349   0.00000  Uiso   1.00
C706   C     0.16776   0.50006   0.83651   0.00000  Uiso   1.00
C707   C     0.19907   0.52553   0.90731   0.00000  Uiso   1.00
C708   C     0.13426   0.47447   0.59269   0.00000  Uiso   1.00
C709   C     0.16899   0.50015   0.88422   0.00000  Uiso   1.00
C710   C     0.24670   0.49998   0.75005   0.00000  Uiso   1.00
C711   C     0.16434   0.49985   0.61578   0.00000  Uiso   1.00
C712   C     0.13926   0.47440   0.90634   0.00000  Uiso   1.00
C713   C     0.19407   0.52560   0.59366   0.00000  Uiso   1.00
C714   C     0.13812   0.47422   0.95246   0.00000  Uiso   1.00
C715   C     0.19521   0.52578   0.54754   0.00000  Uiso   1.00
C716   C     0.16739   0.50006   0.97664   0.00000  Uiso   1.00
C717   C     0.16594   0.49994   0.52336   0.00000  Uiso   1.00
C718   C     0.19814   0.52588   0.95413   0.00000  Uiso   1.00
C719   C     0.13520   0.47412   0.54587   0.00000  Uiso   1.00
C720   C     0.10790   0.44879   0.97460   0.00000  Uiso   1.00
C721   C     0.10637   0.44872   0.52094   0.00000  Uiso   1.00
C722   C     0.22544   0.55121   0.52540   0.00000  Uiso   1.00
C723   C     0.22696   0.55128   0.97906   0.00000  Uiso   1.00
C724   C     0.02136   0.46018   0.73898   0.00000  Uiso   1.00
C725   C     0.31197   0.53982   0.76102   0.00000  Uiso   1.00
C726   C     0.31205   0.46015   0.73909   0.00000  Uiso   1.00
C727   C     0.02129   0.53985   0.76091   0.00000  Uiso   1.00
C728   C     0.29085   0.49997   0.75008   0.00000  Uiso   1.00
H729   H     0.11654   0.45503   0.88739   0.00000  Uiso   1.00
H730   H     0.03754   0.57075   0.76975   0.00000  Uiso   1.00
H731   H     0.21792   0.37553   0.79440   0.00000  Uiso   1.00
H732   H     0.11541   0.62447   0.70560   0.00000  Uiso   1.00
H733   H     0.11537   0.37541   0.70567   0.00000  Uiso   1.00
H734   H     0.21796   0.62459   0.79433   0.00000  Uiso   1.00
H735   H     0.21679   0.54497   0.61261   0.00000  Uiso   1.00
H736   H     0.08536   0.42892   0.95603   0.00000  Uiso   1.00
H737   H     0.24797   0.57108   0.54397   0.00000  Uiso   1.00
H738   H     0.08257   0.42844   0.53670   0.00000  Uiso   1.00
H739   H     0.25077   0.57156   0.96330   0.00000  Uiso   1.00
H740   H     0.03767   0.42931   0.73007   0.00000  Uiso   1.00
H741   H     0.29566   0.57069   0.76993   0.00000  Uiso   1.00
H742   H     0.29579   0.42925   0.73025   0.00000  Uiso   1.00
N743   N     0.16667   0.61907   0.75000   0.00000  Uiso   1.00
N744   N     0.16667   0.38093   0.75000   0.00000  Uiso   1.00
O745   O     0.10559   0.53821   0.74999   0.00000  Uiso   1.00
O746   O     0.22774   0.46179   0.75001   0.00000  Uiso   1.00
O747   O     0.22774   0.53821   0.75001   0.00000  Uiso   1.00
O748   O     0.10559   0.46179   0.74999   0.00000  Uiso   1.00
O749   O     0.16666   0.53823   0.68393   0.00000  Uiso   1.00
O750   O     0.16667   0.46177   0.81607   0.00000  Uiso   1.00
O751   O     0.16667   0.53823   0.81607   0.00000  Uiso   1.00
O752   O     0.16666   0.46177   0.68393   0.00000  Uiso   1.00
Zn753  Zn    0.16667   0.55104   0.75000   0.00000  Uiso   1.00
Zn754  Zn    0.16667   0.44896   0.75000   0.00000  Uiso   1.00
Br755  Br    0.57570   0.55693   0.87459   0.00000  Uiso   1.00
Br756  Br    0.42430   0.44307   0.62541   0.00000  Uiso   1.00
C757   C     0.41996   0.50002   0.74995   0.00000  Uiso   1.00
C758   C     0.37582   0.50003   0.74992   0.00000  Uiso   1.00
C759   C     0.52849   0.35734   0.77466   0.00000  Uiso   1.00
C760   C     0.47151   0.64266   0.72534   0.00000  Uiso   1.00
C761   C     0.47151   0.35728   0.72535   0.00000  Uiso   1.00
C762   C     0.52849   0.64272   0.77465   0.00000  Uiso   1.00
C763   C     0.49890   0.49994   0.66349   0.00000  Uiso   1.00
C764   C     0.50109   0.50006   0.83651   0.00000  Uiso   1.00
C765   C     0.53241   0.52553   0.90731   0.00000  Uiso   1.00
C766   C     0.46759   0.47447   0.59269   0.00000  Uiso   1.00
C767   C     0.50232   0.50015   0.88422   0.00000  Uiso   1.00
C768   C     0.58003   0.49998   0.75005   0.00000  Uiso   1.00
C769   C     0.49768   0.49985   0.61578   0.00000  Uiso   1.00
C770   C     0.47259   0.47440   0.90634   0.00000  Uiso   1.00
C771   C     0.52741   0.52560   0.59366   0.00000  Uiso   1.00
C772   C     0.47145   0.47422   0.95246   0.00000  Uiso   1.00
C773   C     0.52855   0.52578   0.54754   0.00000  Uiso   1.00
C774   C     0.50073   0.50006   0.97664   0.00000  Uiso   1.00
C775   C     0.49927   0.49994   0.52336   0.00000  Uiso   1.00
C776   C     0.53147   0.52588   0.95413   0.00000  Uiso   1.00
C777   C     0.46853   0.47412   0.54587   0.00000  Uiso   1.00
C778   C     0.44123   0.44879   0.97460   0.00000  Uiso   1.00
C779   C     0.43971   0.44872   0.52094   0.00000  Uiso   1.00
C780   C     0.55877   0.55121   0.52540   0.00000  Uiso   1.00
C781   C     0.56029   0.55128   0.97906   0.00000  Uiso   1.00
C782   C     0.35469   0.46018   0.73898   0.00000  Uiso   1.00
C783   C     0.64531   0.53982   0.76102   0.00000  Uiso   1.00
C784   C     0.64538   0.46015   0.73909   0.00000  Uiso   1.00
C785   C     0.35462   0.53985   0.76091   0.00000  Uiso   1.00
C786   C     0.62418   0.49997   0.75008   0.00000  Uiso   1.00
H787   H     0.44987   0.45503   0.88739   0.00000  Uiso   1.00
H788   H     0.37087   0.57075   0.76975   0.00000  Uiso   1.00
H789   H     0.55126   0.37553   0.79440   0.00000  Uiso   1.00
H790   H     0.44874   0.62447   0.70560   0.00000  Uiso   1.00
H791   H     0.44870   0.37541   0.70567   0.00000  Uiso   1.00
H792   H     0.55130   0.62459   0.79433   0.00000  Uiso   1.00
H793   H     0.55013   0.54497   0.61261   0.00000  Uiso   1.00
H794   H     0.41870   0.42892   0.95603   0.00000  Uiso   1.00
H795   H     0.58130   0.57108   0.54397   0.00000  Uiso   1.00
H796   H     0.41590   0.42844   0.53670   0.00000  Uiso   1.00
H797   H     0.58410   0.57156   0.96330   0.00000  Uiso   1.00
H798   H     0.37100   0.42931   0.73007   0.00000  Uiso   1.00
H799   H     0.62899   0.57069   0.76993   0.00000  Uiso   1.00
H800   H     0.62913   0.42925   0.73025   0.00000  Uiso   1.00
N801   N     0.50000   0.61907   0.75000   0.00000  Uiso   1.00
N802   N     0.50000   0.38093   0.75000   0.00000  Uiso   1.00
O803   O     0.43892   0.53821   0.74999   0.00000  Uiso   1.00
O804   O     0.56108   0.46179   0.75001   0.00000  Uiso   1.00
O805   O     0.56108   0.53821   0.75001   0.00000  Uiso   1.00
O806   O     0.43892   0.46179   0.74999   0.00000  Uiso   1.00
O807   O     0.49999   0.53823   0.68393   0.00000  Uiso   1.00
O808   O     0.50001   0.46177   0.81607   0.00000  Uiso   1.00
O809   O     0.50001   0.53823   0.81607   0.00000  Uiso   1.00
O810   O     0.49999   0.46177   0.68393   0.00000  Uiso   1.00
Zn811  Zn    0.50000   0.55104   0.75000   0.00000  Uiso   1.00
Zn812  Zn    0.50000   0.44896   0.75000   0.00000  Uiso   1.00
Br813  Br    0.90904   0.55693   0.87459   0.00000  Uiso   1.00
Br814  Br    0.75763   0.44307   0.62541   0.00000  Uiso   1.00
C815   C     0.75330   0.50002   0.74995   0.00000  Uiso   1.00
C816   C     0.70915   0.50003   0.74992   0.00000  Uiso   1.00
C817   C     0.86182   0.35734   0.77466   0.00000  Uiso   1.00
C818   C     0.80485   0.64266   0.72534   0.00000  Uiso   1.00
C819   C     0.80484   0.35728   0.72535   0.00000  Uiso   1.00
C820   C     0.86183   0.64272   0.77465   0.00000  Uiso   1.00
C821   C     0.83224   0.49994   0.66349   0.00000  Uiso   1.00
C822   C     0.83443   0.50006   0.83651   0.00000  Uiso   1.00
C823   C     0.86574   0.52553   0.90731   0.00000  Uiso   1.00
C824   C     0.80093   0.47447   0.59269   0.00000  Uiso   1.00
C825   C     0.83566   0.50015   0.88422   0.00000  Uiso   1.00
C826   C     0.91337   0.49998   0.75005   0.00000  Uiso   1.00
C827   C     0.83101   0.49985   0.61578   0.00000  Uiso   1.00
C828   C     0.80593   0.47440   0.90634   0.00000  Uiso   1.00
C829   C     0.86074   0.52560   0.59366   0.00000  Uiso   1.00
C830   C     0.80479   0.47422   0.95246   0.00000  Uiso   1.00
C831   C     0.86188   0.52578   0.54754   0.00000  Uiso   1.00
C832   C     0.83406   0.50006   0.97664   0.00000  Uiso   1.00
C833   C     0.83261   0.49994   0.52336   0.00000  Uiso   1.00
C834   C     0.86480   0.52588   0.95413   0.00000  Uiso   1.00
C835   C     0.80186   0.47412   0.54587   0.00000  Uiso   1.00
C836   C     0.77456   0.44879   0.97460   0.00000  Uiso   1.00
C837   C     0.77304   0.44872   0.52094   0.00000  Uiso   1.00
C838   C     0.89210   0.55121   0.52540   0.00000  Uiso   1.00
C839   C     0.89363   0.55128   0.97906   0.00000  Uiso   1.00
C840   C     0.68803   0.46018   0.73898   0.00000  Uiso   1.00
C841   C     0.97864   0.53982   0.76102   0.00000  Uiso   1.00
C842   C     0.97871   0.46015   0.73909   0.00000  Uiso   1.00
C843   C     0.68795   0.53985   0.76091   0.00000  Uiso   1.00
C844   C     0.95751   0.49997   0.75008   0.00000  Uiso   1.00
H845   H     0.78321   0.45503   0.88739   0.00000  Uiso   1.00
H846   H     0.70421   0.57075   0.76975   0.00000  Uiso   1.00
H847   H     0.88459   0.37553   0.79440   0.00000  Uiso   1.00
H848   H     0.78208   0.62447   0.70560   0.00000  Uiso   1.00
H849   H     0.78204   0.37541   0.70567   0.00000  Uiso   1.00
H850   H     0.88463   0.62459   0.79433   0.00000  Uiso   1.00
H851   H     0.88346   0.54497   0.61261   0.00000  Uiso   1.00
H852   H     0.75203   0.42892   0.95603   0.00000  Uiso   1.00
H853   H     0.91464   0.57108   0.54397   0.00000  Uiso   1.00
H854   H     0.74923   0.42844   0.53670   0.00000  Uiso   1.00
H855   H     0.91743   0.57156   0.96330   0.00000  Uiso   1.00
H856   H     0.70434   0.42931   0.73007   0.00000  Uiso   1.00
H857   H     0.96233   0.57069   0.76993   0.00000  Uiso   1.00
H858   H     0.96246   0.42925   0.73025   0.00000  Uiso   1.00
N859   N     0.83333   0.61907   0.75000   0.00000  Uiso   1.00
N860   N     0.83333   0.38093   0.75000   0.00000  Uiso   1.00
O861   O     0.77226   0.53821   0.74999   0.00000  Uiso   1.00
O862   O     0.89441   0.46179   0.75001   0.00000  Uiso   1.00
O863   O     0.89441   0.53821   0.75001   0.00000  Uiso   1.00
O864   O     0.77226   0.46179   0.74999   0.00000  Uiso   1.00
O865   O     0.83333   0.53823   0.68393   0.00000  Uiso   1.00
O866   O     0.83334   0.46177   0.81607   0.00000  Uiso   1.00
O867   O     0.83334   0.53823   0.81607   0.00000  Uiso   1.00
O868   O     0.83333   0.46177   0.68393   0.00000  Uiso   1.00
Zn869  Zn    0.83333   0.55104   0.75000   0.00000  Uiso   1.00
Zn870  Zn    0.83333   0.44896   0.75000   0.00000  Uiso   1.00
Br871  Br    0.24237   0.89026   0.87459   0.00000  Uiso   1.00
Br872  Br    0.09096   0.77640   0.62541   0.00000  Uiso   1.00
C873   C     0.08663   0.83335   0.74995   0.00000  Uiso   1.00
C874   C     0.04249   0.83336   0.74992   0.00000  Uiso   1.00
C875   C     0.19515   0.69068   0.77466   0.00000  Uiso   1.00
C876   C     0.13818   0.97599   0.72534   0.00000  Uiso   1.00
C877   C     0.13817   0.69062   0.72535   0.00000  Uiso   1.00
C878   C     0.19516   0.97605   0.77465   0.00000  Uiso   1.00
C879   C     0.16557   0.83327   0.66349   0.00000  Uiso   1.00
C880   C     0.16776   0.83340   0.83651   0.00000  Uiso   1.00
C881   C     0.19907   0.85887   0.90731   0.00000  Uiso   1.00
C882   C     0.13426   0.80780   0.59269   0.00000  Uiso   1.00
C883   C     0.16899   0.83348   0.88422   0.00000  Uiso   1.00
C884   C     0.24670   0.83332   0.75005   0.00000  Uiso   1.00
C885   C     0.16434   0.83318   0.61578   0.00000  Uiso   1.00
C886   C     0.13926   0.80773   0.90634   0.00000  Uiso   1.00
C887   C     0.19407   0.85894   0.59366   0.00000  Uiso   1.00
C888   C     0.13812   0.80755   0.95246   0.00000  Uiso   1.00
C889   C     0.19521   0.85911   0.54754   0.00000  Uiso   1.00
C890   C     0.16739   0.83339   0.97664   0.00000  Uiso   1.00
C891   C     0.16594   0.83327   0.52336   0.00000  Uiso   1.00
C892   C     0.19814   0.85921   0.95413   0.00000  Uiso   1.00
C893   C     0.13520   0.80745   0.54587   0.00000  Uiso   1.00
C894   C     0.10790   0.78212   0.97460   0.00000  Uiso   1.00
C895   C     0.10637   0.78205   0.52094   0.00000  Uiso   1.00
C896   C     0.22544   0.88455   0.52540   0.00000  Uiso   1.00
C897   C     0.22696   0.88461   0.97906   0.00000  Uiso   1.00
C898   C     0.02136   0.79352   0.73898   0.00000  Uiso   1.00
C899   C     0.31197   0.87315   0.76102   0.00000  Uiso   1.00
C900   C     0.31205   0.79348   0.73909   0.00000  Uiso   1.00
C901   C     0.02129   0.87319   0.76091   0.00000  Uiso   1.00
C902   C     0.29085   0.83330   0.75008   0.00000  Uiso   1.00
H903   H     0.11654   0.78837   0.88739   0.00000  Uiso   1.00
H904   H     0.03754   0.90408   0.76975   0.00000  Uiso   1.00
H905   H     0.21792   0.70887   0.79440   0.00000  Uiso   1.00
H906   H     0.11541   0.95780   0.70560   0.00000  Uiso   1.00
H907   H     0.11537   0.70874   0.70567   0.00000  Uiso   1.00
H908   H     0.21796   0.95792   0.79433   0.00000  Uiso   1.00
H909   H     0.21679   0.87830   0.61261   0.00000  Uiso   1.00
H910   H     0.08536   0.76225   0.95603   0.00000  Uiso   1.00
H911   H     0.24797   0.90441   0.54397   0.00000  Uiso   1.00
H912   H     0.08257   0.76178   0.53670   0.00000  Uiso   1.00
H913   H     0.25077   0.90489   0.96330   0.00000  Uiso   1.00
H914   H     0.03767   0.76264   0.73007   0.00000  Uiso   1.00
H915   H     0.29566   0.90403   0.76993   0.00000  Uiso   1.00
H916   H     0.29579   0.76258   0.73025   0.00000  Uiso   1.00
N917   N     0.16667   0.95240   0.75000   0.00000  Uiso   1.00
N918   N     0.16667   0.71427   0.75000   0.00000  Uiso   1.00
O919   O     0.10559   0.87154   0.74999   0.00000  Uiso   1.00
O920   O     0.22774   0.79513   0.75001   0.00000  Uiso   1.00
O921   O     0.22774   0.87154   0.75001   0.00000  Uiso   1.00
O922   O     0.10559   0.79513   0.74999   0.00000  Uiso   1.00
O923   O     0.16666   0.87156   0.68393   0.00000  Uiso   1.00
O924   O     0.16667   0.79511   0.81607   0.00000  Uiso   1.00
O925   O     0.16667   0.87156   0.81607   0.00000  Uiso   1.00
O926   O     0.16666   0.79511   0.68393   0.00000  Uiso   1.00
Zn927  Zn    0.16667   0.88437   0.75000   0.00000  Uiso   1.00
Zn928  Zn    0.16667   0.78229   0.75000   0.00000  Uiso   1.00
Br929  Br    0.57570   0.89026   0.87459   0.00000  Uiso   1.00
Br930  Br    0.42430   0.77640   0.62541   0.00000  Uiso   1.00
C931   C     0.41996   0.83335   0.74995   0.00000  Uiso   1.00
C932   C     0.37582   0.83336   0.74992   0.00000  Uiso   1.00
C933   C     0.52849   0.69068   0.77466   0.00000  Uiso   1.00
C934   C     0.47151   0.97599   0.72534   0.00000  Uiso   1.00
C935   C     0.47151   0.69062   0.72535   0.00000  Uiso   1.00
C936   C     0.52849   0.97605   0.77465   0.00000  Uiso   1.00
C937   C     0.49890   0.83327   0.66349   0.00000  Uiso   1.00
C938   C     0.50109   0.83340   0.83651   0.00000  Uiso   1.00
C939   C     0.53241   0.85887   0.90731   0.00000  Uiso   1.00
C940   C     0.46759   0.80780   0.59269   0.00000  Uiso   1.00
C941   C     0.50232   0.83348   0.88422   0.00000  Uiso   1.00
C942   C     0.58003   0.83332   0.75005   0.00000  Uiso   1.00
C943   C     0.49768   0.83318   0.61578   0.00000  Uiso   1.00
C944   C     0.47259   0.80773   0.90634   0.00000  Uiso   1.00
C945   C     0.52741   0.85894   0.59366   0.00000  Uiso   1.00
C946   C     0.47145   0.80755   0.95246   0.00000  Uiso   1.00
C947   C     0.52855   0.85911   0.54754   0.00000  Uiso   1.00
C948   C     0.50073   0.83339   0.97664   0.00000  Uiso   1.00
C949   C     0.49927   0.83327   0.52336   0.00000  Uiso   1.00
C950   C     0.53147   0.85921   0.95413   0.00000  Uiso   1.00
C951   C     0.46853   0.80745   0.54587   0.00000  Uiso   1.00
C952   C     0.44123   0.78212   0.97460   0.00000  Uiso   1.00
C953   C     0.43971   0.78205   0.52094   0.00000  Uiso   1.00
C954   C     0.55877   0.88455   0.52540   0.00000  Uiso   1.00
C955   C     0.56029   0.88461   0.97906   0.00000  Uiso   1.00
C956   C     0.35469   0.79352   0.73898   0.00000  Uiso   1.00
C957   C     0.64531   0.87315   0.76102   0.00000  Uiso   1.00
C958   C     0.64538   0.79348   0.73909   0.00000  Uiso   1.00
C959   C     0.35462   0.87319   0.76091   0.00000  Uiso   1.00
C960   C     0.62418   0.83330   0.75008   0.00000  Uiso   1.00
H961   H     0.44987   0.78837   0.88739   0.00000  Uiso   1.00
H962   H     0.37087   0.90408   0.76975   0.00000  Uiso   1.00
H963   H     0.55126   0.70887   0.79440   0.00000  Uiso   1.00
H964   H     0.44874   0.95780   0.70560   0.00000  Uiso   1.00
H965   H     0.44870   0.70874   0.70567   0.00000  Uiso   1.00
H966   H     0.55130   0.95792   0.79433   0.00000  Uiso   1.00
H967   H     0.55013   0.87830   0.61261   0.00000  Uiso   1.00
H968   H     0.41870   0.76225   0.95603   0.00000  Uiso   1.00
H969   H     0.58130   0.90441   0.54397   0.00000  Uiso   1.00
H970   H     0.41590   0.76178   0.53670   0.00000  Uiso   1.00
H971   H     0.58410   0.90489   0.96330   0.00000  Uiso   1.00
H972   H     0.37100   0.76264   0.73007   0.00000  Uiso   1.00
H973   H     0.62899   0.90403   0.76993   0.00000  Uiso   1.00
H974   H     0.62913   0.76258   0.73025   0.00000  Uiso   1.00
N975   N     0.50000   0.95240   0.75000   0.00000  Uiso   1.00
N976   N     0.50000   0.71427   0.75000   0.00000  Uiso   1.00
O977   O     0.43892   0.87154   0.74999   0.00000  Uiso   1.00
O978   O     0.56108   0.79513   0.75001   0.00000  Uiso   1.00
O979   O     0.56108   0.87154   0.75001   0.00000  Uiso   1.00
O980   O     0.43892   0.79513   0.74999   0.00000  Uiso   1.00
O981   O     0.49999   0.87156   0.68393   0.00000  Uiso   1.00
O982   O     0.50001   0.79511   0.81607   0.00000  Uiso   1.00
O983   O     0.50001   0.87156   0.81607   0.00000  Uiso   1.00
O984   O     0.49999   0.79511   0.68393   0.00000  Uiso   1.00
Zn985  Zn    0.50000   0.88437   0.75000   0.00000  Uiso   1.00
Zn986  Zn    0.50000   0.78229   0.75000   0.00000  Uiso   1.00
Br987  Br    0.90904   0.89026   0.87459   0.00000  Uiso   1.00
Br988  Br    0.75763   0.77640   0.62541   0.00000  Uiso   1.00
C989   C     0.75330   0.83335   0.74995   0.00000  Uiso   1.00
C990   C     0.70915   0.83336   0.74992   0.00000  Uiso   1.00
C991   C     0.86182   0.69068   0.77466   0.00000  Uiso   1.00
C992   C     0.80485   0.97599   0.72534   0.00000  Uiso   1.00
C993   C     0.80484   0.69062   0.72535   0.00000  Uiso   1.00
C994   C     0.86183   0.97605   0.77465   0.00000  Uiso   1.00
C995   C     0.83224   0.83327   0.66349   0.00000  Uiso   1.00
C996   C     0.83443   0.83340   0.83651   0.00000  Uiso   1.00
C997   C     0.86574   0.85887   0.90731   0.00000  Uiso   1.00
C998   C     0.80093   0.80780   0.59269   0.00000  Uiso   1.00
C999   C     0.83566   0.83348   0.88422   0.00000  Uiso   1.00
C1000  C     0.91337   0.83332   0.75005   0.00000  Uiso   1.00
C1001  C     0.83101   0.83318   0.61578   0.00000  Uiso   1.00
C1002  C     0.80593   0.80773   0.90634   0.00000  Uiso   1.00
C1003  C     0.86074   0.85894   0.59366   0.00000  Uiso   1.00
C1004  C     0.80479   0.80755   0.95246   0.00000  Uiso   1.00
C1005  C     0.86188   0.85911   0.54754   0.00000  Uiso   1.00
C1006  C     0.83406   0.83339   0.97664   0.00000  Uiso   1.00
C1007  C     0.83261   0.83327   0.52336   0.00000  Uiso   1.00
C1008  C     0.86480   0.85921   0.95413   0.00000  Uiso   1.00
C1009  C     0.80186   0.80745   0.54587   0.00000  Uiso   1.00
C1010  C     0.77456   0.78212   0.97460   0.00000  Uiso   1.00
C1011  C     0.77304   0.78205   0.52094   0.00000  Uiso   1.00
C1012  C     0.89210   0.88455   0.52540   0.00000  Uiso   1.00
C1013  C     0.89363   0.88461   0.97906   0.00000  Uiso   1.00
C1014  C     0.68803   0.79352   0.73898   0.00000  Uiso   1.00
C1015  C     0.97864   0.87315   0.76102   0.00000  Uiso   1.00
C1016  C     0.97871   0.79348   0.73909   0.00000  Uiso   1.00
C1017  C     0.68795   0.87319   0.76091   0.00000  Uiso   1.00
C1018  C     0.95751   0.83330   0.75008   0.00000  Uiso   1.00
H1019  H     0.78321   0.78837   0.88739   0.00000  Uiso   1.00
H1020  H     0.70421   0.90408   0.76975   0.00000  Uiso   1.00
H1021  H     0.88459   0.70887   0.79440   0.00000  Uiso   1.00
H1022  H     0.78208   0.95780   0.70560   0.00000  Uiso   1.00
H1023  H     0.78204   0.70874   0.70567   0.00000  Uiso   1.00
H1024  H     0.88463   0.95792   0.79433   0.00000  Uiso   1.00
H1025  H     0.88346   0.87830   0.61261   0.00000  Uiso   1.00
H1026  H     0.75203   0.76225   0.95603   0.00000  Uiso   1.00
H1027  H     0.91464   0.90441   0.54397   0.00000  Uiso   1.00
H1028  H     0.74923   0.76178   0.53670   0.00000  Uiso   1.00
H1029  H     0.91743   0.90489   0.96330   0.00000  Uiso   1.00
H1030  H     0.70434   0.76264   0.73007   0.00000  Uiso   1.00
H1031  H     0.96233   0.90403   0.76993   0.00000  Uiso   1.00
H1032  H     0.96246   0.76258   0.73025   0.00000  Uiso   1.00
N1033  N     0.83333   0.95240   0.75000   0.00000  Uiso   1.00
N1034  N     0.83333   0.71427   0.75000   0.00000  Uiso   1.00
O1035  O     0.77226   0.87154   0.74999   0.00000  Uiso   1.00
O1036  O     0.89441   0.79513   0.75001   0.00000  Uiso   1.00
O1037  O     0.89441   0.87154   0.75001   0.00000  Uiso   1.00
O1038  O     0.77226   0.79513   0.74999   0.00000  Uiso   1.00
O1039  O     0.83333   0.87156   0.68393   0.00000  Uiso   1.00
O1040  O     0.83334   0.79511   0.81607   0.00000  Uiso   1.00
O1041  O     0.83334   0.87156   0.81607   0.00000  Uiso   1.00
O1042  O     0.83333   0.79511   0.68393   0.00000  Uiso   1.00
Zn1043 Zn    0.83333   0.88437   0.75000   0.00000  Uiso   1.00
Zn1044 Zn    0.83333   0.78229   0.75000   0.00000  Uiso   1.00
loop_
_geom_bond_atom_site_label_1
_geom_bond_atom_site_label_2
_geom_bond_distance
_geom_bond_site_symmetry_2
_ccdc_geom_bond_type
Br1    C11     1.939   .     S
Br2    C12     1.939   .     S
C3     O52     1.282   .     A
C3     C4      1.418   .     S
C3     O49     1.282   .     A
C4     C31     1.397   .     A
C4     C28     1.397   .     A
C5     H35     1.082   .     S
C5     N48     1.366   .     A
C5     C356    1.416   1_545 S
C6     H36     1.082   .     S
C6     N47     1.366   .     A
C6     C181    1.416   .     S
C7     N48     1.366   .     A
C7     H37     1.081   .     S
C7     C354    1.416   1_545 S
C8     N47     1.366   .     A
C8     H38     1.081   .     S
C8     C179    1.416   .     S
C9     C15     1.427   .     S
C9     O56     1.283   .     A
C9     O53     1.284   .     A
C10    O55     1.283   .     A
C10    O54     1.284   .     A
C10    C13     1.427   .     S
C11    C22     1.400   .     A
C11    C13     1.404   .     A
C12    C15     1.404   .     A
C12    C23     1.400   .     A
C13    C16     1.390   .     A
C14    C32     1.418   .     S
C14    O51     1.282   .     A
C14    O50     1.282   .     A
C15    C17     1.390   .     A
C16    H33     1.086   .     S
C16    C18     1.379   .     A
C17    H39     1.086   .     S
C17    C19     1.379   .     A
C18    C24     1.396   .     A
C18    C20     1.410   .     A
C19    C21     1.410   .     A
C19    C26     1.396   .     A
C20    C22     1.419   .     A
C20    C543    1.398   .     S
C21    C23     1.419   .     A
C21    C542    1.398   1_554 S
C22    C27     1.405   .     A
C23    C25     1.405   .     A
C24    H40     1.084   .     S
C24    C547    1.386   .     S
C25    H42     1.081   .     S
C25    C546    1.386   1_554 S
C26    H41     1.084   .     S
C26    C549    1.386   1_554 S
C27    H43     1.081   .     S
C27    C548    1.386   .     S
C28    H44     1.084   .     S
C28    C146    1.370   1_455 S
C29    C32     1.397   .     A
C29    H45     1.084   .     S
C29    C89     1.370   .     S
C30    C32     1.397   .     A
C30    H46     1.084   .     S
C30    C86     1.370   .     S
C31    H34     1.084   .     S
C31    C145    1.370   1_455 S
N47    Zn57    2.009   .     S
N48    Zn58    2.009   .     S
O49    Zn57    1.999   .     S
O50    Zn58    1.999   .     S
O51    Zn57    1.998   .     S
O52    Zn58    1.998   .     S
O53    Zn57    2.010   .     S
O54    Zn58    2.010   .     S
O55    Zn57    2.012   .     S
O56    Zn58    2.012   .     S
Br59   C69     1.939   .     S
Br60   C70     1.939   .     S
C61    O110    1.282   .     A
C61    C62     1.418   .     S
C61    O107    1.282   .     A
C62    C89     1.397   .     A
C62    C86     1.397   .     A
C63    H93     1.082   .     S
C63    N106    1.366   .     A
C63    C414    1.416   1_545 S
C64    H94     1.082   .     S
C64    N105    1.366   .     A
C64    C239    1.416   .     S
C65    N106    1.366   .     A
C65    H95     1.081   .     S
C65    C412    1.416   1_545 S
C66    N105    1.366   .     A
C66    H96     1.081   .     S
C66    C237    1.416   .     S
C67    C73     1.427   .     S
C67    O114    1.283   .     A
C67    O111    1.284   .     A
C68    O113    1.283   .     A
C68    O112    1.284   .     A
C68    C71     1.427   .     S
C69    C80     1.400   .     A
C69    C71     1.404   .     A
C70    C73     1.404   .     A
C70    C81     1.400   .     A
C71    C74     1.390   .     A
C72    C90     1.418   .     S
C72    O109    1.282   .     A
C72    O108    1.282   .     A
C73    C75     1.390   .     A
C74    H91     1.086   .     S
C74    C76     1.379   .     A
C75    H97     1.086   .     S
C75    C77     1.379   .     A
C76    C82     1.396   .     A
C76    C78     1.410   .     A
C77    C79     1.410   .     A
C77    C84     1.396   .     A
C78    C80     1.419   .     A
C78    C601    1.398   .     S
C79    C81     1.419   .     A
C79    C600    1.398   1_554 S
C80    C85     1.405   .     A
C81    C83     1.405   .     A
C82    H98     1.084   .     S
C82    C605    1.386   .     S
C83    H100    1.081   .     S
C83    C604    1.386   1_554 S
C84    H99     1.084   .     S
C84    C607    1.386   1_554 S
C85    H101    1.081   .     S
C85    C606    1.386   .     S
C86    H102    1.084   .     S
C87    C90     1.397   .     A
C87    H103    1.084   .     S
C87    C147    1.370   .     S
C88    C90     1.397   .     A
C88    H104    1.084   .     S
C88    C144    1.370   .     S
C89    H92     1.084   .     S
N105   Zn115   2.009   .     S
N106   Zn116   2.009   .     S
O107   Zn115   1.999   .     S
O108   Zn116   1.999   .     S
O109   Zn115   1.998   .     S
O110   Zn116   1.998   .     S
O111   Zn115   2.010   .     S
O112   Zn116   2.010   .     S
O113   Zn115   2.012   .     S
O114   Zn116   2.012   .     S
Br117  C127    1.939   .     S
Br118  C128    1.939   .     S
C119   O168    1.282   .     A
C119   C120    1.418   .     S
C119   O165    1.282   .     A
C120   C147    1.397   .     A
C120   C144    1.397   .     A
C121   H151    1.082   .     S
C121   N164    1.366   .     A
C121   C472    1.416   1_545 S
C122   H152    1.082   .     S
C122   N163    1.366   .     A
C122   C297    1.416   .     S
C123   N164    1.366   .     A
C123   H153    1.081   .     S
C123   C470    1.416   1_545 S
C124   N163    1.366   .     A
C124   H154    1.081   .     S
C124   C295    1.416   .     S
C125   C131    1.427   .     S
C125   O172    1.283   .     A
C125   O169    1.284   .     A
C126   O171    1.283   .     A
C126   O170    1.284   .     A
C126   C129    1.427   .     S
C127   C138    1.400   .     A
C127   C129    1.404   .     A
C128   C131    1.404   .     A
C128   C139    1.400   .     A
C129   C132    1.390   .     A
C130   C148    1.418   .     S
C130   O167    1.282   .     A
C130   O166    1.282   .     A
C131   C133    1.390   .     A
C132   H149    1.086   .     S
C132   C134    1.379   .     A
C133   H155    1.086   .     S
C133   C135    1.379   .     A
C134   C140    1.396   .     A
C134   C136    1.410   .     A
C135   C137    1.410   .     A
C135   C142    1.396   .     A
C136   C138    1.419   .     A
C136   C659    1.398   .     S
C137   C139    1.419   .     A
C137   C658    1.398   1_554 S
C138   C143    1.405   .     A
C139   C141    1.405   .     A
C140   H156    1.084   .     S
C140   C663    1.386   .     S
C141   H158    1.081   .     S
C141   C662    1.386   1_554 S
C142   H157    1.084   .     S
C142   C665    1.386   1_554 S
C143   H159    1.081   .     S
C143   C664    1.386   .     S
C144   H160    1.084   .     S
C145   C148    1.397   .     A
C145   H161    1.084   .     S
C145   C31     1.370   1_655 S
C146   C148    1.397   .     A
C146   H162    1.084   .     S
C146   C28     1.370   1_655 S
C147   H150    1.084   .     S
N163   Zn173   2.009   .     S
N164   Zn174   2.009   .     S
O165   Zn173   1.999   .     S
O166   Zn174   1.999   .     S
O167   Zn173   1.998   .     S
O168   Zn174   1.998   .     S
O169   Zn173   2.010   .     S
O170   Zn174   2.010   .     S
O171   Zn173   2.012   .     S
O172   Zn174   2.012   .     S
Br175  C185    1.939   .     S
Br176  C186    1.939   .     S
C177   O226    1.282   .     A
C177   C178    1.418   .     S
C177   O223    1.282   .     A
C178   C205    1.397   .     A
C178   C202    1.397   .     A
C179   H209    1.082   .     S
C179   N222    1.366   .     A
C180   H210    1.082   .     S
C180   N221    1.366   .     A
C180   C355    1.416   .     S
C181   N222    1.366   .     A
C181   H211    1.081   .     S
C182   N221    1.366   .     A
C182   H212    1.081   .     S
C182   C353    1.416   .     S
C183   C189    1.427   .     S
C183   O230    1.283   .     A
C183   O227    1.284   .     A
C184   O229    1.283   .     A
C184   O228    1.284   .     A
C184   C187    1.427   .     S
C185   C196    1.400   .     A
C185   C187    1.404   .     A
C186   C189    1.404   .     A
C186   C197    1.400   .     A
C187   C190    1.390   .     A
C188   C206    1.418   .     S
C188   O225    1.282   .     A
C188   O224    1.282   .     A
C189   C191    1.390   .     A
C190   H207    1.086   .     S
C190   C192    1.379   .     A
C191   H213    1.086   .     S
C191   C193    1.379   .     A
C192   C198    1.396   .     A
C192   C194    1.410   .     A
C193   C195    1.410   .     A
C193   C200    1.396   .     A
C194   C196    1.419   .     A
C194   C717    1.398   .     S
C195   C197    1.419   .     A
C195   C716    1.398   1_554 S
C196   C201    1.405   .     A
C197   C199    1.405   .     A
C198   H214    1.084   .     S
C198   C721    1.386   .     S
C199   H216    1.081   .     S
C199   C720    1.386   1_554 S
C200   H215    1.084   .     S
C200   C723    1.386   1_554 S
C201   H217    1.081   .     S
C201   C722    1.386   .     S
C202   H218    1.084   .     S
C202   C320    1.370   1_455 S
C203   C206    1.397   .     A
C203   H219    1.084   .     S
C203   C263    1.370   .     S
C204   C206    1.397   .     A
C204   H220    1.084   .     S
C204   C260    1.370   .     S
C205   H208    1.084   .     S
C205   C319    1.370   1_455 S
N221   Zn231   2.009   .     S
N222   Zn232   2.009   .     S
O223   Zn231   1.999   .     S
O224   Zn232   1.999   .     S
O225   Zn231   1.998   .     S
O226   Zn232   1.998   .     S
O227   Zn231   2.010   .     S
O228   Zn232   2.010   .     S
O229   Zn231   2.012   .     S
O230   Zn232   2.012   .     S
Br233  C243    1.939   .     S
Br234  C244    1.939   .     S
C235   O284    1.282   .     A
C235   C236    1.418   .     S
C235   O281    1.282   .     A
C236   C263    1.397   .     A
C236   C260    1.397   .     A
C237   H267    1.082   .     S
C237   N280    1.366   .     A
C238   H268    1.082   .     S
C238   N279    1.366   .     A
C238   C413    1.416   .     S
C239   N280    1.366   .     A
C239   H269    1.081   .     S
C240   N279    1.366   .     A
C240   H270    1.081   .     S
C240   C411    1.416   .     S
C241   C247    1.427   .     S
C241   O288    1.283   .     A
C241   O285    1.284   .     A
C242   O287    1.283   .     A
C242   O286    1.284   .     A
C242   C245    1.427   .     S
C243   C254    1.400   .     A
C243   C245    1.404   .     A
C244   C247    1.404   .     A
C244   C255    1.400   .     A
C245   C248    1.390   .     A
C246   C264    1.418   .     S
C246   O283    1.282   .     A
C246   O282    1.282   .     A
C247   C249    1.390   .     A
C248   H265    1.086   .     S
C248   C250    1.379   .     A
C249   H271    1.086   .     S
C249   C251    1.379   .     A
C250   C256    1.396   .     A
C250   C252    1.410   .     A
C251   C253    1.410   .     A
C251   C258    1.396   .     A
C252   C254    1.419   .     A
C252   C775    1.398   .     S
C253   C255    1.419   .     A
C253   C774    1.398   1_554 S
C254   C259    1.405   .     A
C255   C257    1.405   .     A
C256   H272    1.084   .     S
C256   C779    1.386   .     S
C257   H274    1.081   .     S
C257   C778    1.386   1_554 S
C258   H273    1.084   .     S
C258   C781    1.386   1_554 S
C259   H275    1.081   .     S
C259   C780    1.386   .     S
C260   H276    1.084   .     S
C261   C264    1.397   .     A
C261   H277    1.084   .     S
C261   C321    1.370   .     S
C262   C264    1.397   .     A
C262   H278    1.084   .     S
C262   C318    1.370   .     S
C263   H266    1.084   .     S
N279   Zn289   2.009   .     S
N280   Zn290   2.009   .     S
O281   Zn289   1.999   .     S
O282   Zn290   1.999   .     S
O283   Zn289   1.998   .     S
O284   Zn290   1.998   .     S
O285   Zn289   2.010   .     S
O286   Zn290   2.010   .     S
O287   Zn289   2.012   .     S
O288   Zn290   2.012   .     S
Br291  C301    1.939   .     S
Br292  C302    1.939   .     S
C293   O342    1.282   .     A
C293   C294    1.418   .     S
C293   O339    1.282   .     A
C294   C321    1.397   .     A
C294   C318    1.397   .     A
C295   H325    1.082   .     S
C295   N338    1.366   .     A
C296   H326    1.082   .     S
C296   N337    1.366   .     A
C296   C471    1.416   .     S
C297   N338    1.366   .     A
C297   H327    1.081   .     S
C298   N337    1.366   .     A
C298   H328    1.081   .     S
C298   C469    1.416   .     S
C299   C305    1.427   .     S
C299   O346    1.283   .     A
C299   O343    1.284   .     A
C300   O345    1.283   .     A
C300   O344    1.284   .     A
C300   C303    1.427   .     S
C301   C312    1.400   .     A
C301   C303    1.404   .     A
C302   C305    1.404   .     A
C302   C313    1.400   .     A
C303   C306    1.390   .     A
C304   C322    1.418   .     S
C304   O341    1.282   .     A
C304   O340    1.282   .     A
C305   C307    1.390   .     A
C306   H323    1.086   .     S
C306   C308    1.379   .     A
C307   H329    1.086   .     S
C307   C309    1.379   .     A
C308   C314    1.396   .     A
C308   C310    1.410   .     A
C309   C311    1.410   .     A
C309   C316    1.396   .     A
C310   C312    1.419   .     A
C310   C833    1.398   .     S
C311   C313    1.419   .     A
C311   C832    1.398   1_554 S
C312   C317    1.405   .     A
C313   C315    1.405   .     A
C314   H330    1.084   .     S
C314   C837    1.386   .     S
C315   H332    1.081   .     S
C315   C836    1.386   1_554 S
C316   H331    1.084   .     S
C316   C839    1.386   1_554 S
C317   H333    1.081   .     S
C317   C838    1.386   .     S
C318   H334    1.084   .     S
C319   C322    1.397   .     A
C319   H335    1.084   .     S
C319   C205    1.370   1_655 S
C320   C322    1.397   .     A
C320   H336    1.084   .     S
C320   C202    1.370   1_655 S
C321   H324    1.084   .     S
N337   Zn347   2.009   .     S
N338   Zn348   2.009   .     S
O339   Zn347   1.999   .     S
O340   Zn348   1.999   .     S
O341   Zn347   1.998   .     S
O342   Zn348   1.998   .     S
O343   Zn347   2.010   .     S
O344   Zn348   2.010   .     S
O345   Zn347   2.012   .     S
O346   Zn348   2.012   .     S
Br349  C359    1.939   .     S
Br350  C360    1.939   .     S
C351   O400    1.282   .     A
C351   C352    1.418   .     S
C351   O397    1.282   .     A
C352   C379    1.397   .     A
C352   C376    1.397   .     A
C353   H383    1.082   .     S
C353   N396    1.366   .     A
C354   H384    1.082   .     S
C354   N395    1.366   .     A
C354   C7      1.416   1_565 S
C355   N396    1.366   .     A
C355   H385    1.081   .     S
C356   N395    1.366   .     A
C356   H386    1.081   .     S
C356   C5      1.416   1_565 S
C357   C363    1.427   .     S
C357   O404    1.283   .     A
C357   O401    1.284   .     A
C358   O403    1.283   .     A
C358   O402    1.284   .     A
C358   C361    1.427   .     S
C359   C370    1.400   .     A
C359   C361    1.404   .     A
C360   C363    1.404   .     A
C360   C371    1.400   .     A
C361   C364    1.390   .     A
C362   C380    1.418   .     S
C362   O399    1.282   .     A
C362   O398    1.282   .     A
C363   C365    1.390   .     A
C364   H381    1.086   .     S
C364   C366    1.379   .     A
C365   H387    1.086   .     S
C365   C367    1.379   .     A
C366   C372    1.396   .     A
C366   C368    1.410   .     A
C367   C369    1.410   .     A
C367   C374    1.396   .     A
C368   C370    1.419   .     A
C368   C891    1.398   .     S
C369   C371    1.419   .     A
C369   C890    1.398   1_554 S
C370   C375    1.405   .     A
C371   C373    1.405   .     A
C372   H388    1.084   .     S
C372   C895    1.386   .     S
C373   H390    1.081   .     S
C373   C894    1.386   1_554 S
C374   H389    1.084   .     S
C374   C897    1.386   1_554 S
C375   H391    1.081   .     S
C375   C896    1.386   .     S
C376   H392    1.084   .     S
C376   C494    1.370   1_455 S
C377   C380    1.397   .     A
C377   H393    1.084   .     S
C377   C437    1.370   .     S
C378   C380    1.397   .     A
C378   H394    1.084   .     S
C378   C434    1.370   .     S
C379   H382    1.084   .     S
C379   C493    1.370   1_455 S
N395   Zn405   2.009   .     S
N396   Zn406   2.009   .     S
O397   Zn405   1.999   .     S
O398   Zn406   1.999   .     S
O399   Zn405   1.998   .     S
O400   Zn406   1.998   .     S
O401   Zn405   2.010   .     S
O402   Zn406   2.010   .     S
O403   Zn405   2.012   .     S
O404   Zn406   2.012   .     S
Br407  C417    1.939   .     S
Br408  C418    1.939   .     S
C409   O458    1.282   .     A
C409   C410    1.418   .     S
C409   O455    1.282   .     A
C410   C437    1.397   .     A
C410   C434    1.397   .     A
C411   H441    1.082   .     S
C411   N454    1.366   .     A
C412   H442    1.082   .     S
C412   N453    1.366   .     A
C412   C65     1.416   1_565 S
C413   N454    1.366   .     A
C413   H443    1.081   .     S
C414   N453    1.366   .     A
C414   H444    1.081   .     S
C414   C63     1.416   1_565 S
C415   C421    1.427   .     S
C415   O462    1.283   .     A
C415   O459    1.284   .     A
C416   O461    1.283   .     A
C416   O460    1.284   .     A
C416   C419    1.427   .     S
C417   C428    1.400   .     A
C417   C419    1.404   .     A
C418   C421    1.404   .     A
C418   C429    1.400   .     A
C419   C422    1.390   .     A
C420   C438    1.418   .     S
C420   O457    1.282   .     A
C420   O456    1.282   .     A
C421   C423    1.390   .     A
C422   H439    1.086   .     S
C422   C424    1.379   .     A
C423   H445    1.086   .     S
C423   C425    1.379   .     A
C424   C430    1.396   .     A
C424   C426    1.410   .     A
C425   C427    1.410   .     A
C425   C432    1.396   .     A
C426   C428    1.419   .     A
C426   C949    1.398   .     S
C427   C429    1.419   .     A
C427   C948    1.398   1_554 S
C428   C433    1.405   .     A
C429   C431    1.405   .     A
C430   H446    1.084   .     S
C430   C953    1.386   .     S
C431   H448    1.081   .     S
C431   C952    1.386   1_554 S
C432   H447    1.084   .     S
C432   C955    1.386   1_554 S
C433   H449    1.081   .     S
C433   C954    1.386   .     S
C434   H450    1.084   .     S
C435   C438    1.397   .     A
C435   H451    1.084   .     S
C435   C495    1.370   .     S
C436   C438    1.397   .     A
C436   H452    1.084   .     S
C436   C492    1.370   .     S
C437   H440    1.084   .     S
N453   Zn463   2.009   .     S
N454   Zn464   2.009   .     S
O455   Zn463   1.999   .     S
O456   Zn464   1.999   .     S
O457   Zn463   1.998   .     S
O458   Zn464   1.998   .     S
O459   Zn463   2.010   .     S
O460   Zn464   2.010   .     S
O461   Zn463   2.012   .     S
O462   Zn464   2.012   .     S
Br465  C475    1.939   .     S
Br466  C476    1.939   .     S
C467   O516    1.282   .     A
C467   C468    1.418   .     S
C467   O513    1.282   .     A
C468   C495    1.397   .     A
C468   C492    1.397   .     A
C469   H499    1.082   .     S
C469   N512    1.366   .     A
C470   H500    1.082   .     S
C470   N511    1.366   .     A
C470   C123    1.416   1_565 S
C471   N512    1.366   .     A
C471   H501    1.081   .     S
C472   N511    1.366   .     A
C472   H502    1.081   .     S
C472   C121    1.416   1_565 S
C473   C479    1.427   .     S
C473   O520    1.283   .     A
C473   O517    1.284   .     A
C474   O519    1.283   .     A
C474   O518    1.284   .     A
C474   C477    1.427   .     S
C475   C486    1.400   .     A
C475   C477    1.404   .     A
C476   C479    1.404   .     A
C476   C487    1.400   .     A
C477   C480    1.390   .     A
C478   C496    1.418   .     S
C478   O515    1.282   .     A
C478   O514    1.282   .     A
C479   C481    1.390   .     A
C480   H497    1.086   .     S
C480   C482    1.379   .     A
C481   H503    1.086   .     S
C481   C483    1.379   .     A
C482   C488    1.396   .     A
C482   C484    1.410   .     A
C483   C485    1.410   .     A
C483   C490    1.396   .     A
C484   C486    1.419   .     A
C484   C1007   1.398   .     S
C485   C487    1.419   .     A
C485   C1006   1.398   1_554 S
C486   C491    1.405   .     A
C487   C489    1.405   .     A
C488   H504    1.084   .     S
C488   C1011   1.386   .     S
C489   H506    1.081   .     S
C489   C1010   1.386   1_554 S
C490   H505    1.084   .     S
C490   C1013   1.386   1_554 S
C491   H507    1.081   .     S
C491   C1012   1.386   .     S
C492   H508    1.084   .     S
C493   C496    1.397   .     A
C493   H509    1.084   .     S
C493   C379    1.370   1_655 S
C494   C496    1.397   .     A
C494   H510    1.084   .     S
C494   C376    1.370   1_655 S
C495   H498    1.084   .     S
N511   Zn521   2.009   .     S
N512   Zn522   2.009   .     S
O513   Zn521   1.999   .     S
O514   Zn522   1.999   .     S
O515   Zn521   1.998   .     S
O516   Zn522   1.998   .     S
O517   Zn521   2.010   .     S
O518   Zn522   2.010   .     S
O519   Zn521   2.012   .     S
O520   Zn522   2.012   .     S
Br523  C533    1.939   .     S
Br524  C534    1.939   .     S
C525   O574    1.282   .     A
C525   C526    1.418   .     S
C525   O571    1.282   .     A
C526   C553    1.397   .     A
C526   C550    1.397   .     A
C527   H557    1.082   .     S
C527   N570    1.366   .     A
C527   C878    1.416   1_545 S
C528   H558    1.082   .     S
C528   N569    1.366   .     A
C528   C703    1.416   .     S
C529   N570    1.366   .     A
C529   H559    1.081   .     S
C529   C876    1.416   1_545 S
C530   N569    1.366   .     A
C530   H560    1.081   .     S
C530   C701    1.416   .     S
C531   C537    1.427   .     S
C531   O578    1.283   .     A
C531   O575    1.284   .     A
C532   O577    1.283   .     A
C532   O576    1.284   .     A
C532   C535    1.427   .     S
C533   C544    1.400   .     A
C533   C535    1.404   .     A
C534   C537    1.404   .     A
C534   C545    1.400   .     A
C535   C538    1.390   .     A
C536   C554    1.418   .     S
C536   O573    1.282   .     A
C536   O572    1.282   .     A
C537   C539    1.390   .     A
C538   H555    1.086   .     S
C538   C540    1.379   .     A
C539   H561    1.086   .     S
C539   C541    1.379   .     A
C540   C546    1.396   .     A
C540   C542    1.410   .     A
C541   C543    1.410   .     A
C541   C548    1.396   .     A
C542   C544    1.419   .     A
C542   C21     1.398   1_556 S
C543   C545    1.419   .     A
C544   C549    1.405   .     A
C545   C547    1.405   .     A
C546   H562    1.084   .     S
C546   C25     1.386   1_556 S
C547   H564    1.081   .     S
C548   H563    1.084   .     S
C549   H565    1.081   .     S
C549   C26     1.386   1_556 S
C550   H566    1.084   .     S
C550   C668    1.370   1_455 S
C551   C554    1.397   .     A
C551   H567    1.084   .     S
C551   C611    1.370   .     S
C552   C554    1.397   .     A
C552   H568    1.084   .     S
C552   C608    1.370   .     S
C553   H556    1.084   .     S
C553   C667    1.370   1_455 S
N569   Zn579   2.009   .     S
N570   Zn580   2.009   .     S
O571   Zn579   1.999   .     S
O572   Zn580   1.999   .     S
O573   Zn579   1.998   .     S
O574   Zn580   1.998   .     S
O575   Zn579   2.010   .     S
O576   Zn580   2.010   .     S
O577   Zn579   2.012   .     S
O578   Zn580   2.012   .     S
Br581  C591    1.939   .     S
Br582  C592    1.939   .     S
C583   O632    1.282   .     A
C583   C584    1.418   .     S
C583   O629    1.282   .     A
C584   C611    1.397   .     A
C584   C608    1.397   .     A
C585   H615    1.082   .     S
C585   N628    1.366   .     A
C585   C936    1.416   1_545 S
C586   H616    1.082   .     S
C586   N627    1.366   .     A
C586   C761    1.416   .     S
C587   N628    1.366   .     A
C587   H617    1.081   .     S
C587   C934    1.416   1_545 S
C588   N627    1.366   .     A
C588   H618    1.081   .     S
C588   C759    1.416   .     S
C589   C595    1.427   .     S
C589   O636    1.283   .     A
C589   O633    1.284   .     A
C590   O635    1.283   .     A
C590   O634    1.284   .     A
C590   C593    1.427   .     S
C591   C602    1.400   .     A
C591   C593    1.404   .     A
C592   C595    1.404   .     A
C592   C603    1.400   .     A
C593   C596    1.390   .     A
C594   C612    1.418   .     S
C594   O631    1.282   .     A
C594   O630    1.282   .     A
C595   C597    1.390   .     A
C596   H613    1.086   .     S
C596   C598    1.379   .     A
C597   H619    1.086   .     S
C597   C599    1.379   .     A
C598   C604    1.396   .     A
C598   C600    1.410   .     A
C599   C601    1.410   .     A
C599   C606    1.396   .     A
C600   C602    1.419   .     A
C600   C79     1.398   1_556 S
C601   C603    1.419   .     A
C602   C607    1.405   .     A
C603   C605    1.405   .     A
C604   H620    1.084   .     S
C604   C83     1.386   1_556 S
C605   H622    1.081   .     S
C606   H621    1.084   .     S
C607   H623    1.081   .     S
C607   C84     1.386   1_556 S
C608   H624    1.084   .     S
C609   C612    1.397   .     A
C609   H625    1.084   .     S
C609   C669    1.370   .     S
C610   C612    1.397   .     A
C610   H626    1.084   .     S
C610   C666    1.370   .     S
C611   H614    1.084   .     S
N627   Zn637   2.009   .     S
N628   Zn638   2.009   .     S
O629   Zn637   1.999   .     S
O630   Zn638   1.999   .     S
O631   Zn637   1.998   .     S
O632   Zn638   1.998   .     S
O633   Zn637   2.010   .     S
O634   Zn638   2.010   .     S
O635   Zn637   2.012   .     S
O636   Zn638   2.012   .     S
Br639  C649    1.939   .     S
Br640  C650    1.939   .     S
C641   O690    1.282   .     A
C641   C642    1.418   .     S
C641   O687    1.282   .     A
C642   C669    1.397   .     A
C642   C666    1.397   .     A
C643   H673    1.082   .     S
C643   N686    1.366   .     A
C643   C994    1.416   1_545 S
C644   H674    1.082   .     S
C644   N685    1.366   .     A
C644   C819    1.416   .     S
C645   N686    1.366   .     A
C645   H675    1.081   .     S
C645   C992    1.416   1_545 S
C646   N685    1.366   .     A
C646   H676    1.081   .     S
C646   C817    1.416   .     S
C647   C653    1.427   .     S
C647   O694    1.283   .     A
C647   O691    1.284   .     A
C648   O693    1.283   .     A
C648   O692    1.284   .     A
C648   C651    1.427   .     S
C649   C660    1.400   .     A
C649   C651    1.404   .     A
C650   C653    1.404   .     A
C650   C661    1.400   .     A
C651   C654    1.390   .     A
C652   C670    1.418   .     S
C652   O689    1.282   .     A
C652   O688    1.282   .     A
C653   C655    1.390   .     A
C654   H671    1.086   .     S
C654   C656    1.379   .     A
C655   H677    1.086   .     S
C655   C657    1.379   .     A
C656   C662    1.396   .     A
C656   C658    1.410   .     A
C657   C659    1.410   .     A
C657   C664    1.396   .     A
C658   C660    1.419   .     A
C658   C137    1.398   1_556 S
C659   C661    1.419   .     A
C660   C665    1.405   .     A
C661   C663    1.405   .     A
C662   H678    1.084   .     S
C662   C141    1.386   1_556 S
C663   H680    1.081   .     S
C664   H679    1.084   .     S
C665   H681    1.081   .     S
C665   C142    1.386   1_556 S
C666   H682    1.084   .     S
C667   C670    1.397   .     A
C667   H683    1.084   .     S
C667   C553    1.370   1_655 S
C668   C670    1.397   .     A
C668   H684    1.084   .     S
C668   C550    1.370   1_655 S
C669   H672    1.084   .     S
N685   Zn695   2.009   .     S
N686   Zn696   2.009   .     S
O687   Zn695   1.999   .     S
O688   Zn696   1.999   .     S
O689   Zn695   1.998   .     S
O690   Zn696   1.998   .     S
O691   Zn695   2.010   .     S
O692   Zn696   2.010   .     S
O693   Zn695   2.012   .     S
O694   Zn696   2.012   .     S
Br697  C707    1.939   .     S
Br698  C708    1.939   .     S
C699   O748    1.282   .     A
C699   C700    1.418   .     S
C699   O745    1.282   .     A
C700   C727    1.397   .     A
C700   C724    1.397   .     A
C701   H731    1.082   .     S
C701   N744    1.366   .     A
C702   H732    1.082   .     S
C702   N743    1.366   .     A
C702   C877    1.416   .     S
C703   N744    1.366   .     A
C703   H733    1.081   .     S
C704   N743    1.366   .     A
C704   H734    1.081   .     S
C704   C875    1.416   .     S
C705   C711    1.427   .     S
C705   O752    1.283   .     A
C705   O749    1.284   .     A
C706   O751    1.283   .     A
C706   O750    1.284   .     A
C706   C709    1.427   .     S
C707   C718    1.400   .     A
C707   C709    1.404   .     A
C708   C711    1.404   .     A
C708   C719    1.400   .     A
C709   C712    1.390   .     A
C710   C728    1.418   .     S
C710   O747    1.282   .     A
C710   O746    1.282   .     A
C711   C713    1.390   .     A
C712   H729    1.086   .     S
C712   C714    1.379   .     A
C713   H735    1.086   .     S
C713   C715    1.379   .     A
C714   C720    1.396   .     A
C714   C716    1.410   .     A
C715   C717    1.410   .     A
C715   C722    1.396   .     A
C716   C718    1.419   .     A
C716   C195    1.398   1_556 S
C717   C719    1.419   .     A
C718   C723    1.405   .     A
C719   C721    1.405   .     A
C720   H736    1.084   .     S
C720   C199    1.386   1_556 S
C721   H738    1.081   .     S
C722   H737    1.084   .     S
C723   H739    1.081   .     S
C723   C200    1.386   1_556 S
C724   H740    1.084   .     S
C724   C842    1.370   1_455 S
C725   C728    1.397   .     A
C725   H741    1.084   .     S
C725   C785    1.370   .     S
C726   C728    1.397   .     A
C726   H742    1.084   .     S
C726   C782    1.370   .     S
C727   H730    1.084   .     S
C727   C841    1.370   1_455 S
N743   Zn753   2.009   .     S
N744   Zn754   2.009   .     S
O745   Zn753   1.999   .     S
O746   Zn754   1.999   .     S
O747   Zn753   1.998   .     S
O748   Zn754   1.998   .     S
O749   Zn753   2.010   .     S
O750   Zn754   2.010   .     S
O751   Zn753   2.012   .     S
O752   Zn754   2.012   .     S
Br755  C765    1.939   .     S
Br756  C766    1.939   .     S
C757   O806    1.282   .     A
C757   C758    1.418   .     S
C757   O803    1.282   .     A
C758   C785    1.397   .     A
C758   C782    1.397   .     A
C759   H789    1.082   .     S
C759   N802    1.366   .     A
C760   H790    1.082   .     S
C760   N801    1.366   .     A
C760   C935    1.416   .     S
C761   N802    1.366   .     A
C761   H791    1.081   .     S
C762   N801    1.366   .     A
C762   H792    1.081   .     S
C762   C933    1.416   .     S
C763   C769    1.427   .     S
C763   O810    1.283   .     A
C763   O807    1.284   .     A
C764   O809    1.283   .     A
C764   O808    1.284   .     A
C764   C767    1.427   .     S
C765   C776    1.400   .     A
C765   C767    1.404   .     A
C766   C769    1.404   .     A
C766   C777    1.400   .     A
C767   C770    1.390   .     A
C768   C786    1.418   .     S
C768   O805    1.282   .     A
C768   O804    1.282   .     A
C769   C771    1.390   .     A
C770   H787    1.086   .     S
C770   C772    1.379   .     A
C771   H793    1.086   .     S
C771   C773    1.379   .     A
C772   C778    1.396   .     A
C772   C774    1.410   .     A
C773   C775    1.410   .     A
C773   C780    1.396   .     A
C774   C776    1.419   .     A
C774   C253    1.398   1_556 S
C775   C777    1.419   .     A
C776   C781    1.405   .     A
C777   C779    1.405   .     A
C778   H794    1.084   .     S
C778   C257    1.386   1_556 S
C779   H796    1.081   .     S
C780   H795    1.084   .     S
C781   H797    1.081   .     S
C781   C258    1.386   1_556 S
C782   H798    1.084   .     S
C783   C786    1.397   .     A
C783   H799    1.084   .     S
C783   C843    1.370   .     S
C784   C786    1.397   .     A
C784   H800    1.084   .     S
C784   C840    1.370   .     S
C785   H788    1.084   .     S
N801   Zn811   2.009   .     S
N802   Zn812   2.009   .     S
O803   Zn811   1.999   .     S
O804   Zn812   1.999   .     S
O805   Zn811   1.998   .     S
O806   Zn812   1.998   .     S
O807   Zn811   2.010   .     S
O808   Zn812   2.010   .     S
O809   Zn811   2.012   .     S
O810   Zn812   2.012   .     S
Br813  C823    1.939   .     S
Br814  C824    1.939   .     S
C815   O864    1.282   .     A
C815   C816    1.418   .     S
C815   O861    1.282   .     A
C816   C843    1.397   .     A
C816   C840    1.397   .     A
C817   H847    1.082   .     S
C817   N860    1.366   .     A
C818   H848    1.082   .     S
C818   N859    1.366   .     A
C818   C993    1.416   .     S
C819   N860    1.366   .     A
C819   H849    1.081   .     S
C820   N859    1.366   .     A
C820   H850    1.081   .     S
C820   C991    1.416   .     S
C821   C827    1.427   .     S
C821   O868    1.283   .     A
C821   O865    1.284   .     A
C822   O867    1.283   .     A
C822   O866    1.284   .     A
C822   C825    1.427   .     S
C823   C834    1.400   .     A
C823   C825    1.404   .     A
C824   C827    1.404   .     A
C824   C835    1.400   .     A
C825   C828    1.390   .     A
C826   C844    1.418   .     S
C826   O863    1.282   .     A
C826   O862    1.282   .     A
C827   C829    1.390   .     A
C828   H845    1.086   .     S
C828   C830    1.379   .     A
C829   H851    1.086   .     S
C829   C831    1.379   .     A
C830   C836    1.396   .     A
C830   C832    1.410   .     A
C831   C833    1.410   .     A
C831   C838    1.396   .     A
C832   C834    1.419   .     A
C832   C311    1.398   1_556 S
C833   C835    1.419   .     A
C834   C839    1.405   .     A
C835   C837    1.405   .     A
C836   H852    1.084   .     S
C836   C315    1.386   1_556 S
C837   H854    1.081   .     S
C838   H853    1.084   .     S
C839   H855    1.081   .     S
C839   C316    1.386   1_556 S
C840   H856    1.084   .     S
C841   C844    1.397   .     A
C841   H857    1.084   .     S
C841   C727    1.370   1_655 S
C842   C844    1.397   .     A
C842   H858    1.084   .     S
C842   C724    1.370   1_655 S
C843   H846    1.084   .     S
N859   Zn869   2.009   .     S
N860   Zn870   2.009   .     S
O861   Zn869   1.999   .     S
O862   Zn870   1.999   .     S
O863   Zn869   1.998   .     S
O864   Zn870   1.998   .     S
O865   Zn869   2.010   .     S
O866   Zn870   2.010   .     S
O867   Zn869   2.012   .     S
O868   Zn870   2.012   .     S
Br871  C881    1.939   .     S
Br872  C882    1.939   .     S
C873   O922    1.282   .     A
C873   C874    1.418   .     S
C873   O919    1.282   .     A
C874   C901    1.397   .     A
C874   C898    1.397   .     A
C875   H905    1.082   .     S
C875   N918    1.366   .     A
C876   H906    1.082   .     S
C876   N917    1.366   .     A
C876   C529    1.416   1_565 S
C877   N918    1.366   .     A
C877   H907    1.081   .     S
C878   N917    1.366   .     A
C878   H908    1.081   .     S
C878   C527    1.416   1_565 S
C879   C885    1.427   .     S
C879   O926    1.283   .     A
C879   O923    1.284   .     A
C880   O925    1.283   .     A
C880   O924    1.284   .     A
C880   C883    1.427   .     S
C881   C892    1.400   .     A
C881   C883    1.404   .     A
C882   C885    1.404   .     A
C882   C893    1.400   .     A
C883   C886    1.390   .     A
C884   C902    1.418   .     S
C884   O921    1.282   .     A
C884   O920    1.282   .     A
C885   C887    1.390   .     A
C886   H903    1.086   .     S
C886   C888    1.379   .     A
C887   H909    1.086   .     S
C887   C889    1.379   .     A
C888   C894    1.396   .     A
C888   C890    1.410   .     A
C889   C891    1.410   .     A
C889   C896    1.396   .     A
C890   C892    1.419   .     A
C890   C369    1.398   1_556 S
C891   C893    1.419   .     A
C892   C897    1.405   .     A
C893   C895    1.405   .     A
C894   H910    1.084   .     S
C894   C373    1.386   1_556 S
C895   H912    1.081   .     S
C896   H911    1.084   .     S
C897   H913    1.081   .     S
C897   C374    1.386   1_556 S
C898   H914    1.084   .     S
C898   C1016   1.370   1_455 S
C899   C902    1.397   .     A
C899   H915    1.084   .     S
C899   C959    1.370   .     S
C900   C902    1.397   .     A
C900   H916    1.084   .     S
C900   C956    1.370   .     S
C901   H904    1.084   .     S
C901   C1015   1.370   1_455 S
N917   Zn927   2.009   .     S
N918   Zn928   2.009   .     S
O919   Zn927   1.999   .     S
O920   Zn928   1.999   .     S
O921   Zn927   1.998   .     S
O922   Zn928   1.998   .     S
O923   Zn927   2.010   .     S
O924   Zn928   2.010   .     S
O925   Zn927   2.012   .     S
O926   Zn928   2.012   .     S
Br929  C939    1.939   .     S
Br930  C940    1.939   .     S
C931   O980    1.282   .     A
C931   C932    1.418   .     S
C931   O977    1.282   .     A
C932   C959    1.397   .     A
C932   C956    1.397   .     A
C933   H963    1.082   .     S
C933   N976    1.366   .     A
C934   H964    1.082   .     S
C934   N975    1.366   .     A
C934   C587    1.416   1_565 S
C935   N976    1.366   .     A
C935   H965    1.081   .     S
C936   N975    1.366   .     A
C936   H966    1.081   .     S
C936   C585    1.416   1_565 S
C937   C943    1.427   .     S
C937   O984    1.283   .     A
C937   O981    1.284   .     A
C938   O983    1.283   .     A
C938   O982    1.284   .     A
C938   C941    1.427   .     S
C939   C950    1.400   .     A
C939   C941    1.404   .     A
C940   C943    1.404   .     A
C940   C951    1.400   .     A
C941   C944    1.390   .     A
C942   C960    1.418   .     S
C942   O979    1.282   .     A
C942   O978    1.282   .     A
C943   C945    1.390   .     A
C944   H961    1.086   .     S
C944   C946    1.379   .     A
C945   H967    1.086   .     S
C945   C947    1.379   .     A
C946   C952    1.396   .     A
C946   C948    1.410   .     A
C947   C949    1.410   .     A
C947   C954    1.396   .     A
C948   C950    1.419   .     A
C948   C427    1.398   1_556 S
C949   C951    1.419   .     A
C950   C955    1.405   .     A
C951   C953    1.405   .     A
C952   H968    1.084   .     S
C952   C431    1.386   1_556 S
C953   H970    1.081   .     S
C954   H969    1.084   .     S
C955   H971    1.081   .     S
C955   C432    1.386   1_556 S
C956   H972    1.084   .     S
C957   C960    1.397   .     A
C957   H973    1.084   .     S
C957   C1017   1.370   .     S
C958   C960    1.397   .     A
C958   H974    1.084   .     S
C958   C1014   1.370   .     S
C959   H962    1.084   .     S
N975   Zn985   2.009   .     S
N976   Zn986   2.009   .     S
O977   Zn985   1.999   .     S
O978   Zn986   1.999   .     S
O979   Zn985   1.998   .     S
O980   Zn986   1.998   .     S
O981   Zn985   2.010   .     S
O982   Zn986   2.010   .     S
O983   Zn985   2.012   .     S
O984   Zn986   2.012   .     S
Br987  C997    1.939   .     S
Br988  C998    1.939   .     S
C989   O1038   1.282   .     A
C989   C990    1.418   .     S
C989   O1035   1.282   .     A
C990   C1017   1.397   .     A
C990   C1014   1.397   .     A
C991   H1021   1.082   .     S
C991   N1034   1.366   .     A
C992   H1022   1.082   .     S
C992   N1033   1.366   .     A
C992   C645    1.416   1_565 S
C993   N1034   1.366   .     A
C993   H1023   1.081   .     S
C994   N1033   1.366   .     A
C994   H1024   1.081   .     S
C994   C643    1.416   1_565 S
C995   C1001   1.427   .     S
C995   O1042   1.283   .     A
C995   O1039   1.284   .     A
C996   O1041   1.283   .     A
C996   O1040   1.284   .     A
C996   C999    1.427   .     S
C997   C1008   1.400   .     A
C997   C999    1.404   .     A
C998   C1001   1.404   .     A
C998   C1009   1.400   .     A
C999   C1002   1.390   .     A
C1000  C1018   1.418   .     S
C1000  O1037   1.282   .     A
C1000  O1036   1.282   .     A
C1001  C1003   1.390   .     A
C1002  H1019   1.086   .     S
C1002  C1004   1.379   .     A
C1003  H1025   1.086   .     S
C1003  C1005   1.379   .     A
C1004  C1010   1.396   .     A
C1004  C1006   1.410   .     A
C1005  C1007   1.410   .     A
C1005  C1012   1.396   .     A
C1006  C1008   1.419   .     A
C1006  C485    1.398   1_556 S
C1007  C1009   1.419   .     A
C1008  C1013   1.405   .     A
C1009  C1011   1.405   .     A
C1010  H1026   1.084   .     S
C1010  C489    1.386   1_556 S
C1011  H1028   1.081   .     S
C1012  H1027   1.084   .     S
C1013  H1029   1.081   .     S
C1013  C490    1.386   1_556 S
C1014  H1030   1.084   .     S
C1015  C1018   1.397   .     A
C1015  H1031   1.084   .     S
C1015  C901    1.370   1_655 S
C1016  C1018   1.397   .     A
C1016  H1032   1.084   .     S
C1016  C898    1.370   1_655 S
C1017  H1020   1.084   .     S
N1033  Zn1043  2.009   .     S
N1034  Zn1044  2.009   .     S
O1035  Zn1043  1.999   .     S
O1036  Zn1044  1.999   .     S
O1037  Zn1043  1.998   .     S
O1038  Zn1044  1.998   .     S
O1039  Zn1043  2.010   .     S
O1040  Zn1044  2.010   .     S
O1041  Zn1043  2.012   .     S
O1042  Zn1044  2.012   .     S
