data_str_m3_o1_o16_pcu_sym.176
_audit_creation_date              2020-01-03
_audit_creation_method            'Materials Studio'
_symmetry_space_group_name_H-M    'P1'
_symmetry_Int_Tables_number       1
_symmetry_cell_setting            triclinic
loop_
_symmetry_equiv_pos_as_xyz
  x,y,z
_cell_length_a                    29.5574
_cell_length_b                    32.0428
_cell_length_c                    26.2583
_cell_angle_alpha                 90.3032
_cell_angle_beta                  69.9181
_cell_angle_gamma                 90.2273
loop_
_atom_site_label
_atom_site_type_symbol
_atom_site_fract_x
_atom_site_fract_y
_atom_site_fract_z
_atom_site_U_iso_or_equiv
_atom_site_adp_type
_atom_site_occupancy
C1     C     0.16675   0.24668   0.24992   0.00000  Uiso   1.00
C2     C     0.14503   0.16375   0.49162   0.00000  Uiso   1.00
C3     C     0.15275   0.14945   0.43851   0.00000  Uiso   1.00
C4     C     0.18143   0.15653   0.01418   0.00000  Uiso   1.00
C5     C     0.22120   0.13032   0.48702   0.00000  Uiso   1.00
C6     C     0.22486   0.11230   0.43744   0.00000  Uiso   1.00
C7     C     0.19100   0.12159   0.41351   0.00000  Uiso   1.00
C8     C     0.17919   0.17439   0.06340   0.00000  Uiso   1.00
C9     C     0.24988   0.13626   0.06271   0.00000  Uiso   1.00
C10    C     0.12248   0.16408   0.41114   0.00000  Uiso   1.00
C11    C     0.21060   0.31205   0.22920   0.00000  Uiso   1.00
C12    C     0.13992   0.16498   0.35211   0.00000  Uiso   1.00
C13    C     0.21057   0.02148   0.22935   0.00000  Uiso   1.00
C14    C     0.16665   0.04253   0.24929   0.00000  Uiso   1.00
C15    C     0.12277   0.02129   0.26885   0.00000  Uiso   1.00
C16    C     0.12283   0.31187   0.26908   0.00000  Uiso   1.00
C17    C     0.16678   0.29082   0.24949   0.00000  Uiso   1.00
C18    C     0.31859   0.13895   0.21882   0.00000  Uiso   1.00
C19    C     0.03377   0.13920   0.21788   0.00000  Uiso   1.00
C20    C     0.01450   0.19392   0.28192   0.00000  Uiso   1.00
C21    C     0.29968   0.19469   0.28143   0.00000  Uiso   1.00
C22    C     0.16665   0.08666   0.24976   0.00000  Uiso   1.00
C23    C     0.19346   0.16666   0.14788   0.00000  Uiso   1.00
C24    C     0.25598   0.12148   0.01080   0.00000  Uiso   1.00
C25    C     0.21016   0.16140   0.08958   0.00000  Uiso   1.00
C26    C     0.07916   0.18425   0.43984   0.00000  Uiso   1.00
C27    C     0.06794   0.19312   0.49455   0.00000  Uiso   1.00
C28    C     0.10109   0.18439   0.01997   0.00000  Uiso   1.00
H29    H     0.27426   0.12607   0.08292   0.00000  Uiso   1.00
H30    H     0.24459   0.03800   0.21350   0.00000  Uiso   1.00
H31    H     0.08871   0.03765   0.28460   0.00000  Uiso   1.00
H32    H     0.08881   0.29537   0.28502   0.00000  Uiso   1.00
H33    H     0.30710   0.11644   0.19495   0.00000  Uiso   1.00
H34    H     0.02540   0.21476   0.30808   0.00000  Uiso   1.00
H35    H     0.25411   0.09120   0.41693   0.00000  Uiso   1.00
H36    H     0.28628   0.10135   0.49055   0.00000  Uiso   1.00
H37    H     0.15149   0.19643   0.08437   0.00000  Uiso   1.00
H38    H     0.05506   0.19482   0.41947   0.00000  Uiso   1.00
H39    H     0.09074   0.19332   0.06202   0.00000  Uiso   1.00
H40    H     0.03448   0.20872   0.01672   0.00000  Uiso   1.00
H41    H     0.19475   0.10633   0.37541   0.00000  Uiso   1.00
H42    H     0.24461   0.29567   0.21305   0.00000  Uiso   1.00
N43    N     0.04760   0.16668   0.25001   0.00000  Uiso   1.00
N44    N     0.28573   0.16665   0.25001   0.00000  Uiso   1.00
O45    O     0.12846   0.22775   0.25001   0.00000  Uiso   1.00
O46    O     0.20490   0.22774   0.25001   0.00000  Uiso   1.00
O47    O     0.10947   0.16666   0.32681   0.00000  Uiso   1.00
O48    O     0.18591   0.16665   0.32681   0.00000  Uiso   1.00
O49    O     0.12843   0.10559   0.25000   0.00000  Uiso   1.00
O50    O     0.20488   0.10558   0.25000   0.00000  Uiso   1.00
O51    O     0.14742   0.16668   0.17319   0.00000  Uiso   1.00
O52    O     0.22387   0.16667   0.17319   0.00000  Uiso   1.00
Zn53   Zn    0.11562   0.16667   0.25000   0.00000  Uiso   1.00
Zn54   Zn    0.21771   0.16666   0.25000   0.00000  Uiso   1.00
O55    O     0.06641   0.10944   0.18865   0.00000  Uiso   1.00
C56    C     0.07181   0.11019   0.13290   0.00000  Uiso   1.00
H57    H     0.11056   0.11496   0.10963   0.00000  Uiso   1.00
H58    H     0.05203   0.13593   0.12121   0.00000  Uiso   1.00
C59    C     0.05683   0.06816   0.11575   0.00000  Uiso   1.00
H60    H     0.07895   0.04296   0.12428   0.00000  Uiso   1.00
H61    H     0.01840   0.06175   0.13936   0.00000  Uiso   1.00
C62    C     0.06381   0.06777   0.05536   0.00000  Uiso   1.00
H63    H     0.04133   0.09228   0.04607   0.00000  Uiso   1.00
H64    H     0.05286   0.03693   0.04395   0.00000  Uiso   1.00
H65    H     0.10225   0.07335   0.03083   0.00000  Uiso   1.00
O66    O     0.26495   0.22042   0.31627   0.00000  Uiso   1.00
C67    C     0.27996   0.26271   0.31254   0.00000  Uiso   1.00
H68    H     0.25183   0.28160   0.30441   0.00000  Uiso   1.00
H69    H     0.31432   0.26942   0.27873   0.00000  Uiso   1.00
C70    C     0.28330   0.27725   0.36676   0.00000  Uiso   1.00
H71    H     0.24781   0.27270   0.39931   0.00000  Uiso   1.00
H72    H     0.31039   0.25837   0.37698   0.00000  Uiso   1.00
C73    C     0.29738   0.32326   0.36490   0.00000  Uiso   1.00
H74    H     0.33321   0.32843   0.33331   0.00000  Uiso   1.00
H75    H     0.29928   0.33293   0.40479   0.00000  Uiso   1.00
H76    H     0.27018   0.00958   0.35590   0.00000  Uiso   1.00
C77    C     0.50008   0.24668   0.24992   0.00000  Uiso   1.00
C78    C     0.47836   0.16375   0.49162   0.00000  Uiso   1.00
C79    C     0.48609   0.14945   0.43851   0.00000  Uiso   1.00
C80    C     0.51476   0.15653   0.01418   0.00000  Uiso   1.00
C81    C     0.55453   0.13032   0.48702   0.00000  Uiso   1.00
C82    C     0.55820   0.11230   0.43744   0.00000  Uiso   1.00
C83    C     0.52434   0.12159   0.41351   0.00000  Uiso   1.00
C84    C     0.51252   0.17439   0.06340   0.00000  Uiso   1.00
C85    C     0.58321   0.13626   0.06271   0.00000  Uiso   1.00
C86    C     0.45581   0.16408   0.41114   0.00000  Uiso   1.00
C87    C     0.54394   0.31205   0.22920   0.00000  Uiso   1.00
C88    C     0.47325   0.16498   0.35211   0.00000  Uiso   1.00
C89    C     0.54391   0.02148   0.22935   0.00000  Uiso   1.00
C90    C     0.49999   0.04253   0.24929   0.00000  Uiso   1.00
C91    C     0.45610   0.02129   0.26885   0.00000  Uiso   1.00
C92    C     0.45617   0.31187   0.26908   0.00000  Uiso   1.00
C93    C     0.50011   0.29082   0.24949   0.00000  Uiso   1.00
C94    C     0.65192   0.13895   0.21882   0.00000  Uiso   1.00
C95    C     0.36711   0.13920   0.21788   0.00000  Uiso   1.00
C96    C     0.34784   0.19392   0.28192   0.00000  Uiso   1.00
C97    C     0.63302   0.19469   0.28143   0.00000  Uiso   1.00
C98    C     0.49998   0.08666   0.24976   0.00000  Uiso   1.00
C99    C     0.52680   0.16666   0.14788   0.00000  Uiso   1.00
C100   C     0.58931   0.12148   0.01080   0.00000  Uiso   1.00
C101   C     0.54350   0.16140   0.08958   0.00000  Uiso   1.00
C102   C     0.41250   0.18425   0.43984   0.00000  Uiso   1.00
C103   C     0.40127   0.19312   0.49455   0.00000  Uiso   1.00
C104   C     0.43442   0.18439   0.01997   0.00000  Uiso   1.00
H105   H     0.60759   0.12607   0.08292   0.00000  Uiso   1.00
H106   H     0.57792   0.03800   0.21350   0.00000  Uiso   1.00
H107   H     0.42204   0.03765   0.28460   0.00000  Uiso   1.00
H108   H     0.42214   0.29537   0.28502   0.00000  Uiso   1.00
H109   H     0.64043   0.11644   0.19495   0.00000  Uiso   1.00
H110   H     0.35873   0.21476   0.30808   0.00000  Uiso   1.00
H111   H     0.58744   0.09120   0.41693   0.00000  Uiso   1.00
H112   H     0.61961   0.10135   0.49055   0.00000  Uiso   1.00
H113   H     0.48483   0.19643   0.08437   0.00000  Uiso   1.00
H114   H     0.38840   0.19482   0.41947   0.00000  Uiso   1.00
H115   H     0.42407   0.19332   0.06202   0.00000  Uiso   1.00
H116   H     0.36781   0.20872   0.01672   0.00000  Uiso   1.00
H117   H     0.52808   0.10633   0.37541   0.00000  Uiso   1.00
H118   H     0.57794   0.29567   0.21305   0.00000  Uiso   1.00
N119   N     0.38093   0.16668   0.25001   0.00000  Uiso   1.00
N120   N     0.61906   0.16665   0.25001   0.00000  Uiso   1.00
O121   O     0.46179   0.22775   0.25001   0.00000  Uiso   1.00
O122   O     0.53823   0.22774   0.25001   0.00000  Uiso   1.00
O123   O     0.44280   0.16666   0.32681   0.00000  Uiso   1.00
O124   O     0.51924   0.16665   0.32681   0.00000  Uiso   1.00
O125   O     0.46177   0.10559   0.25000   0.00000  Uiso   1.00
O126   O     0.53821   0.10558   0.25000   0.00000  Uiso   1.00
O127   O     0.48076   0.16668   0.17319   0.00000  Uiso   1.00
O128   O     0.55720   0.16667   0.17319   0.00000  Uiso   1.00
Zn129  Zn    0.44896   0.16667   0.25000   0.00000  Uiso   1.00
Zn130  Zn    0.55104   0.16666   0.25000   0.00000  Uiso   1.00
O131   O     0.39974   0.10944   0.18865   0.00000  Uiso   1.00
C132   C     0.40514   0.11019   0.13290   0.00000  Uiso   1.00
H133   H     0.44389   0.11496   0.10963   0.00000  Uiso   1.00
H134   H     0.38537   0.13593   0.12121   0.00000  Uiso   1.00
C135   C     0.39017   0.06816   0.11575   0.00000  Uiso   1.00
H136   H     0.41228   0.04296   0.12428   0.00000  Uiso   1.00
H137   H     0.35173   0.06175   0.13936   0.00000  Uiso   1.00
C138   C     0.39714   0.06777   0.05536   0.00000  Uiso   1.00
H139   H     0.37467   0.09228   0.04607   0.00000  Uiso   1.00
H140   H     0.38619   0.03693   0.04395   0.00000  Uiso   1.00
H141   H     0.43558   0.07335   0.03083   0.00000  Uiso   1.00
O142   O     0.59828   0.22042   0.31627   0.00000  Uiso   1.00
C143   C     0.61329   0.26271   0.31254   0.00000  Uiso   1.00
H144   H     0.58516   0.28160   0.30441   0.00000  Uiso   1.00
H145   H     0.64766   0.26942   0.27873   0.00000  Uiso   1.00
C146   C     0.61663   0.27725   0.36676   0.00000  Uiso   1.00
H147   H     0.58115   0.27270   0.39931   0.00000  Uiso   1.00
H148   H     0.64372   0.25837   0.37698   0.00000  Uiso   1.00
C149   C     0.63071   0.32326   0.36490   0.00000  Uiso   1.00
H150   H     0.66655   0.32843   0.33331   0.00000  Uiso   1.00
H151   H     0.63261   0.33293   0.40479   0.00000  Uiso   1.00
H152   H     0.60351   0.00958   0.35590   0.00000  Uiso   1.00
C153   C     0.83341   0.24668   0.24992   0.00000  Uiso   1.00
C154   C     0.81170   0.16375   0.49162   0.00000  Uiso   1.00
C155   C     0.81942   0.14945   0.43851   0.00000  Uiso   1.00
C156   C     0.84809   0.15653   0.01418   0.00000  Uiso   1.00
C157   C     0.88786   0.13032   0.48702   0.00000  Uiso   1.00
C158   C     0.89153   0.11230   0.43744   0.00000  Uiso   1.00
C159   C     0.85767   0.12159   0.41351   0.00000  Uiso   1.00
C160   C     0.84586   0.17439   0.06340   0.00000  Uiso   1.00
C161   C     0.91654   0.13626   0.06271   0.00000  Uiso   1.00
C162   C     0.78914   0.16408   0.41114   0.00000  Uiso   1.00
C163   C     0.87727   0.31205   0.22920   0.00000  Uiso   1.00
C164   C     0.80658   0.16498   0.35211   0.00000  Uiso   1.00
C165   C     0.87724   0.02148   0.22935   0.00000  Uiso   1.00
C166   C     0.83332   0.04253   0.24929   0.00000  Uiso   1.00
C167   C     0.78943   0.02129   0.26885   0.00000  Uiso   1.00
C168   C     0.78950   0.31187   0.26908   0.00000  Uiso   1.00
C169   C     0.83344   0.29082   0.24949   0.00000  Uiso   1.00
C170   C     0.98526   0.13895   0.21882   0.00000  Uiso   1.00
C171   C     0.70044   0.13920   0.21788   0.00000  Uiso   1.00
C172   C     0.68117   0.19392   0.28192   0.00000  Uiso   1.00
C173   C     0.96635   0.19469   0.28143   0.00000  Uiso   1.00
C174   C     0.83332   0.08666   0.24976   0.00000  Uiso   1.00
C175   C     0.86013   0.16666   0.14788   0.00000  Uiso   1.00
C176   C     0.92264   0.12148   0.01080   0.00000  Uiso   1.00
C177   C     0.87683   0.16140   0.08958   0.00000  Uiso   1.00
C178   C     0.74583   0.18425   0.43984   0.00000  Uiso   1.00
C179   C     0.73461   0.19312   0.49455   0.00000  Uiso   1.00
C180   C     0.76775   0.18439   0.01997   0.00000  Uiso   1.00
H181   H     0.94093   0.12607   0.08292   0.00000  Uiso   1.00
H182   H     0.91126   0.03800   0.21350   0.00000  Uiso   1.00
H183   H     0.75538   0.03765   0.28460   0.00000  Uiso   1.00
H184   H     0.75548   0.29537   0.28502   0.00000  Uiso   1.00
H185   H     0.97376   0.11644   0.19495   0.00000  Uiso   1.00
H186   H     0.69207   0.21476   0.30808   0.00000  Uiso   1.00
H187   H     0.92078   0.09120   0.41693   0.00000  Uiso   1.00
H188   H     0.95295   0.10135   0.49055   0.00000  Uiso   1.00
H189   H     0.81816   0.19643   0.08437   0.00000  Uiso   1.00
H190   H     0.72173   0.19482   0.41947   0.00000  Uiso   1.00
H191   H     0.75740   0.19332   0.06202   0.00000  Uiso   1.00
H192   H     0.70115   0.20872   0.01672   0.00000  Uiso   1.00
H193   H     0.86141   0.10633   0.37541   0.00000  Uiso   1.00
H194   H     0.91127   0.29567   0.21305   0.00000  Uiso   1.00
N195   N     0.71426   0.16668   0.25001   0.00000  Uiso   1.00
N196   N     0.95239   0.16665   0.25001   0.00000  Uiso   1.00
O197   O     0.79512   0.22775   0.25001   0.00000  Uiso   1.00
O198   O     0.87157   0.22774   0.25001   0.00000  Uiso   1.00
O199   O     0.77613   0.16666   0.32681   0.00000  Uiso   1.00
O200   O     0.85258   0.16665   0.32681   0.00000  Uiso   1.00
O201   O     0.79510   0.10559   0.25000   0.00000  Uiso   1.00
O202   O     0.87154   0.10558   0.25000   0.00000  Uiso   1.00
O203   O     0.81409   0.16668   0.17319   0.00000  Uiso   1.00
O204   O     0.89053   0.16667   0.17319   0.00000  Uiso   1.00
Zn205  Zn    0.78229   0.16667   0.25000   0.00000  Uiso   1.00
Zn206  Zn    0.88438   0.16666   0.25000   0.00000  Uiso   1.00
O207   O     0.73308   0.10944   0.18865   0.00000  Uiso   1.00
C208   C     0.73847   0.11019   0.13290   0.00000  Uiso   1.00
H209   H     0.77723   0.11496   0.10963   0.00000  Uiso   1.00
H210   H     0.71870   0.13593   0.12121   0.00000  Uiso   1.00
C211   C     0.72350   0.06816   0.11575   0.00000  Uiso   1.00
H212   H     0.74561   0.04296   0.12428   0.00000  Uiso   1.00
H213   H     0.68506   0.06175   0.13936   0.00000  Uiso   1.00
C214   C     0.73047   0.06777   0.05536   0.00000  Uiso   1.00
H215   H     0.70800   0.09228   0.04607   0.00000  Uiso   1.00
H216   H     0.71952   0.03693   0.04395   0.00000  Uiso   1.00
H217   H     0.76892   0.07335   0.03083   0.00000  Uiso   1.00
O218   O     0.93162   0.22042   0.31627   0.00000  Uiso   1.00
C219   C     0.94663   0.26271   0.31254   0.00000  Uiso   1.00
H220   H     0.91849   0.28160   0.30441   0.00000  Uiso   1.00
H221   H     0.98099   0.26942   0.27873   0.00000  Uiso   1.00
C222   C     0.94996   0.27725   0.36676   0.00000  Uiso   1.00
H223   H     0.91448   0.27270   0.39931   0.00000  Uiso   1.00
H224   H     0.97706   0.25837   0.37698   0.00000  Uiso   1.00
C225   C     0.96405   0.32326   0.36490   0.00000  Uiso   1.00
H226   H     0.99988   0.32843   0.33331   0.00000  Uiso   1.00
H227   H     0.96595   0.33293   0.40479   0.00000  Uiso   1.00
H228   H     0.93685   0.00958   0.35590   0.00000  Uiso   1.00
C229   C     0.16675   0.58001   0.24992   0.00000  Uiso   1.00
C230   C     0.14503   0.49709   0.49162   0.00000  Uiso   1.00
C231   C     0.15275   0.48278   0.43851   0.00000  Uiso   1.00
C232   C     0.18143   0.48986   0.01418   0.00000  Uiso   1.00
C233   C     0.22120   0.46365   0.48702   0.00000  Uiso   1.00
C234   C     0.22486   0.44563   0.43744   0.00000  Uiso   1.00
C235   C     0.19100   0.45492   0.41351   0.00000  Uiso   1.00
C236   C     0.17919   0.50772   0.06340   0.00000  Uiso   1.00
C237   C     0.24988   0.46959   0.06271   0.00000  Uiso   1.00
C238   C     0.12248   0.49741   0.41114   0.00000  Uiso   1.00
C239   C     0.21060   0.64539   0.22920   0.00000  Uiso   1.00
C240   C     0.13992   0.49831   0.35211   0.00000  Uiso   1.00
C241   C     0.21057   0.35482   0.22935   0.00000  Uiso   1.00
C242   C     0.16665   0.37586   0.24929   0.00000  Uiso   1.00
C243   C     0.12277   0.35463   0.26885   0.00000  Uiso   1.00
C244   C     0.12283   0.64521   0.26908   0.00000  Uiso   1.00
C245   C     0.16678   0.62416   0.24949   0.00000  Uiso   1.00
C246   C     0.31859   0.47228   0.21882   0.00000  Uiso   1.00
C247   C     0.03377   0.47253   0.21788   0.00000  Uiso   1.00
C248   C     0.01450   0.52725   0.28192   0.00000  Uiso   1.00
C249   C     0.29968   0.52802   0.28143   0.00000  Uiso   1.00
C250   C     0.16665   0.41999   0.24976   0.00000  Uiso   1.00
C251   C     0.19346   0.49999   0.14788   0.00000  Uiso   1.00
C252   C     0.25598   0.45481   0.01080   0.00000  Uiso   1.00
C253   C     0.21016   0.49473   0.08958   0.00000  Uiso   1.00
C254   C     0.07916   0.51758   0.43984   0.00000  Uiso   1.00
C255   C     0.06794   0.52646   0.49455   0.00000  Uiso   1.00
C256   C     0.10109   0.51772   0.01997   0.00000  Uiso   1.00
H257   H     0.27426   0.45940   0.08292   0.00000  Uiso   1.00
H258   H     0.24459   0.37134   0.21350   0.00000  Uiso   1.00
H259   H     0.08871   0.37098   0.28460   0.00000  Uiso   1.00
H260   H     0.08881   0.62870   0.28502   0.00000  Uiso   1.00
H261   H     0.30710   0.44978   0.19495   0.00000  Uiso   1.00
H262   H     0.02540   0.54809   0.30808   0.00000  Uiso   1.00
H263   H     0.25411   0.42453   0.41693   0.00000  Uiso   1.00
H264   H     0.28628   0.43468   0.49055   0.00000  Uiso   1.00
H265   H     0.15149   0.52976   0.08437   0.00000  Uiso   1.00
H266   H     0.05506   0.52816   0.41947   0.00000  Uiso   1.00
H267   H     0.09074   0.52665   0.06202   0.00000  Uiso   1.00
H268   H     0.03448   0.54205   0.01672   0.00000  Uiso   1.00
H269   H     0.19475   0.43966   0.37541   0.00000  Uiso   1.00
H270   H     0.24461   0.62900   0.21305   0.00000  Uiso   1.00
N271   N     0.04760   0.50001   0.25001   0.00000  Uiso   1.00
N272   N     0.28573   0.49998   0.25001   0.00000  Uiso   1.00
O273   O     0.12846   0.56108   0.25001   0.00000  Uiso   1.00
O274   O     0.20490   0.56107   0.25001   0.00000  Uiso   1.00
O275   O     0.10947   0.50000   0.32681   0.00000  Uiso   1.00
O276   O     0.18591   0.49999   0.32681   0.00000  Uiso   1.00
O277   O     0.12843   0.43893   0.25000   0.00000  Uiso   1.00
O278   O     0.20488   0.43892   0.25000   0.00000  Uiso   1.00
O279   O     0.14742   0.50001   0.17319   0.00000  Uiso   1.00
O280   O     0.22387   0.50000   0.17319   0.00000  Uiso   1.00
Zn281  Zn    0.11562   0.50001   0.25000   0.00000  Uiso   1.00
Zn282  Zn    0.21771   0.49999   0.25000   0.00000  Uiso   1.00
O283   O     0.06641   0.44277   0.18865   0.00000  Uiso   1.00
C284   C     0.07181   0.44352   0.13290   0.00000  Uiso   1.00
H285   H     0.11056   0.44829   0.10963   0.00000  Uiso   1.00
H286   H     0.05203   0.46927   0.12121   0.00000  Uiso   1.00
C287   C     0.05683   0.40149   0.11575   0.00000  Uiso   1.00
H288   H     0.07895   0.37629   0.12428   0.00000  Uiso   1.00
H289   H     0.01840   0.39509   0.13936   0.00000  Uiso   1.00
C290   C     0.06381   0.40111   0.05536   0.00000  Uiso   1.00
H291   H     0.04133   0.42562   0.04607   0.00000  Uiso   1.00
H292   H     0.05286   0.37026   0.04395   0.00000  Uiso   1.00
H293   H     0.10225   0.40668   0.03083   0.00000  Uiso   1.00
O294   O     0.26495   0.55376   0.31627   0.00000  Uiso   1.00
C295   C     0.27996   0.59604   0.31254   0.00000  Uiso   1.00
H296   H     0.25183   0.61493   0.30441   0.00000  Uiso   1.00
H297   H     0.31432   0.60276   0.27873   0.00000  Uiso   1.00
C298   C     0.28330   0.61058   0.36676   0.00000  Uiso   1.00
H299   H     0.24781   0.60603   0.39931   0.00000  Uiso   1.00
H300   H     0.31039   0.59170   0.37698   0.00000  Uiso   1.00
C301   C     0.29738   0.65660   0.36490   0.00000  Uiso   1.00
H302   H     0.33321   0.66177   0.33331   0.00000  Uiso   1.00
H303   H     0.29928   0.66626   0.40479   0.00000  Uiso   1.00
H304   H     0.27018   0.34292   0.35590   0.00000  Uiso   1.00
C305   C     0.50008   0.58001   0.24992   0.00000  Uiso   1.00
C306   C     0.47836   0.49709   0.49162   0.00000  Uiso   1.00
C307   C     0.48609   0.48278   0.43851   0.00000  Uiso   1.00
C308   C     0.51476   0.48986   0.01418   0.00000  Uiso   1.00
C309   C     0.55453   0.46365   0.48702   0.00000  Uiso   1.00
C310   C     0.55820   0.44563   0.43744   0.00000  Uiso   1.00
C311   C     0.52434   0.45492   0.41351   0.00000  Uiso   1.00
C312   C     0.51252   0.50772   0.06340   0.00000  Uiso   1.00
C313   C     0.58321   0.46959   0.06271   0.00000  Uiso   1.00
C314   C     0.45581   0.49741   0.41114   0.00000  Uiso   1.00
C315   C     0.54394   0.64539   0.22920   0.00000  Uiso   1.00
C316   C     0.47325   0.49831   0.35211   0.00000  Uiso   1.00
C317   C     0.54391   0.35482   0.22935   0.00000  Uiso   1.00
C318   C     0.49999   0.37586   0.24929   0.00000  Uiso   1.00
C319   C     0.45610   0.35463   0.26885   0.00000  Uiso   1.00
C320   C     0.45617   0.64521   0.26908   0.00000  Uiso   1.00
C321   C     0.50011   0.62416   0.24949   0.00000  Uiso   1.00
C322   C     0.65192   0.47228   0.21882   0.00000  Uiso   1.00
C323   C     0.36711   0.47253   0.21788   0.00000  Uiso   1.00
C324   C     0.34784   0.52725   0.28192   0.00000  Uiso   1.00
C325   C     0.63302   0.52802   0.28143   0.00000  Uiso   1.00
C326   C     0.49998   0.41999   0.24976   0.00000  Uiso   1.00
C327   C     0.52680   0.49999   0.14788   0.00000  Uiso   1.00
C328   C     0.58931   0.45481   0.01080   0.00000  Uiso   1.00
C329   C     0.54350   0.49473   0.08958   0.00000  Uiso   1.00
C330   C     0.41250   0.51758   0.43984   0.00000  Uiso   1.00
C331   C     0.40127   0.52646   0.49455   0.00000  Uiso   1.00
C332   C     0.43442   0.51772   0.01997   0.00000  Uiso   1.00
H333   H     0.60759   0.45940   0.08292   0.00000  Uiso   1.00
H334   H     0.57792   0.37134   0.21350   0.00000  Uiso   1.00
H335   H     0.42204   0.37098   0.28460   0.00000  Uiso   1.00
H336   H     0.42214   0.62870   0.28502   0.00000  Uiso   1.00
H337   H     0.64043   0.44978   0.19495   0.00000  Uiso   1.00
H338   H     0.35873   0.54809   0.30808   0.00000  Uiso   1.00
H339   H     0.58744   0.42453   0.41693   0.00000  Uiso   1.00
H340   H     0.61961   0.43468   0.49055   0.00000  Uiso   1.00
H341   H     0.48483   0.52976   0.08437   0.00000  Uiso   1.00
H342   H     0.38840   0.52816   0.41947   0.00000  Uiso   1.00
H343   H     0.42407   0.52665   0.06202   0.00000  Uiso   1.00
H344   H     0.36781   0.54205   0.01672   0.00000  Uiso   1.00
H345   H     0.52808   0.43966   0.37541   0.00000  Uiso   1.00
H346   H     0.57794   0.62900   0.21305   0.00000  Uiso   1.00
N347   N     0.38093   0.50001   0.25001   0.00000  Uiso   1.00
N348   N     0.61906   0.49998   0.25001   0.00000  Uiso   1.00
O349   O     0.46179   0.56108   0.25001   0.00000  Uiso   1.00
O350   O     0.53823   0.56107   0.25001   0.00000  Uiso   1.00
O351   O     0.44280   0.50000   0.32681   0.00000  Uiso   1.00
O352   O     0.51924   0.49999   0.32681   0.00000  Uiso   1.00
O353   O     0.46177   0.43893   0.25000   0.00000  Uiso   1.00
O354   O     0.53821   0.43892   0.25000   0.00000  Uiso   1.00
O355   O     0.48076   0.50001   0.17319   0.00000  Uiso   1.00
O356   O     0.55720   0.50000   0.17319   0.00000  Uiso   1.00
Zn357  Zn    0.44896   0.50001   0.25000   0.00000  Uiso   1.00
Zn358  Zn    0.55104   0.49999   0.25000   0.00000  Uiso   1.00
O359   O     0.39974   0.44277   0.18865   0.00000  Uiso   1.00
C360   C     0.40514   0.44352   0.13290   0.00000  Uiso   1.00
H361   H     0.44389   0.44829   0.10963   0.00000  Uiso   1.00
H362   H     0.38537   0.46927   0.12121   0.00000  Uiso   1.00
C363   C     0.39017   0.40149   0.11575   0.00000  Uiso   1.00
H364   H     0.41228   0.37629   0.12428   0.00000  Uiso   1.00
H365   H     0.35173   0.39509   0.13936   0.00000  Uiso   1.00
C366   C     0.39714   0.40111   0.05536   0.00000  Uiso   1.00
H367   H     0.37467   0.42562   0.04607   0.00000  Uiso   1.00
H368   H     0.38619   0.37026   0.04395   0.00000  Uiso   1.00
H369   H     0.43558   0.40668   0.03083   0.00000  Uiso   1.00
O370   O     0.59828   0.55376   0.31627   0.00000  Uiso   1.00
C371   C     0.61329   0.59604   0.31254   0.00000  Uiso   1.00
H372   H     0.58516   0.61493   0.30441   0.00000  Uiso   1.00
H373   H     0.64766   0.60276   0.27873   0.00000  Uiso   1.00
C374   C     0.61663   0.61058   0.36676   0.00000  Uiso   1.00
H375   H     0.58115   0.60603   0.39931   0.00000  Uiso   1.00
H376   H     0.64372   0.59170   0.37698   0.00000  Uiso   1.00
C377   C     0.63071   0.65660   0.36490   0.00000  Uiso   1.00
H378   H     0.66655   0.66177   0.33331   0.00000  Uiso   1.00
H379   H     0.63261   0.66626   0.40479   0.00000  Uiso   1.00
H380   H     0.60351   0.34292   0.35590   0.00000  Uiso   1.00
C381   C     0.83341   0.58001   0.24992   0.00000  Uiso   1.00
C382   C     0.81170   0.49709   0.49162   0.00000  Uiso   1.00
C383   C     0.81942   0.48278   0.43851   0.00000  Uiso   1.00
C384   C     0.84809   0.48986   0.01418   0.00000  Uiso   1.00
C385   C     0.88786   0.46365   0.48702   0.00000  Uiso   1.00
C386   C     0.89153   0.44563   0.43744   0.00000  Uiso   1.00
C387   C     0.85767   0.45492   0.41351   0.00000  Uiso   1.00
C388   C     0.84586   0.50772   0.06340   0.00000  Uiso   1.00
C389   C     0.91654   0.46959   0.06271   0.00000  Uiso   1.00
C390   C     0.78914   0.49741   0.41114   0.00000  Uiso   1.00
C391   C     0.87727   0.64539   0.22920   0.00000  Uiso   1.00
C392   C     0.80658   0.49831   0.35211   0.00000  Uiso   1.00
C393   C     0.87724   0.35482   0.22935   0.00000  Uiso   1.00
C394   C     0.83332   0.37586   0.24929   0.00000  Uiso   1.00
C395   C     0.78943   0.35463   0.26885   0.00000  Uiso   1.00
C396   C     0.78950   0.64521   0.26908   0.00000  Uiso   1.00
C397   C     0.83344   0.62416   0.24949   0.00000  Uiso   1.00
C398   C     0.98526   0.47228   0.21882   0.00000  Uiso   1.00
C399   C     0.70044   0.47253   0.21788   0.00000  Uiso   1.00
C400   C     0.68117   0.52725   0.28192   0.00000  Uiso   1.00
C401   C     0.96635   0.52802   0.28143   0.00000  Uiso   1.00
C402   C     0.83332   0.41999   0.24976   0.00000  Uiso   1.00
C403   C     0.86013   0.49999   0.14788   0.00000  Uiso   1.00
C404   C     0.92264   0.45481   0.01080   0.00000  Uiso   1.00
C405   C     0.87683   0.49473   0.08958   0.00000  Uiso   1.00
C406   C     0.74583   0.51758   0.43984   0.00000  Uiso   1.00
C407   C     0.73461   0.52646   0.49455   0.00000  Uiso   1.00
C408   C     0.76775   0.51772   0.01997   0.00000  Uiso   1.00
H409   H     0.94093   0.45940   0.08292   0.00000  Uiso   1.00
H410   H     0.91126   0.37134   0.21350   0.00000  Uiso   1.00
H411   H     0.75538   0.37098   0.28460   0.00000  Uiso   1.00
H412   H     0.75548   0.62870   0.28502   0.00000  Uiso   1.00
H413   H     0.97376   0.44978   0.19495   0.00000  Uiso   1.00
H414   H     0.69207   0.54809   0.30808   0.00000  Uiso   1.00
H415   H     0.92078   0.42453   0.41693   0.00000  Uiso   1.00
H416   H     0.95295   0.43468   0.49055   0.00000  Uiso   1.00
H417   H     0.81816   0.52976   0.08437   0.00000  Uiso   1.00
H418   H     0.72173   0.52816   0.41947   0.00000  Uiso   1.00
H419   H     0.75740   0.52665   0.06202   0.00000  Uiso   1.00
H420   H     0.70115   0.54205   0.01672   0.00000  Uiso   1.00
H421   H     0.86141   0.43966   0.37541   0.00000  Uiso   1.00
H422   H     0.91127   0.62900   0.21305   0.00000  Uiso   1.00
N423   N     0.71426   0.50001   0.25001   0.00000  Uiso   1.00
N424   N     0.95239   0.49998   0.25001   0.00000  Uiso   1.00
O425   O     0.79512   0.56108   0.25001   0.00000  Uiso   1.00
O426   O     0.87157   0.56107   0.25001   0.00000  Uiso   1.00
O427   O     0.77613   0.50000   0.32681   0.00000  Uiso   1.00
O428   O     0.85258   0.49999   0.32681   0.00000  Uiso   1.00
O429   O     0.79510   0.43893   0.25000   0.00000  Uiso   1.00
O430   O     0.87154   0.43892   0.25000   0.00000  Uiso   1.00
O431   O     0.81409   0.50001   0.17319   0.00000  Uiso   1.00
O432   O     0.89053   0.50000   0.17319   0.00000  Uiso   1.00
Zn433  Zn    0.78229   0.50001   0.25000   0.00000  Uiso   1.00
Zn434  Zn    0.88438   0.49999   0.25000   0.00000  Uiso   1.00
O435   O     0.73308   0.44277   0.18865   0.00000  Uiso   1.00
C436   C     0.73847   0.44352   0.13290   0.00000  Uiso   1.00
H437   H     0.77723   0.44829   0.10963   0.00000  Uiso   1.00
H438   H     0.71870   0.46927   0.12121   0.00000  Uiso   1.00
C439   C     0.72350   0.40149   0.11575   0.00000  Uiso   1.00
H440   H     0.74561   0.37629   0.12428   0.00000  Uiso   1.00
H441   H     0.68506   0.39509   0.13936   0.00000  Uiso   1.00
C442   C     0.73047   0.40111   0.05536   0.00000  Uiso   1.00
H443   H     0.70800   0.42562   0.04607   0.00000  Uiso   1.00
H444   H     0.71952   0.37026   0.04395   0.00000  Uiso   1.00
H445   H     0.76892   0.40668   0.03083   0.00000  Uiso   1.00
O446   O     0.93162   0.55376   0.31627   0.00000  Uiso   1.00
C447   C     0.94663   0.59604   0.31254   0.00000  Uiso   1.00
H448   H     0.91849   0.61493   0.30441   0.00000  Uiso   1.00
H449   H     0.98099   0.60276   0.27873   0.00000  Uiso   1.00
C450   C     0.94996   0.61058   0.36676   0.00000  Uiso   1.00
H451   H     0.91448   0.60603   0.39931   0.00000  Uiso   1.00
H452   H     0.97706   0.59170   0.37698   0.00000  Uiso   1.00
C453   C     0.96405   0.65660   0.36490   0.00000  Uiso   1.00
H454   H     0.99988   0.66177   0.33331   0.00000  Uiso   1.00
H455   H     0.96595   0.66626   0.40479   0.00000  Uiso   1.00
H456   H     0.93685   0.34292   0.35590   0.00000  Uiso   1.00
C457   C     0.16675   0.91335   0.24992   0.00000  Uiso   1.00
C458   C     0.14503   0.83042   0.49162   0.00000  Uiso   1.00
C459   C     0.15275   0.81612   0.43851   0.00000  Uiso   1.00
C460   C     0.18143   0.82319   0.01418   0.00000  Uiso   1.00
C461   C     0.22120   0.79698   0.48702   0.00000  Uiso   1.00
C462   C     0.22486   0.77896   0.43744   0.00000  Uiso   1.00
C463   C     0.19100   0.78826   0.41351   0.00000  Uiso   1.00
C464   C     0.17919   0.84105   0.06340   0.00000  Uiso   1.00
C465   C     0.24988   0.80292   0.06271   0.00000  Uiso   1.00
C466   C     0.12248   0.83075   0.41114   0.00000  Uiso   1.00
C467   C     0.21060   0.97872   0.22920   0.00000  Uiso   1.00
C468   C     0.13992   0.83165   0.35211   0.00000  Uiso   1.00
C469   C     0.21057   0.68815   0.22935   0.00000  Uiso   1.00
C470   C     0.16665   0.70919   0.24929   0.00000  Uiso   1.00
C471   C     0.12277   0.68796   0.26885   0.00000  Uiso   1.00
C472   C     0.12283   0.97854   0.26908   0.00000  Uiso   1.00
C473   C     0.16678   0.95749   0.24949   0.00000  Uiso   1.00
C474   C     0.31859   0.80562   0.21882   0.00000  Uiso   1.00
C475   C     0.03377   0.80586   0.21788   0.00000  Uiso   1.00
C476   C     0.01450   0.86058   0.28192   0.00000  Uiso   1.00
C477   C     0.29968   0.86135   0.28143   0.00000  Uiso   1.00
C478   C     0.16665   0.75333   0.24976   0.00000  Uiso   1.00
C479   C     0.19346   0.83333   0.14788   0.00000  Uiso   1.00
C480   C     0.25598   0.78814   0.01080   0.00000  Uiso   1.00
C481   C     0.21016   0.82806   0.08958   0.00000  Uiso   1.00
C482   C     0.07916   0.85091   0.43984   0.00000  Uiso   1.00
C483   C     0.06794   0.85979   0.49455   0.00000  Uiso   1.00
C484   C     0.10109   0.85106   0.01997   0.00000  Uiso   1.00
H485   H     0.27426   0.79274   0.08292   0.00000  Uiso   1.00
H486   H     0.24459   0.70467   0.21350   0.00000  Uiso   1.00
H487   H     0.08871   0.70432   0.28460   0.00000  Uiso   1.00
H488   H     0.08881   0.96204   0.28502   0.00000  Uiso   1.00
H489   H     0.30710   0.78311   0.19495   0.00000  Uiso   1.00
H490   H     0.02540   0.88142   0.30808   0.00000  Uiso   1.00
H491   H     0.25411   0.75787   0.41693   0.00000  Uiso   1.00
H492   H     0.28628   0.76801   0.49055   0.00000  Uiso   1.00
H493   H     0.15149   0.86309   0.08437   0.00000  Uiso   1.00
H494   H     0.05506   0.86149   0.41947   0.00000  Uiso   1.00
H495   H     0.09074   0.85998   0.06202   0.00000  Uiso   1.00
H496   H     0.03448   0.87539   0.01672   0.00000  Uiso   1.00
H497   H     0.19475   0.77299   0.37541   0.00000  Uiso   1.00
H498   H     0.24461   0.96233   0.21305   0.00000  Uiso   1.00
N499   N     0.04760   0.83334   0.25001   0.00000  Uiso   1.00
N500   N     0.28573   0.83331   0.25001   0.00000  Uiso   1.00
O501   O     0.12846   0.89442   0.25001   0.00000  Uiso   1.00
O502   O     0.20490   0.89441   0.25001   0.00000  Uiso   1.00
O503   O     0.10947   0.83333   0.32681   0.00000  Uiso   1.00
O504   O     0.18591   0.83332   0.32681   0.00000  Uiso   1.00
O505   O     0.12843   0.77226   0.25000   0.00000  Uiso   1.00
O506   O     0.20488   0.77225   0.25000   0.00000  Uiso   1.00
O507   O     0.14742   0.83335   0.17319   0.00000  Uiso   1.00
O508   O     0.22387   0.83334   0.17319   0.00000  Uiso   1.00
Zn509  Zn    0.11562   0.83334   0.25000   0.00000  Uiso   1.00
Zn510  Zn    0.21771   0.83333   0.25000   0.00000  Uiso   1.00
O511   O     0.06641   0.77610   0.18865   0.00000  Uiso   1.00
C512   C     0.07181   0.77685   0.13290   0.00000  Uiso   1.00
H513   H     0.11056   0.78163   0.10963   0.00000  Uiso   1.00
H514   H     0.05203   0.80260   0.12121   0.00000  Uiso   1.00
C515   C     0.05683   0.73483   0.11575   0.00000  Uiso   1.00
H516   H     0.07895   0.70963   0.12428   0.00000  Uiso   1.00
H517   H     0.01840   0.72842   0.13936   0.00000  Uiso   1.00
C518   C     0.06381   0.73444   0.05536   0.00000  Uiso   1.00
H519   H     0.04133   0.75895   0.04607   0.00000  Uiso   1.00
H520   H     0.05286   0.70359   0.04395   0.00000  Uiso   1.00
H521   H     0.10225   0.74001   0.03083   0.00000  Uiso   1.00
O522   O     0.26495   0.88709   0.31627   0.00000  Uiso   1.00
C523   C     0.27996   0.92938   0.31254   0.00000  Uiso   1.00
H524   H     0.25183   0.94826   0.30441   0.00000  Uiso   1.00
H525   H     0.31432   0.93609   0.27873   0.00000  Uiso   1.00
C526   C     0.28330   0.94392   0.36676   0.00000  Uiso   1.00
H527   H     0.24781   0.93936   0.39931   0.00000  Uiso   1.00
H528   H     0.31039   0.92503   0.37698   0.00000  Uiso   1.00
C529   C     0.29738   0.98993   0.36490   0.00000  Uiso   1.00
H530   H     0.33321   0.99510   0.33331   0.00000  Uiso   1.00
H531   H     0.29928   0.99959   0.40479   0.00000  Uiso   1.00
H532   H     0.27018   0.67625   0.35590   0.00000  Uiso   1.00
C533   C     0.50008   0.91335   0.24992   0.00000  Uiso   1.00
C534   C     0.47836   0.83042   0.49162   0.00000  Uiso   1.00
C535   C     0.48609   0.81612   0.43851   0.00000  Uiso   1.00
C536   C     0.51476   0.82319   0.01418   0.00000  Uiso   1.00
C537   C     0.55453   0.79698   0.48702   0.00000  Uiso   1.00
C538   C     0.55820   0.77896   0.43744   0.00000  Uiso   1.00
C539   C     0.52434   0.78826   0.41351   0.00000  Uiso   1.00
C540   C     0.51252   0.84105   0.06340   0.00000  Uiso   1.00
C541   C     0.58321   0.80292   0.06271   0.00000  Uiso   1.00
C542   C     0.45581   0.83075   0.41114   0.00000  Uiso   1.00
C543   C     0.54394   0.97872   0.22920   0.00000  Uiso   1.00
C544   C     0.47325   0.83165   0.35211   0.00000  Uiso   1.00
C545   C     0.54391   0.68815   0.22935   0.00000  Uiso   1.00
C546   C     0.49999   0.70919   0.24929   0.00000  Uiso   1.00
C547   C     0.45610   0.68796   0.26885   0.00000  Uiso   1.00
C548   C     0.45617   0.97854   0.26908   0.00000  Uiso   1.00
C549   C     0.50011   0.95749   0.24949   0.00000  Uiso   1.00
C550   C     0.65192   0.80562   0.21882   0.00000  Uiso   1.00
C551   C     0.36711   0.80586   0.21788   0.00000  Uiso   1.00
C552   C     0.34784   0.86058   0.28192   0.00000  Uiso   1.00
C553   C     0.63302   0.86135   0.28143   0.00000  Uiso   1.00
C554   C     0.49998   0.75333   0.24976   0.00000  Uiso   1.00
C555   C     0.52680   0.83333   0.14788   0.00000  Uiso   1.00
C556   C     0.58931   0.78814   0.01080   0.00000  Uiso   1.00
C557   C     0.54350   0.82806   0.08958   0.00000  Uiso   1.00
C558   C     0.41250   0.85091   0.43984   0.00000  Uiso   1.00
C559   C     0.40127   0.85979   0.49455   0.00000  Uiso   1.00
C560   C     0.43442   0.85106   0.01997   0.00000  Uiso   1.00
H561   H     0.60759   0.79274   0.08292   0.00000  Uiso   1.00
H562   H     0.57792   0.70467   0.21350   0.00000  Uiso   1.00
H563   H     0.42204   0.70432   0.28460   0.00000  Uiso   1.00
H564   H     0.42214   0.96204   0.28502   0.00000  Uiso   1.00
H565   H     0.64043   0.78311   0.19495   0.00000  Uiso   1.00
H566   H     0.35873   0.88142   0.30808   0.00000  Uiso   1.00
H567   H     0.58744   0.75787   0.41693   0.00000  Uiso   1.00
H568   H     0.61961   0.76801   0.49055   0.00000  Uiso   1.00
H569   H     0.48483   0.86309   0.08437   0.00000  Uiso   1.00
H570   H     0.38840   0.86149   0.41947   0.00000  Uiso   1.00
H571   H     0.42407   0.85998   0.06202   0.00000  Uiso   1.00
H572   H     0.36781   0.87539   0.01672   0.00000  Uiso   1.00
H573   H     0.52808   0.77299   0.37541   0.00000  Uiso   1.00
H574   H     0.57794   0.96233   0.21305   0.00000  Uiso   1.00
N575   N     0.38093   0.83334   0.25001   0.00000  Uiso   1.00
N576   N     0.61906   0.83331   0.25001   0.00000  Uiso   1.00
O577   O     0.46179   0.89442   0.25001   0.00000  Uiso   1.00
O578   O     0.53823   0.89441   0.25001   0.00000  Uiso   1.00
O579   O     0.44280   0.83333   0.32681   0.00000  Uiso   1.00
O580   O     0.51924   0.83332   0.32681   0.00000  Uiso   1.00
O581   O     0.46177   0.77226   0.25000   0.00000  Uiso   1.00
O582   O     0.53821   0.77225   0.25000   0.00000  Uiso   1.00
O583   O     0.48076   0.83335   0.17319   0.00000  Uiso   1.00
O584   O     0.55720   0.83334   0.17319   0.00000  Uiso   1.00
Zn585  Zn    0.44896   0.83334   0.25000   0.00000  Uiso   1.00
Zn586  Zn    0.55104   0.83333   0.25000   0.00000  Uiso   1.00
O587   O     0.39974   0.77610   0.18865   0.00000  Uiso   1.00
C588   C     0.40514   0.77685   0.13290   0.00000  Uiso   1.00
H589   H     0.44389   0.78163   0.10963   0.00000  Uiso   1.00
H590   H     0.38537   0.80260   0.12121   0.00000  Uiso   1.00
C591   C     0.39017   0.73483   0.11575   0.00000  Uiso   1.00
H592   H     0.41228   0.70963   0.12428   0.00000  Uiso   1.00
H593   H     0.35173   0.72842   0.13936   0.00000  Uiso   1.00
C594   C     0.39714   0.73444   0.05536   0.00000  Uiso   1.00
H595   H     0.37467   0.75895   0.04607   0.00000  Uiso   1.00
H596   H     0.38619   0.70359   0.04395   0.00000  Uiso   1.00
H597   H     0.43558   0.74001   0.03083   0.00000  Uiso   1.00
O598   O     0.59828   0.88709   0.31627   0.00000  Uiso   1.00
C599   C     0.61329   0.92938   0.31254   0.00000  Uiso   1.00
H600   H     0.58516   0.94826   0.30441   0.00000  Uiso   1.00
H601   H     0.64766   0.93609   0.27873   0.00000  Uiso   1.00
C602   C     0.61663   0.94392   0.36676   0.00000  Uiso   1.00
H603   H     0.58115   0.93936   0.39931   0.00000  Uiso   1.00
H604   H     0.64372   0.92503   0.37698   0.00000  Uiso   1.00
C605   C     0.63071   0.98993   0.36490   0.00000  Uiso   1.00
H606   H     0.66655   0.99510   0.33331   0.00000  Uiso   1.00
H607   H     0.63261   0.99959   0.40479   0.00000  Uiso   1.00
H608   H     0.60351   0.67625   0.35590   0.00000  Uiso   1.00
C609   C     0.83341   0.91335   0.24992   0.00000  Uiso   1.00
C610   C     0.81170   0.83042   0.49162   0.00000  Uiso   1.00
C611   C     0.81942   0.81612   0.43851   0.00000  Uiso   1.00
C612   C     0.84809   0.82319   0.01418   0.00000  Uiso   1.00
C613   C     0.88786   0.79698   0.48702   0.00000  Uiso   1.00
C614   C     0.89153   0.77896   0.43744   0.00000  Uiso   1.00
C615   C     0.85767   0.78826   0.41351   0.00000  Uiso   1.00
C616   C     0.84586   0.84105   0.06340   0.00000  Uiso   1.00
C617   C     0.91654   0.80292   0.06271   0.00000  Uiso   1.00
C618   C     0.78914   0.83075   0.41114   0.00000  Uiso   1.00
C619   C     0.87727   0.97872   0.22920   0.00000  Uiso   1.00
C620   C     0.80658   0.83165   0.35211   0.00000  Uiso   1.00
C621   C     0.87724   0.68815   0.22935   0.00000  Uiso   1.00
C622   C     0.83332   0.70919   0.24929   0.00000  Uiso   1.00
C623   C     0.78943   0.68796   0.26885   0.00000  Uiso   1.00
C624   C     0.78950   0.97854   0.26908   0.00000  Uiso   1.00
C625   C     0.83344   0.95749   0.24949   0.00000  Uiso   1.00
C626   C     0.98526   0.80562   0.21882   0.00000  Uiso   1.00
C627   C     0.70044   0.80586   0.21788   0.00000  Uiso   1.00
C628   C     0.68117   0.86058   0.28192   0.00000  Uiso   1.00
C629   C     0.96635   0.86135   0.28143   0.00000  Uiso   1.00
C630   C     0.83332   0.75333   0.24976   0.00000  Uiso   1.00
C631   C     0.86013   0.83333   0.14788   0.00000  Uiso   1.00
C632   C     0.92264   0.78814   0.01080   0.00000  Uiso   1.00
C633   C     0.87683   0.82806   0.08958   0.00000  Uiso   1.00
C634   C     0.74583   0.85091   0.43984   0.00000  Uiso   1.00
C635   C     0.73461   0.85979   0.49455   0.00000  Uiso   1.00
C636   C     0.76775   0.85106   0.01997   0.00000  Uiso   1.00
H637   H     0.94093   0.79274   0.08292   0.00000  Uiso   1.00
H638   H     0.91126   0.70467   0.21350   0.00000  Uiso   1.00
H639   H     0.75538   0.70432   0.28460   0.00000  Uiso   1.00
H640   H     0.75548   0.96204   0.28502   0.00000  Uiso   1.00
H641   H     0.97376   0.78311   0.19495   0.00000  Uiso   1.00
H642   H     0.69207   0.88142   0.30808   0.00000  Uiso   1.00
H643   H     0.92078   0.75787   0.41693   0.00000  Uiso   1.00
H644   H     0.95295   0.76801   0.49055   0.00000  Uiso   1.00
H645   H     0.81816   0.86309   0.08437   0.00000  Uiso   1.00
H646   H     0.72173   0.86149   0.41947   0.00000  Uiso   1.00
H647   H     0.75740   0.85998   0.06202   0.00000  Uiso   1.00
H648   H     0.70115   0.87539   0.01672   0.00000  Uiso   1.00
H649   H     0.86141   0.77299   0.37541   0.00000  Uiso   1.00
H650   H     0.91127   0.96233   0.21305   0.00000  Uiso   1.00
N651   N     0.71426   0.83334   0.25001   0.00000  Uiso   1.00
N652   N     0.95239   0.83331   0.25001   0.00000  Uiso   1.00
O653   O     0.79512   0.89442   0.25001   0.00000  Uiso   1.00
O654   O     0.87157   0.89441   0.25001   0.00000  Uiso   1.00
O655   O     0.77613   0.83333   0.32681   0.00000  Uiso   1.00
O656   O     0.85258   0.83332   0.32681   0.00000  Uiso   1.00
O657   O     0.79510   0.77226   0.25000   0.00000  Uiso   1.00
O658   O     0.87154   0.77225   0.25000   0.00000  Uiso   1.00
O659   O     0.81409   0.83335   0.17319   0.00000  Uiso   1.00
O660   O     0.89053   0.83334   0.17319   0.00000  Uiso   1.00
Zn661  Zn    0.78229   0.83334   0.25000   0.00000  Uiso   1.00
Zn662  Zn    0.88438   0.83333   0.25000   0.00000  Uiso   1.00
O663   O     0.73308   0.77610   0.18865   0.00000  Uiso   1.00
C664   C     0.73847   0.77685   0.13290   0.00000  Uiso   1.00
H665   H     0.77723   0.78163   0.10963   0.00000  Uiso   1.00
H666   H     0.71870   0.80260   0.12121   0.00000  Uiso   1.00
C667   C     0.72350   0.73483   0.11575   0.00000  Uiso   1.00
H668   H     0.74561   0.70963   0.12428   0.00000  Uiso   1.00
H669   H     0.68506   0.72842   0.13936   0.00000  Uiso   1.00
C670   C     0.73047   0.73444   0.05536   0.00000  Uiso   1.00
H671   H     0.70800   0.75895   0.04607   0.00000  Uiso   1.00
H672   H     0.71952   0.70359   0.04395   0.00000  Uiso   1.00
H673   H     0.76892   0.74001   0.03083   0.00000  Uiso   1.00
O674   O     0.93162   0.88709   0.31627   0.00000  Uiso   1.00
C675   C     0.94663   0.92938   0.31254   0.00000  Uiso   1.00
H676   H     0.91849   0.94826   0.30441   0.00000  Uiso   1.00
H677   H     0.98099   0.93609   0.27873   0.00000  Uiso   1.00
C678   C     0.94996   0.94392   0.36676   0.00000  Uiso   1.00
H679   H     0.91448   0.93936   0.39931   0.00000  Uiso   1.00
H680   H     0.97706   0.92503   0.37698   0.00000  Uiso   1.00
C681   C     0.96405   0.98993   0.36490   0.00000  Uiso   1.00
H682   H     0.99988   0.99510   0.33331   0.00000  Uiso   1.00
H683   H     0.96595   0.99959   0.40479   0.00000  Uiso   1.00
H684   H     0.93685   0.67625   0.35590   0.00000  Uiso   1.00
C685   C     0.16675   0.24668   0.74992   0.00000  Uiso   1.00
C686   C     0.14503   0.16375   0.99162   0.00000  Uiso   1.00
C687   C     0.15275   0.14945   0.93851   0.00000  Uiso   1.00
C688   C     0.18143   0.15653   0.51418   0.00000  Uiso   1.00
C689   C     0.22120   0.13032   0.98702   0.00000  Uiso   1.00
C690   C     0.22486   0.11230   0.93744   0.00000  Uiso   1.00
C691   C     0.19100   0.12159   0.91351   0.00000  Uiso   1.00
C692   C     0.17919   0.17439   0.56340   0.00000  Uiso   1.00
C693   C     0.24988   0.13626   0.56271   0.00000  Uiso   1.00
C694   C     0.12248   0.16408   0.91114   0.00000  Uiso   1.00
C695   C     0.21060   0.31205   0.72920   0.00000  Uiso   1.00
C696   C     0.13992   0.16498   0.85211   0.00000  Uiso   1.00
C697   C     0.21057   0.02148   0.72935   0.00000  Uiso   1.00
C698   C     0.16665   0.04253   0.74929   0.00000  Uiso   1.00
C699   C     0.12277   0.02129   0.76885   0.00000  Uiso   1.00
C700   C     0.12283   0.31187   0.76908   0.00000  Uiso   1.00
C701   C     0.16678   0.29082   0.74949   0.00000  Uiso   1.00
C702   C     0.31859   0.13895   0.71882   0.00000  Uiso   1.00
C703   C     0.03377   0.13920   0.71788   0.00000  Uiso   1.00
C704   C     0.01450   0.19392   0.78192   0.00000  Uiso   1.00
C705   C     0.29968   0.19469   0.78143   0.00000  Uiso   1.00
C706   C     0.16665   0.08666   0.74976   0.00000  Uiso   1.00
C707   C     0.19346   0.16666   0.64788   0.00000  Uiso   1.00
C708   C     0.25598   0.12148   0.51080   0.00000  Uiso   1.00
C709   C     0.21016   0.16140   0.58958   0.00000  Uiso   1.00
C710   C     0.07916   0.18425   0.93984   0.00000  Uiso   1.00
C711   C     0.06794   0.19312   0.99455   0.00000  Uiso   1.00
C712   C     0.10109   0.18439   0.51997   0.00000  Uiso   1.00
H713   H     0.27426   0.12607   0.58292   0.00000  Uiso   1.00
H714   H     0.24459   0.03800   0.71350   0.00000  Uiso   1.00
H715   H     0.08871   0.03765   0.78460   0.00000  Uiso   1.00
H716   H     0.08881   0.29537   0.78502   0.00000  Uiso   1.00
H717   H     0.30710   0.11644   0.69495   0.00000  Uiso   1.00
H718   H     0.02540   0.21476   0.80808   0.00000  Uiso   1.00
H719   H     0.25411   0.09120   0.91693   0.00000  Uiso   1.00
H720   H     0.28628   0.10135   0.99055   0.00000  Uiso   1.00
H721   H     0.15149   0.19643   0.58437   0.00000  Uiso   1.00
H722   H     0.05506   0.19482   0.91947   0.00000  Uiso   1.00
H723   H     0.09074   0.19332   0.56202   0.00000  Uiso   1.00
H724   H     0.03448   0.20872   0.51672   0.00000  Uiso   1.00
H725   H     0.19475   0.10633   0.87541   0.00000  Uiso   1.00
H726   H     0.24461   0.29567   0.71305   0.00000  Uiso   1.00
N727   N     0.04760   0.16668   0.75001   0.00000  Uiso   1.00
N728   N     0.28573   0.16665   0.75001   0.00000  Uiso   1.00
O729   O     0.12846   0.22775   0.75001   0.00000  Uiso   1.00
O730   O     0.20490   0.22774   0.75001   0.00000  Uiso   1.00
O731   O     0.10947   0.16666   0.82681   0.00000  Uiso   1.00
O732   O     0.18591   0.16665   0.82681   0.00000  Uiso   1.00
O733   O     0.12843   0.10559   0.75000   0.00000  Uiso   1.00
O734   O     0.20488   0.10558   0.75000   0.00000  Uiso   1.00
O735   O     0.14742   0.16668   0.67319   0.00000  Uiso   1.00
O736   O     0.22387   0.16667   0.67319   0.00000  Uiso   1.00
Zn737  Zn    0.11562   0.16667   0.75000   0.00000  Uiso   1.00
Zn738  Zn    0.21771   0.16666   0.75000   0.00000  Uiso   1.00
O739   O     0.06641   0.10944   0.68865   0.00000  Uiso   1.00
C740   C     0.07181   0.11019   0.63290   0.00000  Uiso   1.00
H741   H     0.11056   0.11496   0.60963   0.00000  Uiso   1.00
H742   H     0.05203   0.13593   0.62121   0.00000  Uiso   1.00
C743   C     0.05683   0.06816   0.61575   0.00000  Uiso   1.00
H744   H     0.07895   0.04296   0.62428   0.00000  Uiso   1.00
H745   H     0.01840   0.06175   0.63936   0.00000  Uiso   1.00
C746   C     0.06381   0.06777   0.55536   0.00000  Uiso   1.00
H747   H     0.04133   0.09228   0.54607   0.00000  Uiso   1.00
H748   H     0.05286   0.03693   0.54395   0.00000  Uiso   1.00
H749   H     0.10225   0.07335   0.53083   0.00000  Uiso   1.00
O750   O     0.26495   0.22042   0.81627   0.00000  Uiso   1.00
C751   C     0.27996   0.26271   0.81254   0.00000  Uiso   1.00
H752   H     0.25183   0.28160   0.80441   0.00000  Uiso   1.00
H753   H     0.31432   0.26942   0.77873   0.00000  Uiso   1.00
C754   C     0.28330   0.27725   0.86676   0.00000  Uiso   1.00
H755   H     0.24781   0.27270   0.89931   0.00000  Uiso   1.00
H756   H     0.31039   0.25837   0.87698   0.00000  Uiso   1.00
C757   C     0.29738   0.32326   0.86490   0.00000  Uiso   1.00
H758   H     0.33321   0.32843   0.83331   0.00000  Uiso   1.00
H759   H     0.29928   0.33293   0.90479   0.00000  Uiso   1.00
H760   H     0.27018   0.00958   0.85590   0.00000  Uiso   1.00
C761   C     0.50008   0.24668   0.74992   0.00000  Uiso   1.00
C762   C     0.47836   0.16375   0.99162   0.00000  Uiso   1.00
C763   C     0.48609   0.14945   0.93851   0.00000  Uiso   1.00
C764   C     0.51476   0.15653   0.51418   0.00000  Uiso   1.00
C765   C     0.55453   0.13032   0.98702   0.00000  Uiso   1.00
C766   C     0.55820   0.11230   0.93744   0.00000  Uiso   1.00
C767   C     0.52434   0.12159   0.91351   0.00000  Uiso   1.00
C768   C     0.51252   0.17439   0.56340   0.00000  Uiso   1.00
C769   C     0.58321   0.13626   0.56271   0.00000  Uiso   1.00
C770   C     0.45581   0.16408   0.91114   0.00000  Uiso   1.00
C771   C     0.54394   0.31205   0.72920   0.00000  Uiso   1.00
C772   C     0.47325   0.16498   0.85211   0.00000  Uiso   1.00
C773   C     0.54391   0.02148   0.72935   0.00000  Uiso   1.00
C774   C     0.49999   0.04253   0.74929   0.00000  Uiso   1.00
C775   C     0.45610   0.02129   0.76885   0.00000  Uiso   1.00
C776   C     0.45617   0.31187   0.76908   0.00000  Uiso   1.00
C777   C     0.50011   0.29082   0.74949   0.00000  Uiso   1.00
C778   C     0.65192   0.13895   0.71882   0.00000  Uiso   1.00
C779   C     0.36711   0.13920   0.71788   0.00000  Uiso   1.00
C780   C     0.34784   0.19392   0.78192   0.00000  Uiso   1.00
C781   C     0.63302   0.19469   0.78143   0.00000  Uiso   1.00
C782   C     0.49998   0.08666   0.74976   0.00000  Uiso   1.00
C783   C     0.52680   0.16666   0.64788   0.00000  Uiso   1.00
C784   C     0.58931   0.12148   0.51080   0.00000  Uiso   1.00
C785   C     0.54350   0.16140   0.58958   0.00000  Uiso   1.00
C786   C     0.41250   0.18425   0.93984   0.00000  Uiso   1.00
C787   C     0.40127   0.19312   0.99455   0.00000  Uiso   1.00
C788   C     0.43442   0.18439   0.51997   0.00000  Uiso   1.00
H789   H     0.60759   0.12607   0.58292   0.00000  Uiso   1.00
H790   H     0.57792   0.03800   0.71350   0.00000  Uiso   1.00
H791   H     0.42204   0.03765   0.78460   0.00000  Uiso   1.00
H792   H     0.42214   0.29537   0.78502   0.00000  Uiso   1.00
H793   H     0.64043   0.11644   0.69495   0.00000  Uiso   1.00
H794   H     0.35873   0.21476   0.80808   0.00000  Uiso   1.00
H795   H     0.58744   0.09120   0.91693   0.00000  Uiso   1.00
H796   H     0.61961   0.10135   0.99055   0.00000  Uiso   1.00
H797   H     0.48483   0.19643   0.58437   0.00000  Uiso   1.00
H798   H     0.38840   0.19482   0.91947   0.00000  Uiso   1.00
H799   H     0.42407   0.19332   0.56202   0.00000  Uiso   1.00
H800   H     0.36781   0.20872   0.51672   0.00000  Uiso   1.00
H801   H     0.52808   0.10633   0.87541   0.00000  Uiso   1.00
H802   H     0.57794   0.29567   0.71305   0.00000  Uiso   1.00
N803   N     0.38093   0.16668   0.75001   0.00000  Uiso   1.00
N804   N     0.61906   0.16665   0.75001   0.00000  Uiso   1.00
O805   O     0.46179   0.22775   0.75001   0.00000  Uiso   1.00
O806   O     0.53823   0.22774   0.75001   0.00000  Uiso   1.00
O807   O     0.44280   0.16666   0.82681   0.00000  Uiso   1.00
O808   O     0.51924   0.16665   0.82681   0.00000  Uiso   1.00
O809   O     0.46177   0.10559   0.75000   0.00000  Uiso   1.00
O810   O     0.53821   0.10558   0.75000   0.00000  Uiso   1.00
O811   O     0.48076   0.16668   0.67319   0.00000  Uiso   1.00
O812   O     0.55720   0.16667   0.67319   0.00000  Uiso   1.00
Zn813  Zn    0.44896   0.16667   0.75000   0.00000  Uiso   1.00
Zn814  Zn    0.55104   0.16666   0.75000   0.00000  Uiso   1.00
O815   O     0.39974   0.10944   0.68865   0.00000  Uiso   1.00
C816   C     0.40514   0.11019   0.63290   0.00000  Uiso   1.00
H817   H     0.44389   0.11496   0.60963   0.00000  Uiso   1.00
H818   H     0.38537   0.13593   0.62121   0.00000  Uiso   1.00
C819   C     0.39017   0.06816   0.61575   0.00000  Uiso   1.00
H820   H     0.41228   0.04296   0.62428   0.00000  Uiso   1.00
H821   H     0.35173   0.06175   0.63936   0.00000  Uiso   1.00
C822   C     0.39714   0.06777   0.55536   0.00000  Uiso   1.00
H823   H     0.37467   0.09228   0.54607   0.00000  Uiso   1.00
H824   H     0.38619   0.03693   0.54395   0.00000  Uiso   1.00
H825   H     0.43558   0.07335   0.53083   0.00000  Uiso   1.00
O826   O     0.59828   0.22042   0.81627   0.00000  Uiso   1.00
C827   C     0.61329   0.26271   0.81254   0.00000  Uiso   1.00
H828   H     0.58516   0.28160   0.80441   0.00000  Uiso   1.00
H829   H     0.64766   0.26942   0.77873   0.00000  Uiso   1.00
C830   C     0.61663   0.27725   0.86676   0.00000  Uiso   1.00
H831   H     0.58115   0.27270   0.89931   0.00000  Uiso   1.00
H832   H     0.64372   0.25837   0.87698   0.00000  Uiso   1.00
C833   C     0.63071   0.32326   0.86490   0.00000  Uiso   1.00
H834   H     0.66655   0.32843   0.83331   0.00000  Uiso   1.00
H835   H     0.63261   0.33293   0.90479   0.00000  Uiso   1.00
H836   H     0.60351   0.00958   0.85590   0.00000  Uiso   1.00
C837   C     0.83341   0.24668   0.74992   0.00000  Uiso   1.00
C838   C     0.81170   0.16375   0.99162   0.00000  Uiso   1.00
C839   C     0.81942   0.14945   0.93851   0.00000  Uiso   1.00
C840   C     0.84809   0.15653   0.51418   0.00000  Uiso   1.00
C841   C     0.88786   0.13032   0.98702   0.00000  Uiso   1.00
C842   C     0.89153   0.11230   0.93744   0.00000  Uiso   1.00
C843   C     0.85767   0.12159   0.91351   0.00000  Uiso   1.00
C844   C     0.84586   0.17439   0.56340   0.00000  Uiso   1.00
C845   C     0.91654   0.13626   0.56271   0.00000  Uiso   1.00
C846   C     0.78914   0.16408   0.91114   0.00000  Uiso   1.00
C847   C     0.87727   0.31205   0.72920   0.00000  Uiso   1.00
C848   C     0.80658   0.16498   0.85211   0.00000  Uiso   1.00
C849   C     0.87724   0.02148   0.72935   0.00000  Uiso   1.00
C850   C     0.83332   0.04253   0.74929   0.00000  Uiso   1.00
C851   C     0.78943   0.02129   0.76885   0.00000  Uiso   1.00
C852   C     0.78950   0.31187   0.76908   0.00000  Uiso   1.00
C853   C     0.83344   0.29082   0.74949   0.00000  Uiso   1.00
C854   C     0.98526   0.13895   0.71882   0.00000  Uiso   1.00
C855   C     0.70044   0.13920   0.71788   0.00000  Uiso   1.00
C856   C     0.68117   0.19392   0.78192   0.00000  Uiso   1.00
C857   C     0.96635   0.19469   0.78143   0.00000  Uiso   1.00
C858   C     0.83332   0.08666   0.74976   0.00000  Uiso   1.00
C859   C     0.86013   0.16666   0.64788   0.00000  Uiso   1.00
C860   C     0.92264   0.12148   0.51080   0.00000  Uiso   1.00
C861   C     0.87683   0.16140   0.58958   0.00000  Uiso   1.00
C862   C     0.74583   0.18425   0.93984   0.00000  Uiso   1.00
C863   C     0.73461   0.19312   0.99455   0.00000  Uiso   1.00
C864   C     0.76775   0.18439   0.51997   0.00000  Uiso   1.00
H865   H     0.94093   0.12607   0.58292   0.00000  Uiso   1.00
H866   H     0.91126   0.03800   0.71350   0.00000  Uiso   1.00
H867   H     0.75538   0.03765   0.78460   0.00000  Uiso   1.00
H868   H     0.75548   0.29537   0.78502   0.00000  Uiso   1.00
H869   H     0.97376   0.11644   0.69495   0.00000  Uiso   1.00
H870   H     0.69207   0.21476   0.80808   0.00000  Uiso   1.00
H871   H     0.92078   0.09120   0.91693   0.00000  Uiso   1.00
H872   H     0.95295   0.10135   0.99055   0.00000  Uiso   1.00
H873   H     0.81816   0.19643   0.58437   0.00000  Uiso   1.00
H874   H     0.72173   0.19482   0.91947   0.00000  Uiso   1.00
H875   H     0.75740   0.19332   0.56202   0.00000  Uiso   1.00
H876   H     0.70115   0.20872   0.51672   0.00000  Uiso   1.00
H877   H     0.86141   0.10633   0.87541   0.00000  Uiso   1.00
H878   H     0.91127   0.29567   0.71305   0.00000  Uiso   1.00
N879   N     0.71426   0.16668   0.75001   0.00000  Uiso   1.00
N880   N     0.95239   0.16665   0.75001   0.00000  Uiso   1.00
O881   O     0.79512   0.22775   0.75001   0.00000  Uiso   1.00
O882   O     0.87157   0.22774   0.75001   0.00000  Uiso   1.00
O883   O     0.77613   0.16666   0.82681   0.00000  Uiso   1.00
O884   O     0.85258   0.16665   0.82681   0.00000  Uiso   1.00
O885   O     0.79510   0.10559   0.75000   0.00000  Uiso   1.00
O886   O     0.87154   0.10558   0.75000   0.00000  Uiso   1.00
O887   O     0.81409   0.16668   0.67319   0.00000  Uiso   1.00
O888   O     0.89053   0.16667   0.67319   0.00000  Uiso   1.00
Zn889  Zn    0.78229   0.16667   0.75000   0.00000  Uiso   1.00
Zn890  Zn    0.88438   0.16666   0.75000   0.00000  Uiso   1.00
O891   O     0.73308   0.10944   0.68865   0.00000  Uiso   1.00
C892   C     0.73847   0.11019   0.63290   0.00000  Uiso   1.00
H893   H     0.77723   0.11496   0.60963   0.00000  Uiso   1.00
H894   H     0.71870   0.13593   0.62121   0.00000  Uiso   1.00
C895   C     0.72350   0.06816   0.61575   0.00000  Uiso   1.00
H896   H     0.74561   0.04296   0.62428   0.00000  Uiso   1.00
H897   H     0.68506   0.06175   0.63936   0.00000  Uiso   1.00
C898   C     0.73047   0.06777   0.55536   0.00000  Uiso   1.00
H899   H     0.70800   0.09228   0.54607   0.00000  Uiso   1.00
H900   H     0.71952   0.03693   0.54395   0.00000  Uiso   1.00
H901   H     0.76892   0.07335   0.53083   0.00000  Uiso   1.00
O902   O     0.93162   0.22042   0.81627   0.00000  Uiso   1.00
C903   C     0.94663   0.26271   0.81254   0.00000  Uiso   1.00
H904   H     0.91849   0.28160   0.80441   0.00000  Uiso   1.00
H905   H     0.98099   0.26942   0.77873   0.00000  Uiso   1.00
C906   C     0.94996   0.27725   0.86676   0.00000  Uiso   1.00
H907   H     0.91448   0.27270   0.89931   0.00000  Uiso   1.00
H908   H     0.97706   0.25837   0.87698   0.00000  Uiso   1.00
C909   C     0.96405   0.32326   0.86490   0.00000  Uiso   1.00
H910   H     0.99988   0.32843   0.83331   0.00000  Uiso   1.00
H911   H     0.96595   0.33293   0.90479   0.00000  Uiso   1.00
H912   H     0.93685   0.00958   0.85590   0.00000  Uiso   1.00
C913   C     0.16675   0.58001   0.74992   0.00000  Uiso   1.00
C914   C     0.14503   0.49709   0.99162   0.00000  Uiso   1.00
C915   C     0.15275   0.48278   0.93851   0.00000  Uiso   1.00
C916   C     0.18143   0.48986   0.51418   0.00000  Uiso   1.00
C917   C     0.22120   0.46365   0.98702   0.00000  Uiso   1.00
C918   C     0.22486   0.44563   0.93744   0.00000  Uiso   1.00
C919   C     0.19100   0.45492   0.91351   0.00000  Uiso   1.00
C920   C     0.17919   0.50772   0.56340   0.00000  Uiso   1.00
C921   C     0.24988   0.46959   0.56271   0.00000  Uiso   1.00
C922   C     0.12248   0.49741   0.91114   0.00000  Uiso   1.00
C923   C     0.21060   0.64539   0.72920   0.00000  Uiso   1.00
C924   C     0.13992   0.49831   0.85211   0.00000  Uiso   1.00
C925   C     0.21057   0.35482   0.72935   0.00000  Uiso   1.00
C926   C     0.16665   0.37586   0.74929   0.00000  Uiso   1.00
C927   C     0.12277   0.35463   0.76885   0.00000  Uiso   1.00
C928   C     0.12283   0.64521   0.76908   0.00000  Uiso   1.00
C929   C     0.16678   0.62416   0.74949   0.00000  Uiso   1.00
C930   C     0.31859   0.47228   0.71882   0.00000  Uiso   1.00
C931   C     0.03377   0.47253   0.71788   0.00000  Uiso   1.00
C932   C     0.01450   0.52725   0.78192   0.00000  Uiso   1.00
C933   C     0.29968   0.52802   0.78143   0.00000  Uiso   1.00
C934   C     0.16665   0.41999   0.74976   0.00000  Uiso   1.00
C935   C     0.19346   0.49999   0.64788   0.00000  Uiso   1.00
C936   C     0.25598   0.45481   0.51080   0.00000  Uiso   1.00
C937   C     0.21016   0.49473   0.58958   0.00000  Uiso   1.00
C938   C     0.07916   0.51758   0.93984   0.00000  Uiso   1.00
C939   C     0.06794   0.52646   0.99455   0.00000  Uiso   1.00
C940   C     0.10109   0.51772   0.51997   0.00000  Uiso   1.00
H941   H     0.27426   0.45940   0.58292   0.00000  Uiso   1.00
H942   H     0.24459   0.37134   0.71350   0.00000  Uiso   1.00
H943   H     0.08871   0.37098   0.78460   0.00000  Uiso   1.00
H944   H     0.08881   0.62870   0.78502   0.00000  Uiso   1.00
H945   H     0.30710   0.44978   0.69495   0.00000  Uiso   1.00
H946   H     0.02540   0.54809   0.80808   0.00000  Uiso   1.00
H947   H     0.25411   0.42453   0.91693   0.00000  Uiso   1.00
H948   H     0.28628   0.43468   0.99055   0.00000  Uiso   1.00
H949   H     0.15149   0.52976   0.58437   0.00000  Uiso   1.00
H950   H     0.05506   0.52816   0.91947   0.00000  Uiso   1.00
H951   H     0.09074   0.52665   0.56202   0.00000  Uiso   1.00
H952   H     0.03448   0.54205   0.51672   0.00000  Uiso   1.00
H953   H     0.19475   0.43966   0.87541   0.00000  Uiso   1.00
H954   H     0.24461   0.62900   0.71305   0.00000  Uiso   1.00
N955   N     0.04760   0.50001   0.75001   0.00000  Uiso   1.00
N956   N     0.28573   0.49998   0.75001   0.00000  Uiso   1.00
O957   O     0.12846   0.56108   0.75001   0.00000  Uiso   1.00
O958   O     0.20490   0.56107   0.75001   0.00000  Uiso   1.00
O959   O     0.10947   0.50000   0.82681   0.00000  Uiso   1.00
O960   O     0.18591   0.49999   0.82681   0.00000  Uiso   1.00
O961   O     0.12843   0.43893   0.75000   0.00000  Uiso   1.00
O962   O     0.20488   0.43892   0.75000   0.00000  Uiso   1.00
O963   O     0.14742   0.50001   0.67319   0.00000  Uiso   1.00
O964   O     0.22387   0.50000   0.67319   0.00000  Uiso   1.00
Zn965  Zn    0.11562   0.50001   0.75000   0.00000  Uiso   1.00
Zn966  Zn    0.21771   0.49999   0.75000   0.00000  Uiso   1.00
O967   O     0.06641   0.44277   0.68865   0.00000  Uiso   1.00
C968   C     0.07181   0.44352   0.63290   0.00000  Uiso   1.00
H969   H     0.11056   0.44829   0.60963   0.00000  Uiso   1.00
H970   H     0.05203   0.46927   0.62121   0.00000  Uiso   1.00
C971   C     0.05683   0.40149   0.61575   0.00000  Uiso   1.00
H972   H     0.07895   0.37629   0.62428   0.00000  Uiso   1.00
H973   H     0.01840   0.39509   0.63936   0.00000  Uiso   1.00
C974   C     0.06381   0.40111   0.55536   0.00000  Uiso   1.00
H975   H     0.04133   0.42562   0.54607   0.00000  Uiso   1.00
H976   H     0.05286   0.37026   0.54395   0.00000  Uiso   1.00
H977   H     0.10225   0.40668   0.53083   0.00000  Uiso   1.00
O978   O     0.26495   0.55376   0.81627   0.00000  Uiso   1.00
C979   C     0.27996   0.59604   0.81254   0.00000  Uiso   1.00
H980   H     0.25183   0.61493   0.80441   0.00000  Uiso   1.00
H981   H     0.31432   0.60276   0.77873   0.00000  Uiso   1.00
C982   C     0.28330   0.61058   0.86676   0.00000  Uiso   1.00
H983   H     0.24781   0.60603   0.89931   0.00000  Uiso   1.00
H984   H     0.31039   0.59170   0.87698   0.00000  Uiso   1.00
C985   C     0.29738   0.65660   0.86490   0.00000  Uiso   1.00
H986   H     0.33321   0.66177   0.83331   0.00000  Uiso   1.00
H987   H     0.29928   0.66626   0.90479   0.00000  Uiso   1.00
H988   H     0.27018   0.34292   0.85590   0.00000  Uiso   1.00
C989   C     0.50008   0.58001   0.74992   0.00000  Uiso   1.00
C990   C     0.47836   0.49709   0.99162   0.00000  Uiso   1.00
C991   C     0.48609   0.48278   0.93851   0.00000  Uiso   1.00
C992   C     0.51476   0.48986   0.51418   0.00000  Uiso   1.00
C993   C     0.55453   0.46365   0.98702   0.00000  Uiso   1.00
C994   C     0.55820   0.44563   0.93744   0.00000  Uiso   1.00
C995   C     0.52434   0.45492   0.91351   0.00000  Uiso   1.00
C996   C     0.51252   0.50772   0.56340   0.00000  Uiso   1.00
C997   C     0.58321   0.46959   0.56271   0.00000  Uiso   1.00
C998   C     0.45581   0.49741   0.91114   0.00000  Uiso   1.00
C999   C     0.54394   0.64539   0.72920   0.00000  Uiso   1.00
C1000  C     0.47325   0.49831   0.85211   0.00000  Uiso   1.00
C1001  C     0.54391   0.35482   0.72935   0.00000  Uiso   1.00
C1002  C     0.49999   0.37586   0.74929   0.00000  Uiso   1.00
C1003  C     0.45610   0.35463   0.76885   0.00000  Uiso   1.00
C1004  C     0.45617   0.64521   0.76908   0.00000  Uiso   1.00
C1005  C     0.50011   0.62416   0.74949   0.00000  Uiso   1.00
C1006  C     0.65192   0.47228   0.71882   0.00000  Uiso   1.00
C1007  C     0.36711   0.47253   0.71788   0.00000  Uiso   1.00
C1008  C     0.34784   0.52725   0.78192   0.00000  Uiso   1.00
C1009  C     0.63302   0.52802   0.78143   0.00000  Uiso   1.00
C1010  C     0.49998   0.41999   0.74976   0.00000  Uiso   1.00
C1011  C     0.52680   0.49999   0.64788   0.00000  Uiso   1.00
C1012  C     0.58931   0.45481   0.51080   0.00000  Uiso   1.00
C1013  C     0.54350   0.49473   0.58958   0.00000  Uiso   1.00
C1014  C     0.41250   0.51758   0.93984   0.00000  Uiso   1.00
C1015  C     0.40127   0.52646   0.99455   0.00000  Uiso   1.00
C1016  C     0.43442   0.51772   0.51997   0.00000  Uiso   1.00
H1017  H     0.60759   0.45940   0.58292   0.00000  Uiso   1.00
H1018  H     0.57792   0.37134   0.71350   0.00000  Uiso   1.00
H1019  H     0.42204   0.37098   0.78460   0.00000  Uiso   1.00
H1020  H     0.42214   0.62870   0.78502   0.00000  Uiso   1.00
H1021  H     0.64043   0.44978   0.69495   0.00000  Uiso   1.00
H1022  H     0.35873   0.54809   0.80808   0.00000  Uiso   1.00
H1023  H     0.58744   0.42453   0.91693   0.00000  Uiso   1.00
H1024  H     0.61961   0.43468   0.99055   0.00000  Uiso   1.00
H1025  H     0.48483   0.52976   0.58437   0.00000  Uiso   1.00
H1026  H     0.38840   0.52816   0.91947   0.00000  Uiso   1.00
H1027  H     0.42407   0.52665   0.56202   0.00000  Uiso   1.00
H1028  H     0.36781   0.54205   0.51672   0.00000  Uiso   1.00
H1029  H     0.52808   0.43966   0.87541   0.00000  Uiso   1.00
H1030  H     0.57794   0.62900   0.71305   0.00000  Uiso   1.00
N1031  N     0.38093   0.50001   0.75001   0.00000  Uiso   1.00
N1032  N     0.61906   0.49998   0.75001   0.00000  Uiso   1.00
O1033  O     0.46179   0.56108   0.75001   0.00000  Uiso   1.00
O1034  O     0.53823   0.56107   0.75001   0.00000  Uiso   1.00
O1035  O     0.44280   0.50000   0.82681   0.00000  Uiso   1.00
O1036  O     0.51924   0.49999   0.82681   0.00000  Uiso   1.00
O1037  O     0.46177   0.43893   0.75000   0.00000  Uiso   1.00
O1038  O     0.53821   0.43892   0.75000   0.00000  Uiso   1.00
O1039  O     0.48076   0.50001   0.67319   0.00000  Uiso   1.00
O1040  O     0.55720   0.50000   0.67319   0.00000  Uiso   1.00
Zn1041 Zn    0.44896   0.50001   0.75000   0.00000  Uiso   1.00
Zn1042 Zn    0.55104   0.49999   0.75000   0.00000  Uiso   1.00
O1043  O     0.39974   0.44277   0.68865   0.00000  Uiso   1.00
C1044  C     0.40514   0.44352   0.63290   0.00000  Uiso   1.00
H1045  H     0.44389   0.44829   0.60963   0.00000  Uiso   1.00
H1046  H     0.38537   0.46927   0.62121   0.00000  Uiso   1.00
C1047  C     0.39017   0.40149   0.61575   0.00000  Uiso   1.00
H1048  H     0.41228   0.37629   0.62428   0.00000  Uiso   1.00
H1049  H     0.35173   0.39509   0.63936   0.00000  Uiso   1.00
C1050  C     0.39714   0.40111   0.55536   0.00000  Uiso   1.00
H1051  H     0.37467   0.42562   0.54607   0.00000  Uiso   1.00
H1052  H     0.38619   0.37026   0.54395   0.00000  Uiso   1.00
H1053  H     0.43558   0.40668   0.53083   0.00000  Uiso   1.00
O1054  O     0.59828   0.55376   0.81627   0.00000  Uiso   1.00
C1055  C     0.61329   0.59604   0.81254   0.00000  Uiso   1.00
H1056  H     0.58516   0.61493   0.80441   0.00000  Uiso   1.00
H1057  H     0.64766   0.60276   0.77873   0.00000  Uiso   1.00
C1058  C     0.61663   0.61058   0.86676   0.00000  Uiso   1.00
H1059  H     0.58115   0.60603   0.89931   0.00000  Uiso   1.00
H1060  H     0.64372   0.59170   0.87698   0.00000  Uiso   1.00
C1061  C     0.63071   0.65660   0.86490   0.00000  Uiso   1.00
H1062  H     0.66655   0.66177   0.83331   0.00000  Uiso   1.00
H1063  H     0.63261   0.66626   0.90479   0.00000  Uiso   1.00
H1064  H     0.60351   0.34292   0.85590   0.00000  Uiso   1.00
C1065  C     0.83341   0.58001   0.74992   0.00000  Uiso   1.00
C1066  C     0.81170   0.49709   0.99162   0.00000  Uiso   1.00
C1067  C     0.81942   0.48278   0.93851   0.00000  Uiso   1.00
C1068  C     0.84809   0.48986   0.51418   0.00000  Uiso   1.00
C1069  C     0.88786   0.46365   0.98702   0.00000  Uiso   1.00
C1070  C     0.89153   0.44563   0.93744   0.00000  Uiso   1.00
C1071  C     0.85767   0.45492   0.91351   0.00000  Uiso   1.00
C1072  C     0.84586   0.50772   0.56340   0.00000  Uiso   1.00
C1073  C     0.91654   0.46959   0.56271   0.00000  Uiso   1.00
C1074  C     0.78914   0.49741   0.91114   0.00000  Uiso   1.00
C1075  C     0.87727   0.64539   0.72920   0.00000  Uiso   1.00
C1076  C     0.80658   0.49831   0.85211   0.00000  Uiso   1.00
C1077  C     0.87724   0.35482   0.72935   0.00000  Uiso   1.00
C1078  C     0.83332   0.37586   0.74929   0.00000  Uiso   1.00
C1079  C     0.78943   0.35463   0.76885   0.00000  Uiso   1.00
C1080  C     0.78950   0.64521   0.76908   0.00000  Uiso   1.00
C1081  C     0.83344   0.62416   0.74949   0.00000  Uiso   1.00
C1082  C     0.98526   0.47228   0.71882   0.00000  Uiso   1.00
C1083  C     0.70044   0.47253   0.71788   0.00000  Uiso   1.00
C1084  C     0.68117   0.52725   0.78192   0.00000  Uiso   1.00
C1085  C     0.96635   0.52802   0.78143   0.00000  Uiso   1.00
C1086  C     0.83332   0.41999   0.74976   0.00000  Uiso   1.00
C1087  C     0.86013   0.49999   0.64788   0.00000  Uiso   1.00
C1088  C     0.92264   0.45481   0.51080   0.00000  Uiso   1.00
C1089  C     0.87683   0.49473   0.58958   0.00000  Uiso   1.00
C1090  C     0.74583   0.51758   0.93984   0.00000  Uiso   1.00
C1091  C     0.73461   0.52646   0.99455   0.00000  Uiso   1.00
C1092  C     0.76775   0.51772   0.51997   0.00000  Uiso   1.00
H1093  H     0.94093   0.45940   0.58292   0.00000  Uiso   1.00
H1094  H     0.91126   0.37134   0.71350   0.00000  Uiso   1.00
H1095  H     0.75538   0.37098   0.78460   0.00000  Uiso   1.00
H1096  H     0.75548   0.62870   0.78502   0.00000  Uiso   1.00
H1097  H     0.97376   0.44978   0.69495   0.00000  Uiso   1.00
H1098  H     0.69207   0.54809   0.80808   0.00000  Uiso   1.00
H1099  H     0.92078   0.42453   0.91693   0.00000  Uiso   1.00
H1100  H     0.95295   0.43468   0.99055   0.00000  Uiso   1.00
H1101  H     0.81816   0.52976   0.58437   0.00000  Uiso   1.00
H1102  H     0.72173   0.52816   0.91947   0.00000  Uiso   1.00
H1103  H     0.75740   0.52665   0.56202   0.00000  Uiso   1.00
H1104  H     0.70115   0.54205   0.51672   0.00000  Uiso   1.00
H1105  H     0.86141   0.43966   0.87541   0.00000  Uiso   1.00
H1106  H     0.91127   0.62900   0.71305   0.00000  Uiso   1.00
N1107  N     0.71426   0.50001   0.75001   0.00000  Uiso   1.00
N1108  N     0.95239   0.49998   0.75001   0.00000  Uiso   1.00
O1109  O     0.79512   0.56108   0.75001   0.00000  Uiso   1.00
O1110  O     0.87157   0.56107   0.75001   0.00000  Uiso   1.00
O1111  O     0.77613   0.50000   0.82681   0.00000  Uiso   1.00
O1112  O     0.85258   0.49999   0.82681   0.00000  Uiso   1.00
O1113  O     0.79510   0.43893   0.75000   0.00000  Uiso   1.00
O1114  O     0.87154   0.43892   0.75000   0.00000  Uiso   1.00
O1115  O     0.81409   0.50001   0.67319   0.00000  Uiso   1.00
O1116  O     0.89053   0.50000   0.67319   0.00000  Uiso   1.00
Zn1117 Zn    0.78229   0.50001   0.75000   0.00000  Uiso   1.00
Zn1118 Zn    0.88438   0.49999   0.75000   0.00000  Uiso   1.00
O1119  O     0.73308   0.44277   0.68865   0.00000  Uiso   1.00
C1120  C     0.73847   0.44352   0.63290   0.00000  Uiso   1.00
H1121  H     0.77723   0.44829   0.60963   0.00000  Uiso   1.00
H1122  H     0.71870   0.46927   0.62121   0.00000  Uiso   1.00
C1123  C     0.72350   0.40149   0.61575   0.00000  Uiso   1.00
H1124  H     0.74561   0.37629   0.62428   0.00000  Uiso   1.00
H1125  H     0.68506   0.39509   0.63936   0.00000  Uiso   1.00
C1126  C     0.73047   0.40111   0.55536   0.00000  Uiso   1.00
H1127  H     0.70800   0.42562   0.54607   0.00000  Uiso   1.00
H1128  H     0.71952   0.37026   0.54395   0.00000  Uiso   1.00
H1129  H     0.76892   0.40668   0.53083   0.00000  Uiso   1.00
O1130  O     0.93162   0.55376   0.81627   0.00000  Uiso   1.00
C1131  C     0.94663   0.59604   0.81254   0.00000  Uiso   1.00
H1132  H     0.91849   0.61493   0.80441   0.00000  Uiso   1.00
H1133  H     0.98099   0.60276   0.77873   0.00000  Uiso   1.00
C1134  C     0.94996   0.61058   0.86676   0.00000  Uiso   1.00
H1135  H     0.91448   0.60603   0.89931   0.00000  Uiso   1.00
H1136  H     0.97706   0.59170   0.87698   0.00000  Uiso   1.00
C1137  C     0.96405   0.65660   0.86490   0.00000  Uiso   1.00
H1138  H     0.99988   0.66177   0.83331   0.00000  Uiso   1.00
H1139  H     0.96595   0.66626   0.90479   0.00000  Uiso   1.00
H1140  H     0.93685   0.34292   0.85590   0.00000  Uiso   1.00
C1141  C     0.16675   0.91335   0.74992   0.00000  Uiso   1.00
C1142  C     0.14503   0.83042   0.99162   0.00000  Uiso   1.00
C1143  C     0.15275   0.81612   0.93851   0.00000  Uiso   1.00
C1144  C     0.18143   0.82319   0.51418   0.00000  Uiso   1.00
C1145  C     0.22120   0.79698   0.98702   0.00000  Uiso   1.00
C1146  C     0.22486   0.77896   0.93744   0.00000  Uiso   1.00
C1147  C     0.19100   0.78826   0.91351   0.00000  Uiso   1.00
C1148  C     0.17919   0.84105   0.56340   0.00000  Uiso   1.00
C1149  C     0.24988   0.80292   0.56271   0.00000  Uiso   1.00
C1150  C     0.12248   0.83075   0.91114   0.00000  Uiso   1.00
C1151  C     0.21060   0.97872   0.72920   0.00000  Uiso   1.00
C1152  C     0.13992   0.83165   0.85211   0.00000  Uiso   1.00
C1153  C     0.21057   0.68815   0.72935   0.00000  Uiso   1.00
C1154  C     0.16665   0.70919   0.74929   0.00000  Uiso   1.00
C1155  C     0.12277   0.68796   0.76885   0.00000  Uiso   1.00
C1156  C     0.12283   0.97854   0.76908   0.00000  Uiso   1.00
C1157  C     0.16678   0.95749   0.74949   0.00000  Uiso   1.00
C1158  C     0.31859   0.80562   0.71882   0.00000  Uiso   1.00
C1159  C     0.03377   0.80586   0.71788   0.00000  Uiso   1.00
C1160  C     0.01450   0.86058   0.78192   0.00000  Uiso   1.00
C1161  C     0.29968   0.86135   0.78143   0.00000  Uiso   1.00
C1162  C     0.16665   0.75333   0.74976   0.00000  Uiso   1.00
C1163  C     0.19346   0.83333   0.64788   0.00000  Uiso   1.00
C1164  C     0.25598   0.78814   0.51080   0.00000  Uiso   1.00
C1165  C     0.21016   0.82806   0.58958   0.00000  Uiso   1.00
C1166  C     0.07916   0.85091   0.93984   0.00000  Uiso   1.00
C1167  C     0.06794   0.85979   0.99455   0.00000  Uiso   1.00
C1168  C     0.10109   0.85106   0.51997   0.00000  Uiso   1.00
H1169  H     0.27426   0.79274   0.58292   0.00000  Uiso   1.00
H1170  H     0.24459   0.70467   0.71350   0.00000  Uiso   1.00
H1171  H     0.08871   0.70432   0.78460   0.00000  Uiso   1.00
H1172  H     0.08881   0.96204   0.78502   0.00000  Uiso   1.00
H1173  H     0.30710   0.78311   0.69495   0.00000  Uiso   1.00
H1174  H     0.02540   0.88142   0.80808   0.00000  Uiso   1.00
H1175  H     0.25411   0.75787   0.91693   0.00000  Uiso   1.00
H1176  H     0.28628   0.76801   0.99055   0.00000  Uiso   1.00
H1177  H     0.15149   0.86309   0.58437   0.00000  Uiso   1.00
H1178  H     0.05506   0.86149   0.91947   0.00000  Uiso   1.00
H1179  H     0.09074   0.85998   0.56202   0.00000  Uiso   1.00
H1180  H     0.03448   0.87539   0.51672   0.00000  Uiso   1.00
H1181  H     0.19475   0.77299   0.87541   0.00000  Uiso   1.00
H1182  H     0.24461   0.96233   0.71305   0.00000  Uiso   1.00
N1183  N     0.04760   0.83334   0.75001   0.00000  Uiso   1.00
N1184  N     0.28573   0.83331   0.75001   0.00000  Uiso   1.00
O1185  O     0.12846   0.89442   0.75001   0.00000  Uiso   1.00
O1186  O     0.20490   0.89441   0.75001   0.00000  Uiso   1.00
O1187  O     0.10947   0.83333   0.82681   0.00000  Uiso   1.00
O1188  O     0.18591   0.83332   0.82681   0.00000  Uiso   1.00
O1189  O     0.12843   0.77226   0.75000   0.00000  Uiso   1.00
O1190  O     0.20488   0.77225   0.75000   0.00000  Uiso   1.00
O1191  O     0.14742   0.83335   0.67319   0.00000  Uiso   1.00
O1192  O     0.22387   0.83334   0.67319   0.00000  Uiso   1.00
Zn1193 Zn    0.11562   0.83334   0.75000   0.00000  Uiso   1.00
Zn1194 Zn    0.21771   0.83333   0.75000   0.00000  Uiso   1.00
O1195  O     0.06641   0.77610   0.68865   0.00000  Uiso   1.00
C1196  C     0.07181   0.77685   0.63290   0.00000  Uiso   1.00
H1197  H     0.11056   0.78163   0.60963   0.00000  Uiso   1.00
H1198  H     0.05203   0.80260   0.62121   0.00000  Uiso   1.00
C1199  C     0.05683   0.73483   0.61575   0.00000  Uiso   1.00
H1200  H     0.07895   0.70963   0.62428   0.00000  Uiso   1.00
H1201  H     0.01840   0.72842   0.63936   0.00000  Uiso   1.00
C1202  C     0.06381   0.73444   0.55536   0.00000  Uiso   1.00
H1203  H     0.04133   0.75895   0.54607   0.00000  Uiso   1.00
H1204  H     0.05286   0.70359   0.54395   0.00000  Uiso   1.00
H1205  H     0.10225   0.74001   0.53083   0.00000  Uiso   1.00
O1206  O     0.26495   0.88709   0.81627   0.00000  Uiso   1.00
C1207  C     0.27996   0.92938   0.81254   0.00000  Uiso   1.00
H1208  H     0.25183   0.94826   0.80441   0.00000  Uiso   1.00
H1209  H     0.31432   0.93609   0.77873   0.00000  Uiso   1.00
C1210  C     0.28330   0.94392   0.86676   0.00000  Uiso   1.00
H1211  H     0.24781   0.93936   0.89931   0.00000  Uiso   1.00
H1212  H     0.31039   0.92503   0.87698   0.00000  Uiso   1.00
C1213  C     0.29738   0.98993   0.86490   0.00000  Uiso   1.00
H1214  H     0.33321   0.99510   0.83331   0.00000  Uiso   1.00
H1215  H     0.29928   0.99959   0.90479   0.00000  Uiso   1.00
H1216  H     0.27018   0.67625   0.85590   0.00000  Uiso   1.00
C1217  C     0.50008   0.91335   0.74992   0.00000  Uiso   1.00
C1218  C     0.47836   0.83042   0.99162   0.00000  Uiso   1.00
C1219  C     0.48609   0.81612   0.93851   0.00000  Uiso   1.00
C1220  C     0.51476   0.82319   0.51418   0.00000  Uiso   1.00
C1221  C     0.55453   0.79698   0.98702   0.00000  Uiso   1.00
C1222  C     0.55820   0.77896   0.93744   0.00000  Uiso   1.00
C1223  C     0.52434   0.78826   0.91351   0.00000  Uiso   1.00
C1224  C     0.51252   0.84105   0.56340   0.00000  Uiso   1.00
C1225  C     0.58321   0.80292   0.56271   0.00000  Uiso   1.00
C1226  C     0.45581   0.83075   0.91114   0.00000  Uiso   1.00
C1227  C     0.54394   0.97872   0.72920   0.00000  Uiso   1.00
C1228  C     0.47325   0.83165   0.85211   0.00000  Uiso   1.00
C1229  C     0.54391   0.68815   0.72935   0.00000  Uiso   1.00
C1230  C     0.49999   0.70919   0.74929   0.00000  Uiso   1.00
C1231  C     0.45610   0.68796   0.76885   0.00000  Uiso   1.00
C1232  C     0.45617   0.97854   0.76908   0.00000  Uiso   1.00
C1233  C     0.50011   0.95749   0.74949   0.00000  Uiso   1.00
C1234  C     0.65192   0.80562   0.71882   0.00000  Uiso   1.00
C1235  C     0.36711   0.80586   0.71788   0.00000  Uiso   1.00
C1236  C     0.34784   0.86058   0.78192   0.00000  Uiso   1.00
C1237  C     0.63302   0.86135   0.78143   0.00000  Uiso   1.00
C1238  C     0.49998   0.75333   0.74976   0.00000  Uiso   1.00
C1239  C     0.52680   0.83333   0.64788   0.00000  Uiso   1.00
C1240  C     0.58931   0.78814   0.51080   0.00000  Uiso   1.00
C1241  C     0.54350   0.82806   0.58958   0.00000  Uiso   1.00
C1242  C     0.41250   0.85091   0.93984   0.00000  Uiso   1.00
C1243  C     0.40127   0.85979   0.99455   0.00000  Uiso   1.00
C1244  C     0.43442   0.85106   0.51997   0.00000  Uiso   1.00
H1245  H     0.60759   0.79274   0.58292   0.00000  Uiso   1.00
H1246  H     0.57792   0.70467   0.71350   0.00000  Uiso   1.00
H1247  H     0.42204   0.70432   0.78460   0.00000  Uiso   1.00
H1248  H     0.42214   0.96204   0.78502   0.00000  Uiso   1.00
H1249  H     0.64043   0.78311   0.69495   0.00000  Uiso   1.00
H1250  H     0.35873   0.88142   0.80808   0.00000  Uiso   1.00
H1251  H     0.58744   0.75787   0.91693   0.00000  Uiso   1.00
H1252  H     0.61961   0.76801   0.99055   0.00000  Uiso   1.00
H1253  H     0.48483   0.86309   0.58437   0.00000  Uiso   1.00
H1254  H     0.38840   0.86149   0.91947   0.00000  Uiso   1.00
H1255  H     0.42407   0.85998   0.56202   0.00000  Uiso   1.00
H1256  H     0.36781   0.87539   0.51672   0.00000  Uiso   1.00
H1257  H     0.52808   0.77299   0.87541   0.00000  Uiso   1.00
H1258  H     0.57794   0.96233   0.71305   0.00000  Uiso   1.00
N1259  N     0.38093   0.83334   0.75001   0.00000  Uiso   1.00
N1260  N     0.61906   0.83331   0.75001   0.00000  Uiso   1.00
O1261  O     0.46179   0.89442   0.75001   0.00000  Uiso   1.00
O1262  O     0.53823   0.89441   0.75001   0.00000  Uiso   1.00
O1263  O     0.44280   0.83333   0.82681   0.00000  Uiso   1.00
O1264  O     0.51924   0.83332   0.82681   0.00000  Uiso   1.00
O1265  O     0.46177   0.77226   0.75000   0.00000  Uiso   1.00
O1266  O     0.53821   0.77225   0.75000   0.00000  Uiso   1.00
O1267  O     0.48076   0.83335   0.67319   0.00000  Uiso   1.00
O1268  O     0.55720   0.83334   0.67319   0.00000  Uiso   1.00
Zn1269 Zn    0.44896   0.83334   0.75000   0.00000  Uiso   1.00
Zn1270 Zn    0.55104   0.83333   0.75000   0.00000  Uiso   1.00
O1271  O     0.39974   0.77610   0.68865   0.00000  Uiso   1.00
C1272  C     0.40514   0.77685   0.63290   0.00000  Uiso   1.00
H1273  H     0.44389   0.78163   0.60963   0.00000  Uiso   1.00
H1274  H     0.38537   0.80260   0.62121   0.00000  Uiso   1.00
C1275  C     0.39017   0.73483   0.61575   0.00000  Uiso   1.00
H1276  H     0.41228   0.70963   0.62428   0.00000  Uiso   1.00
H1277  H     0.35173   0.72842   0.63936   0.00000  Uiso   1.00
C1278  C     0.39714   0.73444   0.55536   0.00000  Uiso   1.00
H1279  H     0.37467   0.75895   0.54607   0.00000  Uiso   1.00
H1280  H     0.38619   0.70359   0.54395   0.00000  Uiso   1.00
H1281  H     0.43558   0.74001   0.53083   0.00000  Uiso   1.00
O1282  O     0.59828   0.88709   0.81627   0.00000  Uiso   1.00
C1283  C     0.61329   0.92938   0.81254   0.00000  Uiso   1.00
H1284  H     0.58516   0.94826   0.80441   0.00000  Uiso   1.00
H1285  H     0.64766   0.93609   0.77873   0.00000  Uiso   1.00
C1286  C     0.61663   0.94392   0.86676   0.00000  Uiso   1.00
H1287  H     0.58115   0.93936   0.89931   0.00000  Uiso   1.00
H1288  H     0.64372   0.92503   0.87698   0.00000  Uiso   1.00
C1289  C     0.63071   0.98993   0.86490   0.00000  Uiso   1.00
H1290  H     0.66655   0.99510   0.83331   0.00000  Uiso   1.00
H1291  H     0.63261   0.99959   0.90479   0.00000  Uiso   1.00
H1292  H     0.60351   0.67625   0.85590   0.00000  Uiso   1.00
C1293  C     0.83341   0.91335   0.74992   0.00000  Uiso   1.00
C1294  C     0.81170   0.83042   0.99162   0.00000  Uiso   1.00
C1295  C     0.81942   0.81612   0.93851   0.00000  Uiso   1.00
C1296  C     0.84809   0.82319   0.51418   0.00000  Uiso   1.00
C1297  C     0.88786   0.79698   0.98702   0.00000  Uiso   1.00
C1298  C     0.89153   0.77896   0.93744   0.00000  Uiso   1.00
C1299  C     0.85767   0.78826   0.91351   0.00000  Uiso   1.00
C1300  C     0.84586   0.84105   0.56340   0.00000  Uiso   1.00
C1301  C     0.91654   0.80292   0.56271   0.00000  Uiso   1.00
C1302  C     0.78914   0.83075   0.91114   0.00000  Uiso   1.00
C1303  C     0.87727   0.97872   0.72920   0.00000  Uiso   1.00
C1304  C     0.80658   0.83165   0.85211   0.00000  Uiso   1.00
C1305  C     0.87724   0.68815   0.72935   0.00000  Uiso   1.00
C1306  C     0.83332   0.70919   0.74929   0.00000  Uiso   1.00
C1307  C     0.78943   0.68796   0.76885   0.00000  Uiso   1.00
C1308  C     0.78950   0.97854   0.76908   0.00000  Uiso   1.00
C1309  C     0.83344   0.95749   0.74949   0.00000  Uiso   1.00
C1310  C     0.98526   0.80562   0.71882   0.00000  Uiso   1.00
C1311  C     0.70044   0.80586   0.71788   0.00000  Uiso   1.00
C1312  C     0.68117   0.86058   0.78192   0.00000  Uiso   1.00
C1313  C     0.96635   0.86135   0.78143   0.00000  Uiso   1.00
C1314  C     0.83332   0.75333   0.74976   0.00000  Uiso   1.00
C1315  C     0.86013   0.83333   0.64788   0.00000  Uiso   1.00
C1316  C     0.92264   0.78814   0.51080   0.00000  Uiso   1.00
C1317  C     0.87683   0.82806   0.58958   0.00000  Uiso   1.00
C1318  C     0.74583   0.85091   0.93984   0.00000  Uiso   1.00
C1319  C     0.73461   0.85979   0.99455   0.00000  Uiso   1.00
C1320  C     0.76775   0.85106   0.51997   0.00000  Uiso   1.00
H1321  H     0.94093   0.79274   0.58292   0.00000  Uiso   1.00
H1322  H     0.91126   0.70467   0.71350   0.00000  Uiso   1.00
H1323  H     0.75538   0.70432   0.78460   0.00000  Uiso   1.00
H1324  H     0.75548   0.96204   0.78502   0.00000  Uiso   1.00
H1325  H     0.97376   0.78311   0.69495   0.00000  Uiso   1.00
H1326  H     0.69207   0.88142   0.80808   0.00000  Uiso   1.00
H1327  H     0.92078   0.75787   0.91693   0.00000  Uiso   1.00
H1328  H     0.95295   0.76801   0.99055   0.00000  Uiso   1.00
H1329  H     0.81816   0.86309   0.58437   0.00000  Uiso   1.00
H1330  H     0.72173   0.86149   0.91947   0.00000  Uiso   1.00
H1331  H     0.75740   0.85998   0.56202   0.00000  Uiso   1.00
H1332  H     0.70115   0.87539   0.51672   0.00000  Uiso   1.00
H1333  H     0.86141   0.77299   0.87541   0.00000  Uiso   1.00
H1334  H     0.91127   0.96233   0.71305   0.00000  Uiso   1.00
N1335  N     0.71426   0.83334   0.75001   0.00000  Uiso   1.00
N1336  N     0.95239   0.83331   0.75001   0.00000  Uiso   1.00
O1337  O     0.79512   0.89442   0.75001   0.00000  Uiso   1.00
O1338  O     0.87157   0.89441   0.75001   0.00000  Uiso   1.00
O1339  O     0.77613   0.83333   0.82681   0.00000  Uiso   1.00
O1340  O     0.85258   0.83332   0.82681   0.00000  Uiso   1.00
O1341  O     0.79510   0.77226   0.75000   0.00000  Uiso   1.00
O1342  O     0.87154   0.77225   0.75000   0.00000  Uiso   1.00
O1343  O     0.81409   0.83335   0.67319   0.00000  Uiso   1.00
O1344  O     0.89053   0.83334   0.67319   0.00000  Uiso   1.00
Zn1345 Zn    0.78229   0.83334   0.75000   0.00000  Uiso   1.00
Zn1346 Zn    0.88438   0.83333   0.75000   0.00000  Uiso   1.00
O1347  O     0.73308   0.77610   0.68865   0.00000  Uiso   1.00
C1348  C     0.73847   0.77685   0.63290   0.00000  Uiso   1.00
H1349  H     0.77723   0.78163   0.60963   0.00000  Uiso   1.00
H1350  H     0.71870   0.80260   0.62121   0.00000  Uiso   1.00
C1351  C     0.72350   0.73483   0.61575   0.00000  Uiso   1.00
H1352  H     0.74561   0.70963   0.62428   0.00000  Uiso   1.00
H1353  H     0.68506   0.72842   0.63936   0.00000  Uiso   1.00
C1354  C     0.73047   0.73444   0.55536   0.00000  Uiso   1.00
H1355  H     0.70800   0.75895   0.54607   0.00000  Uiso   1.00
H1356  H     0.71952   0.70359   0.54395   0.00000  Uiso   1.00
H1357  H     0.76892   0.74001   0.53083   0.00000  Uiso   1.00
O1358  O     0.93162   0.88709   0.81627   0.00000  Uiso   1.00
C1359  C     0.94663   0.92938   0.81254   0.00000  Uiso   1.00
H1360  H     0.91849   0.94826   0.80441   0.00000  Uiso   1.00
H1361  H     0.98099   0.93609   0.77873   0.00000  Uiso   1.00
C1362  C     0.94996   0.94392   0.86676   0.00000  Uiso   1.00
H1363  H     0.91448   0.93936   0.89931   0.00000  Uiso   1.00
H1364  H     0.97706   0.92503   0.87698   0.00000  Uiso   1.00
C1365  C     0.96405   0.98993   0.86490   0.00000  Uiso   1.00
H1366  H     0.99988   0.99510   0.83331   0.00000  Uiso   1.00
H1367  H     0.96595   0.99959   0.90479   0.00000  Uiso   1.00
H1368  H     0.93685   0.67625   0.85590   0.00000  Uiso   1.00
loop_
_geom_bond_atom_site_label_1
_geom_bond_atom_site_label_2
_geom_bond_distance
_geom_bond_site_symmetry_2
_ccdc_geom_bond_type
C1     O46     1.283   .     A
C1     C17     1.415   .     S
C1     O45     1.281   .     A
C2     C3      1.408   .     A
C2     C688    1.415   .     S
C2     C712    1.420   .     S
C3     C7      1.414   .     A
C3     C10     1.409   .     A
C4     C8      1.391   .     A
C4     C686    1.415   1_554 S
C4     C689    1.422   1_554 S
C5     C6      1.391   .     A
C5     C688    1.422   .     S
C5     C708    1.404   .     S
C6     H35     1.084   .     S
C6     C7      1.386   .     A
C7     H41     1.082   .     S
C8     C25     1.386   .     A
C8     H37     1.078   .     S
C9     C25     1.399   .     A
C9     H29     1.084   .     S
C9     C24     1.393   .     A
C10    C26     1.401   .     A
C10    C12     1.456   .     S
C11    H42     1.084   .     S
C11    C17     1.396   .     A
C11    C241    1.370   .     S
C12    O48     1.293   .     A
C12    O47     1.291   .     A
C13    C14     1.397   .     A
C13    H30     1.084   .     S
C13    C467    1.370   1_545 S
C14    C22     1.414   .     S
C14    C15     1.396   .     A
C15    H31     1.084   .     S
C15    C472    1.370   1_545 S
C16    C17     1.397   .     A
C16    H32     1.084   .     S
C16    C243    1.370   .     S
C18    N44     1.362   .     A
C18    H33     1.081   .     S
C18    C95     1.426   .     S
C19    N43     1.371   .     A
C19    O55     1.386   .     S
C19    C170    1.426   1_455 S
C20    H34     1.080   .     S
C20    N43     1.363   .     A
C20    C173    1.428   1_455 S
C21    O66     1.387   .     S
C21    N44     1.371   .     A
C21    C96     1.428   .     S
C22    O49     1.282   .     A
C22    O50     1.282   .     A
C23    O51     1.293   .     A
C23    O52     1.288   .     A
C23    C25     1.447   .     S
C24    C689    1.404   1_554 S
C24    H720    1.084   1_554 S
C26    C27     1.387   .     A
C26    H38     1.084   .     S
C27    C712    1.392   .     S
C27    H724    1.083   .     S
C28    H39     1.077   .     S
C28    C711    1.392   1_554 S
C28    C686    1.420   1_554 S
H36    C708    1.084   .     S
H40    C711    1.083   1_554 S
N43    Zn53    2.011   .     S
N44    Zn54    2.010   .     S
O45    Zn53    1.992   .     S
O46    Zn54    1.995   .     S
O47    Zn53    1.962   .     S
O48    Zn54    1.910   .     S
O49    Zn53    1.995   .     S
O50    Zn54    1.992   .     S
O51    Zn53    1.910   .     S
O52    Zn54    1.962   .     S
O55    C56     1.417   .     S
C56    H57     1.108   .     S
C56    C59     1.529   .     S
C56    H58     1.116   .     S
C59    H60     1.112   .     S
C59    H61     1.110   .     S
C59    C62     1.527   .     S
C62    H64     1.110   .     S
C62    H63     1.111   .     S
C62    H65     1.111   .     S
O66    C67     1.418   .     S
C67    H68     1.109   .     S
C67    C70     1.531   .     S
C67    H69     1.117   .     S
C70    H71     1.112   .     S
C70    C73     1.527   .     S
C70    H72     1.110   .     S
C73    H74     1.111   .     S
C73    H75     1.110   .     S
C73    H304    1.111   .     S
H76    C529    1.111   1_545 S
C77    O122    1.283   .     A
C77    C93     1.415   .     S
C77    O121    1.281   .     A
C78    C79     1.408   .     A
C78    C764    1.415   .     S
C78    C788    1.420   .     S
C79    C83     1.414   .     A
C79    C86     1.409   .     A
C80    C84     1.391   .     A
C80    C762    1.415   1_554 S
C80    C765    1.422   1_554 S
C81    C82     1.391   .     A
C81    C764    1.422   .     S
C81    C784    1.404   .     S
C82    H111    1.084   .     S
C82    C83     1.386   .     A
C83    H117    1.082   .     S
C84    C101    1.386   .     A
C84    H113    1.078   .     S
C85    C101    1.399   .     A
C85    H105    1.084   .     S
C85    C100    1.393   .     A
C86    C102    1.401   .     A
C86    C88     1.456   .     S
C87    H118    1.084   .     S
C87    C93     1.396   .     A
C87    C317    1.370   .     S
C88    O124    1.293   .     A
C88    O123    1.291   .     A
C89    C90     1.397   .     A
C89    H106    1.084   .     S
C89    C543    1.370   1_545 S
C90    C98     1.414   .     S
C90    C91     1.396   .     A
C91    H107    1.084   .     S
C91    C548    1.370   1_545 S
C92    C93     1.397   .     A
C92    H108    1.084   .     S
C92    C319    1.370   .     S
C94    N120    1.362   .     A
C94    H109    1.081   .     S
C94    C171    1.426   .     S
C95    N119    1.371   .     A
C95    O131    1.386   .     S
C96    H110    1.080   .     S
C96    N119    1.363   .     A
C97    O142    1.387   .     S
C97    N120    1.371   .     A
C97    C172    1.428   .     S
C98    O125    1.282   .     A
C98    O126    1.282   .     A
C99    O127    1.293   .     A
C99    O128    1.288   .     A
C99    C101    1.447   .     S
C100   C765    1.404   1_554 S
C100   H796    1.084   1_554 S
C102   C103    1.387   .     A
C102   H114    1.084   .     S
C103   C788    1.392   .     S
C103   H800    1.083   .     S
C104   H115    1.077   .     S
C104   C787    1.392   1_554 S
C104   C762    1.420   1_554 S
H112   C784    1.084   .     S
H116   C787    1.083   1_554 S
N119   Zn129   2.011   .     S
N120   Zn130   2.010   .     S
O121   Zn129   1.992   .     S
O122   Zn130   1.995   .     S
O123   Zn129   1.962   .     S
O124   Zn130   1.910   .     S
O125   Zn129   1.995   .     S
O126   Zn130   1.992   .     S
O127   Zn129   1.910   .     S
O128   Zn130   1.962   .     S
O131   C132    1.417   .     S
C132   H133    1.108   .     S
C132   C135    1.529   .     S
C132   H134    1.116   .     S
C135   H136    1.112   .     S
C135   H137    1.110   .     S
C135   C138    1.527   .     S
C138   H140    1.110   .     S
C138   H139    1.111   .     S
C138   H141    1.111   .     S
O142   C143    1.418   .     S
C143   H144    1.109   .     S
C143   C146    1.531   .     S
C143   H145    1.117   .     S
C146   H147    1.112   .     S
C146   C149    1.527   .     S
C146   H148    1.110   .     S
C149   H150    1.111   .     S
C149   H151    1.110   .     S
C149   H380    1.111   .     S
H152   C605    1.111   1_545 S
C153   O198    1.283   .     A
C153   C169    1.415   .     S
C153   O197    1.281   .     A
C154   C155    1.408   .     A
C154   C840    1.415   .     S
C154   C864    1.420   .     S
C155   C159    1.414   .     A
C155   C162    1.409   .     A
C156   C160    1.391   .     A
C156   C838    1.415   1_554 S
C156   C841    1.422   1_554 S
C157   C158    1.391   .     A
C157   C840    1.422   .     S
C157   C860    1.404   .     S
C158   H187    1.084   .     S
C158   C159    1.386   .     A
C159   H193    1.082   .     S
C160   C177    1.386   .     A
C160   H189    1.078   .     S
C161   C177    1.399   .     A
C161   H181    1.084   .     S
C161   C176    1.393   .     A
C162   C178    1.401   .     A
C162   C164    1.456   .     S
C163   H194    1.084   .     S
C163   C169    1.396   .     A
C163   C393    1.370   .     S
C164   O200    1.293   .     A
C164   O199    1.291   .     A
C165   C166    1.397   .     A
C165   H182    1.084   .     S
C165   C619    1.370   1_545 S
C166   C174    1.414   .     S
C166   C167    1.396   .     A
C167   H183    1.084   .     S
C167   C624    1.370   1_545 S
C168   C169    1.397   .     A
C168   H184    1.084   .     S
C168   C395    1.370   .     S
C170   N196    1.362   .     A
C170   H185    1.081   .     S
C170   C19     1.426   1_655 S
C171   N195    1.371   .     A
C171   O207    1.386   .     S
C172   H186    1.080   .     S
C172   N195    1.363   .     A
C173   O218    1.387   .     S
C173   N196    1.371   .     A
C173   C20     1.428   1_655 S
C174   O201    1.282   .     A
C174   O202    1.282   .     A
C175   O203    1.293   .     A
C175   O204    1.288   .     A
C175   C177    1.447   .     S
C176   C841    1.404   1_554 S
C176   H872    1.084   1_554 S
C178   C179    1.387   .     A
C178   H190    1.084   .     S
C179   C864    1.392   .     S
C179   H876    1.083   .     S
C180   H191    1.077   .     S
C180   C863    1.392   1_554 S
C180   C838    1.420   1_554 S
H188   C860    1.084   .     S
H192   C863    1.083   1_554 S
N195   Zn205   2.011   .     S
N196   Zn206   2.010   .     S
O197   Zn205   1.992   .     S
O198   Zn206   1.995   .     S
O199   Zn205   1.962   .     S
O200   Zn206   1.910   .     S
O201   Zn205   1.995   .     S
O202   Zn206   1.992   .     S
O203   Zn205   1.910   .     S
O204   Zn206   1.962   .     S
O207   C208    1.417   .     S
C208   H209    1.108   .     S
C208   C211    1.529   .     S
C208   H210    1.116   .     S
C211   H212    1.112   .     S
C211   H213    1.110   .     S
C211   C214    1.527   .     S
C214   H216    1.110   .     S
C214   H215    1.111   .     S
C214   H217    1.111   .     S
O218   C219    1.418   .     S
C219   H220    1.109   .     S
C219   C222    1.531   .     S
C219   H221    1.117   .     S
C222   H223    1.112   .     S
C222   C225    1.527   .     S
C222   H224    1.110   .     S
C225   H226    1.111   .     S
C225   H227    1.110   .     S
C225   H456    1.111   .     S
H228   C681    1.111   1_545 S
C229   O274    1.283   .     A
C229   C245    1.415   .     S
C229   O273    1.281   .     A
C230   C231    1.408   .     A
C230   C916    1.415   .     S
C230   C940    1.420   .     S
C231   C235    1.414   .     A
C231   C238    1.409   .     A
C232   C236    1.391   .     A
C232   C914    1.415   1_554 S
C232   C917    1.422   1_554 S
C233   C234    1.391   .     A
C233   C916    1.422   .     S
C233   C936    1.404   .     S
C234   H263    1.084   .     S
C234   C235    1.386   .     A
C235   H269    1.082   .     S
C236   C253    1.386   .     A
C236   H265    1.078   .     S
C237   C253    1.399   .     A
C237   H257    1.084   .     S
C237   C252    1.393   .     A
C238   C254    1.401   .     A
C238   C240    1.456   .     S
C239   H270    1.084   .     S
C239   C245    1.396   .     A
C239   C469    1.370   .     S
C240   O276    1.293   .     A
C240   O275    1.291   .     A
C241   C242    1.397   .     A
C241   H258    1.084   .     S
C242   C250    1.414   .     S
C242   C243    1.396   .     A
C243   H259    1.084   .     S
C244   C245    1.397   .     A
C244   H260    1.084   .     S
C244   C471    1.370   .     S
C246   N272    1.362   .     A
C246   H261    1.081   .     S
C246   C323    1.426   .     S
C247   N271    1.371   .     A
C247   O283    1.386   .     S
C247   C398    1.426   1_455 S
C248   H262    1.080   .     S
C248   N271    1.363   .     A
C248   C401    1.428   1_455 S
C249   O294    1.387   .     S
C249   N272    1.371   .     A
C249   C324    1.428   .     S
C250   O277    1.282   .     A
C250   O278    1.282   .     A
C251   O279    1.293   .     A
C251   O280    1.288   .     A
C251   C253    1.447   .     S
C252   C917    1.404   1_554 S
C252   H948    1.084   1_554 S
C254   C255    1.387   .     A
C254   H266    1.084   .     S
C255   C940    1.392   .     S
C255   H952    1.083   .     S
C256   H267    1.077   .     S
C256   C939    1.392   1_554 S
C256   C914    1.420   1_554 S
H264   C936    1.084   .     S
H268   C939    1.083   1_554 S
N271   Zn281   2.011   .     S
N272   Zn282   2.010   .     S
O273   Zn281   1.992   .     S
O274   Zn282   1.995   .     S
O275   Zn281   1.962   .     S
O276   Zn282   1.910   .     S
O277   Zn281   1.995   .     S
O278   Zn282   1.992   .     S
O279   Zn281   1.910   .     S
O280   Zn282   1.962   .     S
O283   C284    1.417   .     S
C284   H285    1.108   .     S
C284   C287    1.529   .     S
C284   H286    1.116   .     S
C287   H288    1.112   .     S
C287   H289    1.110   .     S
C287   C290    1.527   .     S
C290   H292    1.110   .     S
C290   H291    1.111   .     S
C290   H293    1.111   .     S
O294   C295    1.418   .     S
C295   H296    1.109   .     S
C295   C298    1.531   .     S
C295   H297    1.117   .     S
C298   H299    1.112   .     S
C298   C301    1.527   .     S
C298   H300    1.110   .     S
C301   H302    1.111   .     S
C301   H303    1.110   .     S
C301   H532    1.111   .     S
C305   O350    1.283   .     A
C305   C321    1.415   .     S
C305   O349    1.281   .     A
C306   C307    1.408   .     A
C306   C992    1.415   .     S
C306   C1016   1.420   .     S
C307   C311    1.414   .     A
C307   C314    1.409   .     A
C308   C312    1.391   .     A
C308   C990    1.415   1_554 S
C308   C993    1.422   1_554 S
C309   C310    1.391   .     A
C309   C992    1.422   .     S
C309   C1012   1.404   .     S
C310   H339    1.084   .     S
C310   C311    1.386   .     A
C311   H345    1.082   .     S
C312   C329    1.386   .     A
C312   H341    1.078   .     S
C313   C329    1.399   .     A
C313   H333    1.084   .     S
C313   C328    1.393   .     A
C314   C330    1.401   .     A
C314   C316    1.456   .     S
C315   H346    1.084   .     S
C315   C321    1.396   .     A
C315   C545    1.370   .     S
C316   O352    1.293   .     A
C316   O351    1.291   .     A
C317   C318    1.397   .     A
C317   H334    1.084   .     S
C318   C326    1.414   .     S
C318   C319    1.396   .     A
C319   H335    1.084   .     S
C320   C321    1.397   .     A
C320   H336    1.084   .     S
C320   C547    1.370   .     S
C322   N348    1.362   .     A
C322   H337    1.081   .     S
C322   C399    1.426   .     S
C323   N347    1.371   .     A
C323   O359    1.386   .     S
C324   H338    1.080   .     S
C324   N347    1.363   .     A
C325   O370    1.387   .     S
C325   N348    1.371   .     A
C325   C400    1.428   .     S
C326   O353    1.282   .     A
C326   O354    1.282   .     A
C327   O355    1.293   .     A
C327   O356    1.288   .     A
C327   C329    1.447   .     S
C328   C993    1.404   1_554 S
C328   H1024   1.084   1_554 S
C330   C331    1.387   .     A
C330   H342    1.084   .     S
C331   C1016   1.392   .     S
C331   H1028   1.083   .     S
C332   H343    1.077   .     S
C332   C1015   1.392   1_554 S
C332   C990    1.420   1_554 S
H340   C1012   1.084   .     S
H344   C1015   1.083   1_554 S
N347   Zn357   2.011   .     S
N348   Zn358   2.010   .     S
O349   Zn357   1.992   .     S
O350   Zn358   1.995   .     S
O351   Zn357   1.962   .     S
O352   Zn358   1.910   .     S
O353   Zn357   1.995   .     S
O354   Zn358   1.992   .     S
O355   Zn357   1.910   .     S
O356   Zn358   1.962   .     S
O359   C360    1.417   .     S
C360   H361    1.108   .     S
C360   C363    1.529   .     S
C360   H362    1.116   .     S
C363   H364    1.112   .     S
C363   H365    1.110   .     S
C363   C366    1.527   .     S
C366   H368    1.110   .     S
C366   H367    1.111   .     S
C366   H369    1.111   .     S
O370   C371    1.418   .     S
C371   H372    1.109   .     S
C371   C374    1.531   .     S
C371   H373    1.117   .     S
C374   H375    1.112   .     S
C374   C377    1.527   .     S
C374   H376    1.110   .     S
C377   H378    1.111   .     S
C377   H379    1.110   .     S
C377   H608    1.111   .     S
C381   O426    1.283   .     A
C381   C397    1.415   .     S
C381   O425    1.281   .     A
C382   C383    1.408   .     A
C382   C1068   1.415   .     S
C382   C1092   1.420   .     S
C383   C387    1.414   .     A
C383   C390    1.409   .     A
C384   C388    1.391   .     A
C384   C1066   1.415   1_554 S
C384   C1069   1.422   1_554 S
C385   C386    1.391   .     A
C385   C1068   1.422   .     S
C385   C1088   1.404   .     S
C386   H415    1.084   .     S
C386   C387    1.386   .     A
C387   H421    1.082   .     S
C388   C405    1.386   .     A
C388   H417    1.078   .     S
C389   C405    1.399   .     A
C389   H409    1.084   .     S
C389   C404    1.393   .     A
C390   C406    1.401   .     A
C390   C392    1.456   .     S
C391   H422    1.084   .     S
C391   C397    1.396   .     A
C391   C621    1.370   .     S
C392   O428    1.293   .     A
C392   O427    1.291   .     A
C393   C394    1.397   .     A
C393   H410    1.084   .     S
C394   C402    1.414   .     S
C394   C395    1.396   .     A
C395   H411    1.084   .     S
C396   C397    1.397   .     A
C396   H412    1.084   .     S
C396   C623    1.370   .     S
C398   N424    1.362   .     A
C398   H413    1.081   .     S
C398   C247    1.426   1_655 S
C399   N423    1.371   .     A
C399   O435    1.386   .     S
C400   H414    1.080   .     S
C400   N423    1.363   .     A
C401   O446    1.387   .     S
C401   N424    1.371   .     A
C401   C248    1.428   1_655 S
C402   O429    1.282   .     A
C402   O430    1.282   .     A
C403   O431    1.293   .     A
C403   O432    1.288   .     A
C403   C405    1.447   .     S
C404   C1069   1.404   1_554 S
C404   H1100   1.084   1_554 S
C406   C407    1.387   .     A
C406   H418    1.084   .     S
C407   C1092   1.392   .     S
C407   H1104   1.083   .     S
C408   H419    1.077   .     S
C408   C1091   1.392   1_554 S
C408   C1066   1.420   1_554 S
H416   C1088   1.084   .     S
H420   C1091   1.083   1_554 S
N423   Zn433   2.011   .     S
N424   Zn434   2.010   .     S
O425   Zn433   1.992   .     S
O426   Zn434   1.995   .     S
O427   Zn433   1.962   .     S
O428   Zn434   1.910   .     S
O429   Zn433   1.995   .     S
O430   Zn434   1.992   .     S
O431   Zn433   1.910   .     S
O432   Zn434   1.962   .     S
O435   C436    1.417   .     S
C436   H437    1.108   .     S
C436   C439    1.529   .     S
C436   H438    1.116   .     S
C439   H440    1.112   .     S
C439   H441    1.110   .     S
C439   C442    1.527   .     S
C442   H444    1.110   .     S
C442   H443    1.111   .     S
C442   H445    1.111   .     S
O446   C447    1.418   .     S
C447   H448    1.109   .     S
C447   C450    1.531   .     S
C447   H449    1.117   .     S
C450   H451    1.112   .     S
C450   C453    1.527   .     S
C450   H452    1.110   .     S
C453   H454    1.111   .     S
C453   H455    1.110   .     S
C453   H684    1.111   .     S
C457   O502    1.283   .     A
C457   C473    1.415   .     S
C457   O501    1.281   .     A
C458   C459    1.408   .     A
C458   C1144   1.415   .     S
C458   C1168   1.420   .     S
C459   C463    1.414   .     A
C459   C466    1.409   .     A
C460   C464    1.391   .     A
C460   C1142   1.415   1_554 S
C460   C1145   1.422   1_554 S
C461   C462    1.391   .     A
C461   C1144   1.422   .     S
C461   C1164   1.404   .     S
C462   H491    1.084   .     S
C462   C463    1.386   .     A
C463   H497    1.082   .     S
C464   C481    1.386   .     A
C464   H493    1.078   .     S
C465   C481    1.399   .     A
C465   H485    1.084   .     S
C465   C480    1.393   .     A
C466   C482    1.401   .     A
C466   C468    1.456   .     S
C467   H498    1.084   .     S
C467   C473    1.396   .     A
C467   C13     1.370   1_565 S
C468   O504    1.293   .     A
C468   O503    1.291   .     A
C469   C470    1.397   .     A
C469   H486    1.084   .     S
C470   C478    1.414   .     S
C470   C471    1.396   .     A
C471   H487    1.084   .     S
C472   C473    1.397   .     A
C472   H488    1.084   .     S
C472   C15     1.370   1_565 S
C474   N500    1.362   .     A
C474   H489    1.081   .     S
C474   C551    1.426   .     S
C475   N499    1.371   .     A
C475   O511    1.386   .     S
C475   C626    1.426   1_455 S
C476   H490    1.080   .     S
C476   N499    1.363   .     A
C476   C629    1.428   1_455 S
C477   O522    1.387   .     S
C477   N500    1.371   .     A
C477   C552    1.428   .     S
C478   O505    1.282   .     A
C478   O506    1.282   .     A
C479   O507    1.293   .     A
C479   O508    1.288   .     A
C479   C481    1.447   .     S
C480   C1145   1.404   1_554 S
C480   H1176   1.084   1_554 S
C482   C483    1.387   .     A
C482   H494    1.084   .     S
C483   C1168   1.392   .     S
C483   H1180   1.083   .     S
C484   H495    1.077   .     S
C484   C1167   1.392   1_554 S
C484   C1142   1.420   1_554 S
H492   C1164   1.084   .     S
H496   C1167   1.083   1_554 S
N499   Zn509   2.011   .     S
N500   Zn510   2.010   .     S
O501   Zn509   1.992   .     S
O502   Zn510   1.995   .     S
O503   Zn509   1.962   .     S
O504   Zn510   1.910   .     S
O505   Zn509   1.995   .     S
O506   Zn510   1.992   .     S
O507   Zn509   1.910   .     S
O508   Zn510   1.962   .     S
O511   C512    1.417   .     S
C512   H513    1.108   .     S
C512   C515    1.529   .     S
C512   H514    1.116   .     S
C515   H516    1.112   .     S
C515   H517    1.110   .     S
C515   C518    1.527   .     S
C518   H520    1.110   .     S
C518   H519    1.111   .     S
C518   H521    1.111   .     S
O522   C523    1.418   .     S
C523   H524    1.109   .     S
C523   C526    1.531   .     S
C523   H525    1.117   .     S
C526   H527    1.112   .     S
C526   C529    1.527   .     S
C526   H528    1.110   .     S
C529   H530    1.111   .     S
C529   H531    1.110   .     S
C529   H76     1.111   1_565 S
C533   O578    1.283   .     A
C533   C549    1.415   .     S
C533   O577    1.281   .     A
C534   C535    1.408   .     A
C534   C1220   1.415   .     S
C534   C1244   1.420   .     S
C535   C539    1.414   .     A
C535   C542    1.409   .     A
C536   C540    1.391   .     A
C536   C1218   1.415   1_554 S
C536   C1221   1.422   1_554 S
C537   C538    1.391   .     A
C537   C1220   1.422   .     S
C537   C1240   1.404   .     S
C538   H567    1.084   .     S
C538   C539    1.386   .     A
C539   H573    1.082   .     S
C540   C557    1.386   .     A
C540   H569    1.078   .     S
C541   C557    1.399   .     A
C541   H561    1.084   .     S
C541   C556    1.393   .     A
C542   C558    1.401   .     A
C542   C544    1.456   .     S
C543   H574    1.084   .     S
C543   C549    1.396   .     A
C543   C89     1.370   1_565 S
C544   O580    1.293   .     A
C544   O579    1.291   .     A
C545   C546    1.397   .     A
C545   H562    1.084   .     S
C546   C554    1.414   .     S
C546   C547    1.396   .     A
C547   H563    1.084   .     S
C548   C549    1.397   .     A
C548   H564    1.084   .     S
C548   C91     1.370   1_565 S
C550   N576    1.362   .     A
C550   H565    1.081   .     S
C550   C627    1.426   .     S
C551   N575    1.371   .     A
C551   O587    1.386   .     S
C552   H566    1.080   .     S
C552   N575    1.363   .     A
C553   O598    1.387   .     S
C553   N576    1.371   .     A
C553   C628    1.428   .     S
C554   O581    1.282   .     A
C554   O582    1.282   .     A
C555   O583    1.293   .     A
C555   O584    1.288   .     A
C555   C557    1.447   .     S
C556   C1221   1.404   1_554 S
C556   H1252   1.084   1_554 S
C558   C559    1.387   .     A
C558   H570    1.084   .     S
C559   C1244   1.392   .     S
C559   H1256   1.083   .     S
C560   H571    1.077   .     S
C560   C1243   1.392   1_554 S
C560   C1218   1.420   1_554 S
H568   C1240   1.084   .     S
H572   C1243   1.083   1_554 S
N575   Zn585   2.011   .     S
N576   Zn586   2.010   .     S
O577   Zn585   1.992   .     S
O578   Zn586   1.995   .     S
O579   Zn585   1.962   .     S
O580   Zn586   1.910   .     S
O581   Zn585   1.995   .     S
O582   Zn586   1.992   .     S
O583   Zn585   1.910   .     S
O584   Zn586   1.962   .     S
O587   C588    1.417   .     S
C588   H589    1.108   .     S
C588   C591    1.529   .     S
C588   H590    1.116   .     S
C591   H592    1.112   .     S
C591   H593    1.110   .     S
C591   C594    1.527   .     S
C594   H596    1.110   .     S
C594   H595    1.111   .     S
C594   H597    1.111   .     S
O598   C599    1.418   .     S
C599   H600    1.109   .     S
C599   C602    1.531   .     S
C599   H601    1.117   .     S
C602   H603    1.112   .     S
C602   C605    1.527   .     S
C602   H604    1.110   .     S
C605   H606    1.111   .     S
C605   H607    1.110   .     S
C605   H152    1.111   1_565 S
C609   O654    1.283   .     A
C609   C625    1.415   .     S
C609   O653    1.281   .     A
C610   C611    1.408   .     A
C610   C1296   1.415   .     S
C610   C1320   1.420   .     S
C611   C615    1.414   .     A
C611   C618    1.409   .     A
C612   C616    1.391   .     A
C612   C1294   1.415   1_554 S
C612   C1297   1.422   1_554 S
C613   C614    1.391   .     A
C613   C1296   1.422   .     S
C613   C1316   1.404   .     S
C614   H643    1.084   .     S
C614   C615    1.386   .     A
C615   H649    1.082   .     S
C616   C633    1.386   .     A
C616   H645    1.078   .     S
C617   C633    1.399   .     A
C617   H637    1.084   .     S
C617   C632    1.393   .     A
C618   C634    1.401   .     A
C618   C620    1.456   .     S
C619   H650    1.084   .     S
C619   C625    1.396   .     A
C619   C165    1.370   1_565 S
C620   O656    1.293   .     A
C620   O655    1.291   .     A
C621   C622    1.397   .     A
C621   H638    1.084   .     S
C622   C630    1.414   .     S
C622   C623    1.396   .     A
C623   H639    1.084   .     S
C624   C625    1.397   .     A
C624   H640    1.084   .     S
C624   C167    1.370   1_565 S
C626   N652    1.362   .     A
C626   H641    1.081   .     S
C626   C475    1.426   1_655 S
C627   N651    1.371   .     A
C627   O663    1.386   .     S
C628   H642    1.080   .     S
C628   N651    1.363   .     A
C629   O674    1.387   .     S
C629   N652    1.371   .     A
C629   C476    1.428   1_655 S
C630   O657    1.282   .     A
C630   O658    1.282   .     A
C631   O659    1.293   .     A
C631   O660    1.288   .     A
C631   C633    1.447   .     S
C632   C1297   1.404   1_554 S
C632   H1328   1.084   1_554 S
C634   C635    1.387   .     A
C634   H646    1.084   .     S
C635   C1320   1.392   .     S
C635   H1332   1.083   .     S
C636   H647    1.077   .     S
C636   C1319   1.392   1_554 S
C636   C1294   1.420   1_554 S
H644   C1316   1.084   .     S
H648   C1319   1.083   1_554 S
N651   Zn661   2.011   .     S
N652   Zn662   2.010   .     S
O653   Zn661   1.992   .     S
O654   Zn662   1.995   .     S
O655   Zn661   1.962   .     S
O656   Zn662   1.910   .     S
O657   Zn661   1.995   .     S
O658   Zn662   1.992   .     S
O659   Zn661   1.910   .     S
O660   Zn662   1.962   .     S
O663   C664    1.417   .     S
C664   H665    1.108   .     S
C664   C667    1.529   .     S
C664   H666    1.116   .     S
C667   H668    1.112   .     S
C667   H669    1.110   .     S
C667   C670    1.527   .     S
C670   H672    1.110   .     S
C670   H671    1.111   .     S
C670   H673    1.111   .     S
O674   C675    1.418   .     S
C675   H676    1.109   .     S
C675   C678    1.531   .     S
C675   H677    1.117   .     S
C678   H679    1.112   .     S
C678   C681    1.527   .     S
C678   H680    1.110   .     S
C681   H682    1.111   .     S
C681   H683    1.110   .     S
C681   H228    1.111   1_565 S
C685   O730    1.283   .     A
C685   C701    1.415   .     S
C685   O729    1.281   .     A
C686   C687    1.408   .     A
C686   C4      1.415   1_556 S
C686   C28     1.420   1_556 S
C687   C691    1.414   .     A
C687   C694    1.409   .     A
C688   C692    1.391   .     A
C689   C690    1.391   .     A
C689   C4      1.422   1_556 S
C689   C24     1.404   1_556 S
C690   H719    1.084   .     S
C690   C691    1.386   .     A
C691   H725    1.082   .     S
C692   C709    1.386   .     A
C692   H721    1.078   .     S
C693   C709    1.399   .     A
C693   H713    1.084   .     S
C693   C708    1.393   .     A
C694   C710    1.401   .     A
C694   C696    1.456   .     S
C695   H726    1.084   .     S
C695   C701    1.396   .     A
C695   C925    1.370   .     S
C696   O732    1.293   .     A
C696   O731    1.291   .     A
C697   C698    1.397   .     A
C697   H714    1.084   .     S
C697   C1151   1.370   1_545 S
C698   C706    1.414   .     S
C698   C699    1.396   .     A
C699   H715    1.084   .     S
C699   C1156   1.370   1_545 S
C700   C701    1.397   .     A
C700   H716    1.084   .     S
C700   C927    1.370   .     S
C702   N728    1.362   .     A
C702   H717    1.081   .     S
C702   C779    1.426   .     S
C703   N727    1.371   .     A
C703   O739    1.386   .     S
C703   C854    1.426   1_455 S
C704   H718    1.080   .     S
C704   N727    1.363   .     A
C704   C857    1.428   1_455 S
C705   O750    1.387   .     S
C705   N728    1.371   .     A
C705   C780    1.428   .     S
C706   O733    1.282   .     A
C706   O734    1.282   .     A
C707   O735    1.293   .     A
C707   O736    1.288   .     A
C707   C709    1.447   .     S
C710   C711    1.387   .     A
C710   H722    1.084   .     S
C711   C28     1.392   1_556 S
C711   H40     1.083   1_556 S
C712   H723    1.077   .     S
H720   C24     1.084   1_556 S
N727   Zn737   2.011   .     S
N728   Zn738   2.010   .     S
O729   Zn737   1.992   .     S
O730   Zn738   1.995   .     S
O731   Zn737   1.962   .     S
O732   Zn738   1.910   .     S
O733   Zn737   1.995   .     S
O734   Zn738   1.992   .     S
O735   Zn737   1.910   .     S
O736   Zn738   1.962   .     S
O739   C740    1.417   .     S
C740   H741    1.108   .     S
C740   C743    1.529   .     S
C740   H742    1.116   .     S
C743   H744    1.112   .     S
C743   H745    1.110   .     S
C743   C746    1.527   .     S
C746   H748    1.110   .     S
C746   H747    1.111   .     S
C746   H749    1.111   .     S
O750   C751    1.418   .     S
C751   H752    1.109   .     S
C751   C754    1.531   .     S
C751   H753    1.117   .     S
C754   H755    1.112   .     S
C754   C757    1.527   .     S
C754   H756    1.110   .     S
C757   H758    1.111   .     S
C757   H759    1.110   .     S
C757   H988    1.111   .     S
H760   C1213   1.111   1_545 S
C761   O806    1.283   .     A
C761   C777    1.415   .     S
C761   O805    1.281   .     A
C762   C763    1.408   .     A
C762   C80     1.415   1_556 S
C762   C104    1.420   1_556 S
C763   C767    1.414   .     A
C763   C770    1.409   .     A
C764   C768    1.391   .     A
C765   C766    1.391   .     A
C765   C80     1.422   1_556 S
C765   C100    1.404   1_556 S
C766   H795    1.084   .     S
C766   C767    1.386   .     A
C767   H801    1.082   .     S
C768   C785    1.386   .     A
C768   H797    1.078   .     S
C769   C785    1.399   .     A
C769   H789    1.084   .     S
C769   C784    1.393   .     A
C770   C786    1.401   .     A
C770   C772    1.456   .     S
C771   H802    1.084   .     S
C771   C777    1.396   .     A
C771   C1001   1.370   .     S
C772   O808    1.293   .     A
C772   O807    1.291   .     A
C773   C774    1.397   .     A
C773   H790    1.084   .     S
C773   C1227   1.370   1_545 S
C774   C782    1.414   .     S
C774   C775    1.396   .     A
C775   H791    1.084   .     S
C775   C1232   1.370   1_545 S
C776   C777    1.397   .     A
C776   H792    1.084   .     S
C776   C1003   1.370   .     S
C778   N804    1.362   .     A
C778   H793    1.081   .     S
C778   C855    1.426   .     S
C779   N803    1.371   .     A
C779   O815    1.386   .     S
C780   H794    1.080   .     S
C780   N803    1.363   .     A
C781   O826    1.387   .     S
C781   N804    1.371   .     A
C781   C856    1.428   .     S
C782   O809    1.282   .     A
C782   O810    1.282   .     A
C783   O811    1.293   .     A
C783   O812    1.288   .     A
C783   C785    1.447   .     S
C786   C787    1.387   .     A
C786   H798    1.084   .     S
C787   C104    1.392   1_556 S
C787   H116    1.083   1_556 S
C788   H799    1.077   .     S
H796   C100    1.084   1_556 S
N803   Zn813   2.011   .     S
N804   Zn814   2.010   .     S
O805   Zn813   1.992   .     S
O806   Zn814   1.995   .     S
O807   Zn813   1.962   .     S
O808   Zn814   1.910   .     S
O809   Zn813   1.995   .     S
O810   Zn814   1.992   .     S
O811   Zn813   1.910   .     S
O812   Zn814   1.962   .     S
O815   C816    1.417   .     S
C816   H817    1.108   .     S
C816   C819    1.529   .     S
C816   H818    1.116   .     S
C819   H820    1.112   .     S
C819   H821    1.110   .     S
C819   C822    1.527   .     S
C822   H824    1.110   .     S
C822   H823    1.111   .     S
C822   H825    1.111   .     S
O826   C827    1.418   .     S
C827   H828    1.109   .     S
C827   C830    1.531   .     S
C827   H829    1.117   .     S
C830   H831    1.112   .     S
C830   C833    1.527   .     S
C830   H832    1.110   .     S
C833   H834    1.111   .     S
C833   H835    1.110   .     S
C833   H1064   1.111   .     S
H836   C1289   1.111   1_545 S
C837   O882    1.283   .     A
C837   C853    1.415   .     S
C837   O881    1.281   .     A
C838   C839    1.408   .     A
C838   C156    1.415   1_556 S
C838   C180    1.420   1_556 S
C839   C843    1.414   .     A
C839   C846    1.409   .     A
C840   C844    1.391   .     A
C841   C842    1.391   .     A
C841   C156    1.422   1_556 S
C841   C176    1.404   1_556 S
C842   H871    1.084   .     S
C842   C843    1.386   .     A
C843   H877    1.082   .     S
C844   C861    1.386   .     A
C844   H873    1.078   .     S
C845   C861    1.399   .     A
C845   H865    1.084   .     S
C845   C860    1.393   .     A
C846   C862    1.401   .     A
C846   C848    1.456   .     S
C847   H878    1.084   .     S
C847   C853    1.396   .     A
C847   C1077   1.370   .     S
C848   O884    1.293   .     A
C848   O883    1.291   .     A
C849   C850    1.397   .     A
C849   H866    1.084   .     S
C849   C1303   1.370   1_545 S
C850   C858    1.414   .     S
C850   C851    1.396   .     A
C851   H867    1.084   .     S
C851   C1308   1.370   1_545 S
C852   C853    1.397   .     A
C852   H868    1.084   .     S
C852   C1079   1.370   .     S
C854   N880    1.362   .     A
C854   H869    1.081   .     S
C854   C703    1.426   1_655 S
C855   N879    1.371   .     A
C855   O891    1.386   .     S
C856   H870    1.080   .     S
C856   N879    1.363   .     A
C857   O902    1.387   .     S
C857   N880    1.371   .     A
C857   C704    1.428   1_655 S
C858   O885    1.282   .     A
C858   O886    1.282   .     A
C859   O887    1.293   .     A
C859   O888    1.288   .     A
C859   C861    1.447   .     S
C862   C863    1.387   .     A
C862   H874    1.084   .     S
C863   C180    1.392   1_556 S
C863   H192    1.083   1_556 S
C864   H875    1.077   .     S
H872   C176    1.084   1_556 S
N879   Zn889   2.011   .     S
N880   Zn890   2.010   .     S
O881   Zn889   1.992   .     S
O882   Zn890   1.995   .     S
O883   Zn889   1.962   .     S
O884   Zn890   1.910   .     S
O885   Zn889   1.995   .     S
O886   Zn890   1.992   .     S
O887   Zn889   1.910   .     S
O888   Zn890   1.962   .     S
O891   C892    1.417   .     S
C892   H893    1.108   .     S
C892   C895    1.529   .     S
C892   H894    1.116   .     S
C895   H896    1.112   .     S
C895   H897    1.110   .     S
C895   C898    1.527   .     S
C898   H900    1.110   .     S
C898   H899    1.111   .     S
C898   H901    1.111   .     S
O902   C903    1.418   .     S
C903   H904    1.109   .     S
C903   C906    1.531   .     S
C903   H905    1.117   .     S
C906   H907    1.112   .     S
C906   C909    1.527   .     S
C906   H908    1.110   .     S
C909   H910    1.111   .     S
C909   H911    1.110   .     S
C909   H1140   1.111   .     S
H912   C1365   1.111   1_545 S
C913   O958    1.283   .     A
C913   C929    1.415   .     S
C913   O957    1.281   .     A
C914   C915    1.408   .     A
C914   C232    1.415   1_556 S
C914   C256    1.420   1_556 S
C915   C919    1.414   .     A
C915   C922    1.409   .     A
C916   C920    1.391   .     A
C917   C918    1.391   .     A
C917   C232    1.422   1_556 S
C917   C252    1.404   1_556 S
C918   H947    1.084   .     S
C918   C919    1.386   .     A
C919   H953    1.082   .     S
C920   C937    1.386   .     A
C920   H949    1.078   .     S
C921   C937    1.399   .     A
C921   H941    1.084   .     S
C921   C936    1.393   .     A
C922   C938    1.401   .     A
C922   C924    1.456   .     S
C923   H954    1.084   .     S
C923   C929    1.396   .     A
C923   C1153   1.370   .     S
C924   O960    1.293   .     A
C924   O959    1.291   .     A
C925   C926    1.397   .     A
C925   H942    1.084   .     S
C926   C934    1.414   .     S
C926   C927    1.396   .     A
C927   H943    1.084   .     S
C928   C929    1.397   .     A
C928   H944    1.084   .     S
C928   C1155   1.370   .     S
C930   N956    1.362   .     A
C930   H945    1.081   .     S
C930   C1007   1.426   .     S
C931   N955    1.371   .     A
C931   O967    1.386   .     S
C931   C1082   1.426   1_455 S
C932   H946    1.080   .     S
C932   N955    1.363   .     A
C932   C1085   1.428   1_455 S
C933   O978    1.387   .     S
C933   N956    1.371   .     A
C933   C1008   1.428   .     S
C934   O961    1.282   .     A
C934   O962    1.282   .     A
C935   O963    1.293   .     A
C935   O964    1.288   .     A
C935   C937    1.447   .     S
C938   C939    1.387   .     A
C938   H950    1.084   .     S
C939   C256    1.392   1_556 S
C939   H268    1.083   1_556 S
C940   H951    1.077   .     S
H948   C252    1.084   1_556 S
N955   Zn965   2.011   .     S
N956   Zn966   2.010   .     S
O957   Zn965   1.992   .     S
O958   Zn966   1.995   .     S
O959   Zn965   1.962   .     S
O960   Zn966   1.910   .     S
O961   Zn965   1.995   .     S
O962   Zn966   1.992   .     S
O963   Zn965   1.910   .     S
O964   Zn966   1.962   .     S
O967   C968    1.417   .     S
C968   H969    1.108   .     S
C968   C971    1.529   .     S
C968   H970    1.116   .     S
C971   H972    1.112   .     S
C971   H973    1.110   .     S
C971   C974    1.527   .     S
C974   H976    1.110   .     S
C974   H975    1.111   .     S
C974   H977    1.111   .     S
O978   C979    1.418   .     S
C979   H980    1.109   .     S
C979   C982    1.531   .     S
C979   H981    1.117   .     S
C982   H983    1.112   .     S
C982   C985    1.527   .     S
C982   H984    1.110   .     S
C985   H986    1.111   .     S
C985   H987    1.110   .     S
C985   H1216   1.111   .     S
C989   O1034   1.283   .     A
C989   C1005   1.415   .     S
C989   O1033   1.281   .     A
C990   C991    1.408   .     A
C990   C308    1.415   1_556 S
C990   C332    1.420   1_556 S
C991   C995    1.414   .     A
C991   C998    1.409   .     A
C992   C996    1.391   .     A
C993   C994    1.391   .     A
C993   C308    1.422   1_556 S
C993   C328    1.404   1_556 S
C994   H1023   1.084   .     S
C994   C995    1.386   .     A
C995   H1029   1.082   .     S
C996   C1013   1.386   .     A
C996   H1025   1.078   .     S
C997   C1013   1.399   .     A
C997   H1017   1.084   .     S
C997   C1012   1.393   .     A
C998   C1014   1.401   .     A
C998   C1000   1.456   .     S
C999   H1030   1.084   .     S
C999   C1005   1.396   .     A
C999   C1229   1.370   .     S
C1000  O1036   1.293   .     A
C1000  O1035   1.291   .     A
C1001  C1002   1.397   .     A
C1001  H1018   1.084   .     S
C1002  C1010   1.414   .     S
C1002  C1003   1.396   .     A
C1003  H1019   1.084   .     S
C1004  C1005   1.397   .     A
C1004  H1020   1.084   .     S
C1004  C1231   1.370   .     S
C1006  N1032   1.362   .     A
C1006  H1021   1.081   .     S
C1006  C1083   1.426   .     S
C1007  N1031   1.371   .     A
C1007  O1043   1.386   .     S
C1008  H1022   1.080   .     S
C1008  N1031   1.363   .     A
C1009  O1054   1.387   .     S
C1009  N1032   1.371   .     A
C1009  C1084   1.428   .     S
C1010  O1037   1.282   .     A
C1010  O1038   1.282   .     A
C1011  O1039   1.293   .     A
C1011  O1040   1.288   .     A
C1011  C1013   1.447   .     S
C1014  C1015   1.387   .     A
C1014  H1026   1.084   .     S
C1015  C332    1.392   1_556 S
C1015  H344    1.083   1_556 S
C1016  H1027   1.077   .     S
H1024  C328    1.084   1_556 S
N1031  Zn1041  2.011   .     S
N1032  Zn1042  2.010   .     S
O1033  Zn1041  1.992   .     S
O1034  Zn1042  1.995   .     S
O1035  Zn1041  1.962   .     S
O1036  Zn1042  1.910   .     S
O1037  Zn1041  1.995   .     S
O1038  Zn1042  1.992   .     S
O1039  Zn1041  1.910   .     S
O1040  Zn1042  1.962   .     S
O1043  C1044   1.417   .     S
C1044  H1045   1.108   .     S
C1044  C1047   1.529   .     S
C1044  H1046   1.116   .     S
C1047  H1048   1.112   .     S
C1047  H1049   1.110   .     S
C1047  C1050   1.527   .     S
C1050  H1052   1.110   .     S
C1050  H1051   1.111   .     S
C1050  H1053   1.111   .     S
O1054  C1055   1.418   .     S
C1055  H1056   1.109   .     S
C1055  C1058   1.531   .     S
C1055  H1057   1.117   .     S
C1058  H1059   1.112   .     S
C1058  C1061   1.527   .     S
C1058  H1060   1.110   .     S
C1061  H1062   1.111   .     S
C1061  H1063   1.110   .     S
C1061  H1292   1.111   .     S
C1065  O1110   1.283   .     A
C1065  C1081   1.415   .     S
C1065  O1109   1.281   .     A
C1066  C1067   1.408   .     A
C1066  C384    1.415   1_556 S
C1066  C408    1.420   1_556 S
C1067  C1071   1.414   .     A
C1067  C1074   1.409   .     A
C1068  C1072   1.391   .     A
C1069  C1070   1.391   .     A
C1069  C384    1.422   1_556 S
C1069  C404    1.404   1_556 S
C1070  H1099   1.084   .     S
C1070  C1071   1.386   .     A
C1071  H1105   1.082   .     S
C1072  C1089   1.386   .     A
C1072  H1101   1.078   .     S
C1073  C1089   1.399   .     A
C1073  H1093   1.084   .     S
C1073  C1088   1.393   .     A
C1074  C1090   1.401   .     A
C1074  C1076   1.456   .     S
C1075  H1106   1.084   .     S
C1075  C1081   1.396   .     A
C1075  C1305   1.370   .     S
C1076  O1112   1.293   .     A
C1076  O1111   1.291   .     A
C1077  C1078   1.397   .     A
C1077  H1094   1.084   .     S
C1078  C1086   1.414   .     S
C1078  C1079   1.396   .     A
C1079  H1095   1.084   .     S
C1080  C1081   1.397   .     A
C1080  H1096   1.084   .     S
C1080  C1307   1.370   .     S
C1082  N1108   1.362   .     A
C1082  H1097   1.081   .     S
C1082  C931    1.426   1_655 S
C1083  N1107   1.371   .     A
C1083  O1119   1.386   .     S
C1084  H1098   1.080   .     S
C1084  N1107   1.363   .     A
C1085  O1130   1.387   .     S
C1085  N1108   1.371   .     A
C1085  C932    1.428   1_655 S
C1086  O1113   1.282   .     A
C1086  O1114   1.282   .     A
C1087  O1115   1.293   .     A
C1087  O1116   1.288   .     A
C1087  C1089   1.447   .     S
C1090  C1091   1.387   .     A
C1090  H1102   1.084   .     S
C1091  C408    1.392   1_556 S
C1091  H420    1.083   1_556 S
C1092  H1103   1.077   .     S
H1100  C404    1.084   1_556 S
N1107  Zn1117  2.011   .     S
N1108  Zn1118  2.010   .     S
O1109  Zn1117  1.992   .     S
O1110  Zn1118  1.995   .     S
O1111  Zn1117  1.962   .     S
O1112  Zn1118  1.910   .     S
O1113  Zn1117  1.995   .     S
O1114  Zn1118  1.992   .     S
O1115  Zn1117  1.910   .     S
O1116  Zn1118  1.962   .     S
O1119  C1120   1.417   .     S
C1120  H1121   1.108   .     S
C1120  C1123   1.529   .     S
C1120  H1122   1.116   .     S
C1123  H1124   1.112   .     S
C1123  H1125   1.110   .     S
C1123  C1126   1.527   .     S
C1126  H1128   1.110   .     S
C1126  H1127   1.111   .     S
C1126  H1129   1.111   .     S
O1130  C1131   1.418   .     S
C1131  H1132   1.109   .     S
C1131  C1134   1.531   .     S
C1131  H1133   1.117   .     S
C1134  H1135   1.112   .     S
C1134  C1137   1.527   .     S
C1134  H1136   1.110   .     S
C1137  H1138   1.111   .     S
C1137  H1139   1.110   .     S
C1137  H1368   1.111   .     S
C1141  O1186   1.283   .     A
C1141  C1157   1.415   .     S
C1141  O1185   1.281   .     A
C1142  C1143   1.408   .     A
C1142  C460    1.415   1_556 S
C1142  C484    1.420   1_556 S
C1143  C1147   1.414   .     A
C1143  C1150   1.409   .     A
C1144  C1148   1.391   .     A
C1145  C1146   1.391   .     A
C1145  C460    1.422   1_556 S
C1145  C480    1.404   1_556 S
C1146  H1175   1.084   .     S
C1146  C1147   1.386   .     A
C1147  H1181   1.082   .     S
C1148  C1165   1.386   .     A
C1148  H1177   1.078   .     S
C1149  C1165   1.399   .     A
C1149  H1169   1.084   .     S
C1149  C1164   1.393   .     A
C1150  C1166   1.401   .     A
C1150  C1152   1.456   .     S
C1151  H1182   1.084   .     S
C1151  C1157   1.396   .     A
C1151  C697    1.370   1_565 S
C1152  O1188   1.293   .     A
C1152  O1187   1.291   .     A
C1153  C1154   1.397   .     A
C1153  H1170   1.084   .     S
C1154  C1162   1.414   .     S
C1154  C1155   1.396   .     A
C1155  H1171   1.084   .     S
C1156  C1157   1.397   .     A
C1156  H1172   1.084   .     S
C1156  C699    1.370   1_565 S
C1158  N1184   1.362   .     A
C1158  H1173   1.081   .     S
C1158  C1235   1.426   .     S
C1159  N1183   1.371   .     A
C1159  O1195   1.386   .     S
C1159  C1310   1.426   1_455 S
C1160  H1174   1.080   .     S
C1160  N1183   1.363   .     A
C1160  C1313   1.428   1_455 S
C1161  O1206   1.387   .     S
C1161  N1184   1.371   .     A
C1161  C1236   1.428   .     S
C1162  O1189   1.282   .     A
C1162  O1190   1.282   .     A
C1163  O1191   1.293   .     A
C1163  O1192   1.288   .     A
C1163  C1165   1.447   .     S
C1166  C1167   1.387   .     A
C1166  H1178   1.084   .     S
C1167  C484    1.392   1_556 S
C1167  H496    1.083   1_556 S
C1168  H1179   1.077   .     S
H1176  C480    1.084   1_556 S
N1183  Zn1193  2.011   .     S
N1184  Zn1194  2.010   .     S
O1185  Zn1193  1.992   .     S
O1186  Zn1194  1.995   .     S
O1187  Zn1193  1.962   .     S
O1188  Zn1194  1.910   .     S
O1189  Zn1193  1.995   .     S
O1190  Zn1194  1.992   .     S
O1191  Zn1193  1.910   .     S
O1192  Zn1194  1.962   .     S
O1195  C1196   1.417   .     S
C1196  H1197   1.108   .     S
C1196  C1199   1.529   .     S
C1196  H1198   1.116   .     S
C1199  H1200   1.112   .     S
C1199  H1201   1.110   .     S
C1199  C1202   1.527   .     S
C1202  H1204   1.110   .     S
C1202  H1203   1.111   .     S
C1202  H1205   1.111   .     S
O1206  C1207   1.418   .     S
C1207  H1208   1.109   .     S
C1207  C1210   1.531   .     S
C1207  H1209   1.117   .     S
C1210  H1211   1.112   .     S
C1210  C1213   1.527   .     S
C1210  H1212   1.110   .     S
C1213  H1214   1.111   .     S
C1213  H1215   1.110   .     S
C1213  H760    1.111   1_565 S
C1217  O1262   1.283   .     A
C1217  C1233   1.415   .     S
C1217  O1261   1.281   .     A
C1218  C1219   1.408   .     A
C1218  C536    1.415   1_556 S
C1218  C560    1.420   1_556 S
C1219  C1223   1.414   .     A
C1219  C1226   1.409   .     A
C1220  C1224   1.391   .     A
C1221  C1222   1.391   .     A
C1221  C536    1.422   1_556 S
C1221  C556    1.404   1_556 S
C1222  H1251   1.084   .     S
C1222  C1223   1.386   .     A
C1223  H1257   1.082   .     S
C1224  C1241   1.386   .     A
C1224  H1253   1.078   .     S
C1225  C1241   1.399   .     A
C1225  H1245   1.084   .     S
C1225  C1240   1.393   .     A
C1226  C1242   1.401   .     A
C1226  C1228   1.456   .     S
C1227  H1258   1.084   .     S
C1227  C1233   1.396   .     A
C1227  C773    1.370   1_565 S
C1228  O1264   1.293   .     A
C1228  O1263   1.291   .     A
C1229  C1230   1.397   .     A
C1229  H1246   1.084   .     S
C1230  C1238   1.414   .     S
C1230  C1231   1.396   .     A
C1231  H1247   1.084   .     S
C1232  C1233   1.397   .     A
C1232  H1248   1.084   .     S
C1232  C775    1.370   1_565 S
C1234  N1260   1.362   .     A
C1234  H1249   1.081   .     S
C1234  C1311   1.426   .     S
C1235  N1259   1.371   .     A
C1235  O1271   1.386   .     S
C1236  H1250   1.080   .     S
C1236  N1259   1.363   .     A
C1237  O1282   1.387   .     S
C1237  N1260   1.371   .     A
C1237  C1312   1.428   .     S
C1238  O1265   1.282   .     A
C1238  O1266   1.282   .     A
C1239  O1267   1.293   .     A
C1239  O1268   1.288   .     A
C1239  C1241   1.447   .     S
C1242  C1243   1.387   .     A
C1242  H1254   1.084   .     S
C1243  C560    1.392   1_556 S
C1243  H572    1.083   1_556 S
C1244  H1255   1.077   .     S
H1252  C556    1.084   1_556 S
N1259  Zn1269  2.011   .     S
N1260  Zn1270  2.010   .     S
O1261  Zn1269  1.992   .     S
O1262  Zn1270  1.995   .     S
O1263  Zn1269  1.962   .     S
O1264  Zn1270  1.910   .     S
O1265  Zn1269  1.995   .     S
O1266  Zn1270  1.992   .     S
O1267  Zn1269  1.910   .     S
O1268  Zn1270  1.962   .     S
O1271  C1272   1.417   .     S
C1272  H1273   1.108   .     S
C1272  C1275   1.529   .     S
C1272  H1274   1.116   .     S
C1275  H1276   1.112   .     S
C1275  H1277   1.110   .     S
C1275  C1278   1.527   .     S
C1278  H1280   1.110   .     S
C1278  H1279   1.111   .     S
C1278  H1281   1.111   .     S
O1282  C1283   1.418   .     S
C1283  H1284   1.109   .     S
C1283  C1286   1.531   .     S
C1283  H1285   1.117   .     S
C1286  H1287   1.112   .     S
C1286  C1289   1.527   .     S
C1286  H1288   1.110   .     S
C1289  H1290   1.111   .     S
C1289  H1291   1.110   .     S
C1289  H836    1.111   1_565 S
C1293  O1338   1.283   .     A
C1293  C1309   1.415   .     S
C1293  O1337   1.281   .     A
C1294  C1295   1.408   .     A
C1294  C612    1.415   1_556 S
C1294  C636    1.420   1_556 S
C1295  C1299   1.414   .     A
C1295  C1302   1.409   .     A
C1296  C1300   1.391   .     A
C1297  C1298   1.391   .     A
C1297  C612    1.422   1_556 S
C1297  C632    1.404   1_556 S
C1298  H1327   1.084   .     S
C1298  C1299   1.386   .     A
C1299  H1333   1.082   .     S
C1300  C1317   1.386   .     A
C1300  H1329   1.078   .     S
C1301  C1317   1.399   .     A
C1301  H1321   1.084   .     S
C1301  C1316   1.393   .     A
C1302  C1318   1.401   .     A
C1302  C1304   1.456   .     S
C1303  H1334   1.084   .     S
C1303  C1309   1.396   .     A
C1303  C849    1.370   1_565 S
C1304  O1340   1.293   .     A
C1304  O1339   1.291   .     A
C1305  C1306   1.397   .     A
C1305  H1322   1.084   .     S
C1306  C1314   1.414   .     S
C1306  C1307   1.396   .     A
C1307  H1323   1.084   .     S
C1308  C1309   1.397   .     A
C1308  H1324   1.084   .     S
C1308  C851    1.370   1_565 S
C1310  N1336   1.362   .     A
C1310  H1325   1.081   .     S
C1310  C1159   1.426   1_655 S
C1311  N1335   1.371   .     A
C1311  O1347   1.386   .     S
C1312  H1326   1.080   .     S
C1312  N1335   1.363   .     A
C1313  O1358   1.387   .     S
C1313  N1336   1.371   .     A
C1313  C1160   1.428   1_655 S
C1314  O1341   1.282   .     A
C1314  O1342   1.282   .     A
C1315  O1343   1.293   .     A
C1315  O1344   1.288   .     A
C1315  C1317   1.447   .     S
C1318  C1319   1.387   .     A
C1318  H1330   1.084   .     S
C1319  C636    1.392   1_556 S
C1319  H648    1.083   1_556 S
C1320  H1331   1.077   .     S
H1328  C632    1.084   1_556 S
N1335  Zn1345  2.011   .     S
N1336  Zn1346  2.010   .     S
O1337  Zn1345  1.992   .     S
O1338  Zn1346  1.995   .     S
O1339  Zn1345  1.962   .     S
O1340  Zn1346  1.910   .     S
O1341  Zn1345  1.995   .     S
O1342  Zn1346  1.992   .     S
O1343  Zn1345  1.910   .     S
O1344  Zn1346  1.962   .     S
O1347  C1348   1.417   .     S
C1348  H1349   1.108   .     S
C1348  C1351   1.529   .     S
C1348  H1350   1.116   .     S
C1351  H1352   1.112   .     S
C1351  H1353   1.110   .     S
C1351  C1354   1.527   .     S
C1354  H1356   1.110   .     S
C1354  H1355   1.111   .     S
C1354  H1357   1.111   .     S
O1358  C1359   1.418   .     S
C1359  H1360   1.109   .     S
C1359  C1362   1.531   .     S
C1359  H1361   1.117   .     S
C1362  H1363   1.112   .     S
C1362  C1365   1.527   .     S
C1362  H1364   1.110   .     S
C1365  H1366   1.111   .     S
C1365  H1367   1.110   .     S
C1365  H912    1.111   1_565 S
