data_str_m3_o5_o17_pcu_sym.27
_audit_creation_date              2020-01-03
_audit_creation_method            'Materials Studio'
_symmetry_space_group_name_H-M    'P1'
_symmetry_Int_Tables_number       1
_symmetry_cell_setting            triclinic
loop_
_symmetry_equiv_pos_as_xyz
  x,y,z
_cell_length_a                    30.0179
_cell_length_b                    26.7965
_cell_length_c                    24.3032
_cell_angle_alpha                 89.9981
_cell_angle_beta                  89.9996
_cell_angle_gamma                 89.9998
loop_
_atom_site_label
_atom_site_type_symbol
_atom_site_fract_x
_atom_site_fract_y
_atom_site_fract_z
_atom_site_U_iso_or_equiv
_atom_site_adp_type
_atom_site_occupancy
O1     O     0.25000   0.09512   0.21228   0.00000  Uiso   1.00
O2     O     0.25000   0.23822   0.12105   0.00000  Uiso   1.00
O3     O     0.25000   0.23822   0.21228   0.00000  Uiso   1.00
O4     O     0.25000   0.09512   0.12105   0.00000  Uiso   1.00
C5     C     0.25000   0.07266   0.16667   0.00000  Uiso   1.00
C6     C     0.25000   0.26067   0.16667   0.00000  Uiso   1.00
O7     O     0.18392   0.16667   0.21230   0.00000  Uiso   1.00
O8     O     0.31607   0.16667   0.12104   0.00000  Uiso   1.00
O9     O     0.31607   0.16667   0.21230   0.00000  Uiso   1.00
O10    O     0.18392   0.16667   0.12104   0.00000  Uiso   1.00
C11    C     0.16315   0.16667   0.16667   0.00000  Uiso   1.00
C12    C     0.33686   0.16667   0.16667   0.00000  Uiso   1.00
Zn13   Zn    0.25000   0.16667   0.22759   0.00000  Uiso   1.00
Zn14   Zn    0.25000   0.16667   0.10574   0.00000  Uiso   1.00
N15    N     0.25000   0.16667   0.02455   0.00000  Uiso   1.00
N16    N     0.25000   0.16667   0.30879   0.00000  Uiso   1.00
C17    C     0.40725   0.18726   0.12222   0.00000  Uiso   1.00
C18    C     0.09280   0.14534   0.21069   0.00000  Uiso   1.00
C19    C     0.40725   0.14607   0.21111   0.00000  Uiso   1.00
C20    C     0.09280   0.18800   0.12264   0.00000  Uiso   1.00
C21    C     0.38461   0.16667   0.16667   0.00000  Uiso   1.00
C22    C     0.11540   0.16667   0.16667   0.00000  Uiso   1.00
C23    C     0.45350   0.14527   0.21153   0.00000  Uiso   1.00
C24    C     0.04652   0.18864   0.12197   0.00000  Uiso   1.00
C25    C     0.45350   0.18807   0.12180   0.00000  Uiso   1.00
C26    C     0.04652   0.14470   0.21136   0.00000  Uiso   1.00
C27    C     0.47682   0.16667   0.16667   0.00000  Uiso   1.00
C28    C     0.02325   0.16667   0.16667   0.00000  Uiso   1.00
C29    C     0.47655   0.12318   0.25566   0.00000  Uiso   1.00
C30    C     0.02311   0.21087   0.07783   0.00000  Uiso   1.00
C31    C     0.47655   0.21016   0.07767   0.00000  Uiso   1.00
C32    C     0.02311   0.12248   0.25551   0.00000  Uiso   1.00
C33    C     0.24999   0.02173   0.16667   0.00000  Uiso   1.00
C34    C     0.24999   0.31160   0.16667   0.00000  Uiso   1.00
H35    H     0.38849   0.20337   0.08851   0.00000  Uiso   1.00
H36    H     0.11181   0.12880   0.24385   0.00000  Uiso   1.00
H37    H     0.38849   0.12996   0.24482   0.00000  Uiso   1.00
H38    H     0.11182   0.20454   0.08948   0.00000  Uiso   1.00
N39    N     0.45249   0.10096   0.30051   0.00000  Uiso   1.00
H40    H     0.46234   0.11832   0.00373   0.00000  Uiso   1.00
H41    H     0.46122   0.06324   0.30286   0.00000  Uiso   1.00
N42    N     0.04570   0.23507   0.03306   0.00000  Uiso   1.00
H43    H     0.06518   0.26408   0.04882   0.00000  Uiso   1.00
H44    H     0.06628   0.20927   0.01330   0.00000  Uiso   1.00
N45    N     0.45249   0.23238   0.03283   0.00000  Uiso   1.00
H46    H     0.46122   0.27010   0.03048   0.00000  Uiso   1.00
H47    H     0.46235   0.21503   0.32961   0.00000  Uiso   1.00
N48    N     0.04570   0.09827   0.30028   0.00000  Uiso   1.00
H49    H     0.06628   0.12408   0.32004   0.00000  Uiso   1.00
H50    H     0.06518   0.06926   0.28452   0.00000  Uiso   1.00
O51    O     0.75000   0.09512   0.21228   0.00000  Uiso   1.00
O52    O     0.75000   0.23822   0.12105   0.00000  Uiso   1.00
O53    O     0.75000   0.23822   0.21228   0.00000  Uiso   1.00
O54    O     0.75000   0.09512   0.12105   0.00000  Uiso   1.00
C55    C     0.75000   0.07266   0.16667   0.00000  Uiso   1.00
C56    C     0.75000   0.26067   0.16667   0.00000  Uiso   1.00
O57    O     0.68392   0.16667   0.21230   0.00000  Uiso   1.00
O58    O     0.81607   0.16667   0.12104   0.00000  Uiso   1.00
O59    O     0.81607   0.16667   0.21230   0.00000  Uiso   1.00
O60    O     0.68392   0.16667   0.12104   0.00000  Uiso   1.00
C61    C     0.66315   0.16667   0.16667   0.00000  Uiso   1.00
C62    C     0.83686   0.16667   0.16667   0.00000  Uiso   1.00
Zn63   Zn    0.75000   0.16667   0.22759   0.00000  Uiso   1.00
Zn64   Zn    0.75000   0.16667   0.10574   0.00000  Uiso   1.00
N65    N     0.75000   0.16667   0.02455   0.00000  Uiso   1.00
N66    N     0.75000   0.16667   0.30879   0.00000  Uiso   1.00
C67    C     0.90725   0.18726   0.12222   0.00000  Uiso   1.00
C68    C     0.59280   0.14534   0.21069   0.00000  Uiso   1.00
C69    C     0.90725   0.14607   0.21111   0.00000  Uiso   1.00
C70    C     0.59280   0.18800   0.12264   0.00000  Uiso   1.00
C71    C     0.88461   0.16667   0.16667   0.00000  Uiso   1.00
C72    C     0.61540   0.16667   0.16667   0.00000  Uiso   1.00
C73    C     0.95350   0.14527   0.21153   0.00000  Uiso   1.00
C74    C     0.54652   0.18864   0.12197   0.00000  Uiso   1.00
C75    C     0.95350   0.18807   0.12180   0.00000  Uiso   1.00
C76    C     0.54652   0.14470   0.21136   0.00000  Uiso   1.00
C77    C     0.97682   0.16667   0.16667   0.00000  Uiso   1.00
C78    C     0.52325   0.16667   0.16667   0.00000  Uiso   1.00
C79    C     0.97655   0.12318   0.25566   0.00000  Uiso   1.00
C80    C     0.52311   0.21087   0.07783   0.00000  Uiso   1.00
C81    C     0.97655   0.21016   0.07767   0.00000  Uiso   1.00
C82    C     0.52311   0.12248   0.25551   0.00000  Uiso   1.00
C83    C     0.74999   0.02173   0.16667   0.00000  Uiso   1.00
C84    C     0.74999   0.31160   0.16667   0.00000  Uiso   1.00
H85    H     0.88849   0.20337   0.08851   0.00000  Uiso   1.00
H86    H     0.61181   0.12880   0.24385   0.00000  Uiso   1.00
H87    H     0.88849   0.12996   0.24482   0.00000  Uiso   1.00
H88    H     0.61182   0.20454   0.08948   0.00000  Uiso   1.00
N89    N     0.95249   0.10096   0.30051   0.00000  Uiso   1.00
H90    H     0.96234   0.11832   0.00373   0.00000  Uiso   1.00
H91    H     0.96122   0.06324   0.30286   0.00000  Uiso   1.00
N92    N     0.54570   0.23507   0.03306   0.00000  Uiso   1.00
H93    H     0.56518   0.26408   0.04882   0.00000  Uiso   1.00
H94    H     0.56628   0.20927   0.01330   0.00000  Uiso   1.00
N95    N     0.95249   0.23238   0.03283   0.00000  Uiso   1.00
H96    H     0.96122   0.27010   0.03048   0.00000  Uiso   1.00
H97    H     0.96235   0.21503   0.32961   0.00000  Uiso   1.00
N98    N     0.54570   0.09827   0.30028   0.00000  Uiso   1.00
H99    H     0.56628   0.12408   0.32004   0.00000  Uiso   1.00
H100   H     0.56518   0.06926   0.28452   0.00000  Uiso   1.00
O101   O     0.25000   0.42845   0.21228   0.00000  Uiso   1.00
O102   O     0.25000   0.57155   0.12105   0.00000  Uiso   1.00
O103   O     0.25000   0.57155   0.21228   0.00000  Uiso   1.00
O104   O     0.25000   0.42845   0.12105   0.00000  Uiso   1.00
C105   C     0.25000   0.40599   0.16667   0.00000  Uiso   1.00
C106   C     0.25000   0.59401   0.16667   0.00000  Uiso   1.00
O107   O     0.18392   0.50000   0.21230   0.00000  Uiso   1.00
O108   O     0.31607   0.50000   0.12104   0.00000  Uiso   1.00
O109   O     0.31607   0.50000   0.21230   0.00000  Uiso   1.00
O110   O     0.18392   0.50000   0.12104   0.00000  Uiso   1.00
C111   C     0.16315   0.50000   0.16667   0.00000  Uiso   1.00
C112   C     0.33686   0.50000   0.16667   0.00000  Uiso   1.00
Zn113  Zn    0.25000   0.50000   0.22759   0.00000  Uiso   1.00
Zn114  Zn    0.25000   0.50000   0.10574   0.00000  Uiso   1.00
N115   N     0.25000   0.50000   0.02455   0.00000  Uiso   1.00
N116   N     0.25000   0.50000   0.30879   0.00000  Uiso   1.00
C117   C     0.40725   0.52060   0.12222   0.00000  Uiso   1.00
C118   C     0.09280   0.47867   0.21069   0.00000  Uiso   1.00
C119   C     0.40725   0.47940   0.21111   0.00000  Uiso   1.00
C120   C     0.09280   0.52134   0.12264   0.00000  Uiso   1.00
C121   C     0.38461   0.50000   0.16667   0.00000  Uiso   1.00
C122   C     0.11540   0.50000   0.16667   0.00000  Uiso   1.00
C123   C     0.45350   0.47860   0.21153   0.00000  Uiso   1.00
C124   C     0.04652   0.52198   0.12197   0.00000  Uiso   1.00
C125   C     0.45350   0.52140   0.12180   0.00000  Uiso   1.00
C126   C     0.04652   0.47803   0.21136   0.00000  Uiso   1.00
C127   C     0.47682   0.50000   0.16667   0.00000  Uiso   1.00
C128   C     0.02325   0.50000   0.16667   0.00000  Uiso   1.00
C129   C     0.47655   0.45652   0.25566   0.00000  Uiso   1.00
C130   C     0.02311   0.54420   0.07783   0.00000  Uiso   1.00
C131   C     0.47655   0.54349   0.07767   0.00000  Uiso   1.00
C132   C     0.02311   0.45581   0.25551   0.00000  Uiso   1.00
C133   C     0.24999   0.35506   0.16667   0.00000  Uiso   1.00
C134   C     0.24999   0.64494   0.16667   0.00000  Uiso   1.00
H135   H     0.38849   0.53670   0.08851   0.00000  Uiso   1.00
H136   H     0.11181   0.46214   0.24385   0.00000  Uiso   1.00
H137   H     0.38849   0.46329   0.24482   0.00000  Uiso   1.00
H138   H     0.11182   0.53787   0.08948   0.00000  Uiso   1.00
N139   N     0.45249   0.43429   0.30051   0.00000  Uiso   1.00
H140   H     0.46234   0.45165   0.00373   0.00000  Uiso   1.00
H141   H     0.46122   0.39658   0.30286   0.00000  Uiso   1.00
N142   N     0.04570   0.56841   0.03306   0.00000  Uiso   1.00
H143   H     0.06518   0.59742   0.04882   0.00000  Uiso   1.00
H144   H     0.06628   0.54261   0.01330   0.00000  Uiso   1.00
N145   N     0.45249   0.56571   0.03283   0.00000  Uiso   1.00
H146   H     0.46122   0.60343   0.03048   0.00000  Uiso   1.00
H147   H     0.46235   0.54836   0.32961   0.00000  Uiso   1.00
N148   N     0.04570   0.43161   0.30028   0.00000  Uiso   1.00
H149   H     0.06628   0.45741   0.32004   0.00000  Uiso   1.00
H150   H     0.06518   0.40260   0.28452   0.00000  Uiso   1.00
O151   O     0.75000   0.42845   0.21228   0.00000  Uiso   1.00
O152   O     0.75000   0.57155   0.12105   0.00000  Uiso   1.00
O153   O     0.75000   0.57155   0.21228   0.00000  Uiso   1.00
O154   O     0.75000   0.42845   0.12105   0.00000  Uiso   1.00
C155   C     0.75000   0.40599   0.16667   0.00000  Uiso   1.00
C156   C     0.75000   0.59401   0.16667   0.00000  Uiso   1.00
O157   O     0.68392   0.50000   0.21230   0.00000  Uiso   1.00
O158   O     0.81607   0.50000   0.12104   0.00000  Uiso   1.00
O159   O     0.81607   0.50000   0.21230   0.00000  Uiso   1.00
O160   O     0.68392   0.50000   0.12104   0.00000  Uiso   1.00
C161   C     0.66315   0.50000   0.16667   0.00000  Uiso   1.00
C162   C     0.83686   0.50000   0.16667   0.00000  Uiso   1.00
Zn163  Zn    0.75000   0.50000   0.22759   0.00000  Uiso   1.00
Zn164  Zn    0.75000   0.50000   0.10574   0.00000  Uiso   1.00
N165   N     0.75000   0.50000   0.02455   0.00000  Uiso   1.00
N166   N     0.75000   0.50000   0.30879   0.00000  Uiso   1.00
C167   C     0.90725   0.52060   0.12222   0.00000  Uiso   1.00
C168   C     0.59280   0.47867   0.21069   0.00000  Uiso   1.00
C169   C     0.90725   0.47940   0.21111   0.00000  Uiso   1.00
C170   C     0.59280   0.52134   0.12264   0.00000  Uiso   1.00
C171   C     0.88461   0.50000   0.16667   0.00000  Uiso   1.00
C172   C     0.61540   0.50000   0.16667   0.00000  Uiso   1.00
C173   C     0.95350   0.47860   0.21153   0.00000  Uiso   1.00
C174   C     0.54652   0.52198   0.12197   0.00000  Uiso   1.00
C175   C     0.95350   0.52140   0.12180   0.00000  Uiso   1.00
C176   C     0.54652   0.47803   0.21136   0.00000  Uiso   1.00
C177   C     0.97682   0.50000   0.16667   0.00000  Uiso   1.00
C178   C     0.52325   0.50000   0.16667   0.00000  Uiso   1.00
C179   C     0.97655   0.45652   0.25566   0.00000  Uiso   1.00
C180   C     0.52311   0.54420   0.07783   0.00000  Uiso   1.00
C181   C     0.97655   0.54349   0.07767   0.00000  Uiso   1.00
C182   C     0.52311   0.45581   0.25551   0.00000  Uiso   1.00
C183   C     0.74999   0.35506   0.16667   0.00000  Uiso   1.00
C184   C     0.74999   0.64494   0.16667   0.00000  Uiso   1.00
H185   H     0.88849   0.53670   0.08851   0.00000  Uiso   1.00
H186   H     0.61181   0.46214   0.24385   0.00000  Uiso   1.00
H187   H     0.88849   0.46329   0.24482   0.00000  Uiso   1.00
H188   H     0.61182   0.53787   0.08948   0.00000  Uiso   1.00
N189   N     0.95249   0.43429   0.30051   0.00000  Uiso   1.00
H190   H     0.96234   0.45165   0.00373   0.00000  Uiso   1.00
H191   H     0.96122   0.39658   0.30286   0.00000  Uiso   1.00
N192   N     0.54570   0.56841   0.03306   0.00000  Uiso   1.00
H193   H     0.56518   0.59742   0.04882   0.00000  Uiso   1.00
H194   H     0.56628   0.54261   0.01330   0.00000  Uiso   1.00
N195   N     0.95249   0.56571   0.03283   0.00000  Uiso   1.00
H196   H     0.96122   0.60343   0.03048   0.00000  Uiso   1.00
H197   H     0.96235   0.54836   0.32961   0.00000  Uiso   1.00
N198   N     0.54570   0.43161   0.30028   0.00000  Uiso   1.00
H199   H     0.56628   0.45741   0.32004   0.00000  Uiso   1.00
H200   H     0.56518   0.40260   0.28452   0.00000  Uiso   1.00
O201   O     0.25000   0.76178   0.21228   0.00000  Uiso   1.00
O202   O     0.25000   0.90488   0.12105   0.00000  Uiso   1.00
O203   O     0.25000   0.90488   0.21228   0.00000  Uiso   1.00
O204   O     0.25000   0.76178   0.12105   0.00000  Uiso   1.00
C205   C     0.25000   0.73933   0.16667   0.00000  Uiso   1.00
C206   C     0.25000   0.92734   0.16667   0.00000  Uiso   1.00
O207   O     0.18392   0.83333   0.21230   0.00000  Uiso   1.00
O208   O     0.31607   0.83333   0.12104   0.00000  Uiso   1.00
O209   O     0.31607   0.83333   0.21230   0.00000  Uiso   1.00
O210   O     0.18392   0.83333   0.12104   0.00000  Uiso   1.00
C211   C     0.16315   0.83333   0.16667   0.00000  Uiso   1.00
C212   C     0.33686   0.83333   0.16667   0.00000  Uiso   1.00
Zn213  Zn    0.25000   0.83333   0.22759   0.00000  Uiso   1.00
Zn214  Zn    0.25000   0.83333   0.10574   0.00000  Uiso   1.00
N215   N     0.25000   0.83333   0.02455   0.00000  Uiso   1.00
N216   N     0.25000   0.83333   0.30879   0.00000  Uiso   1.00
C217   C     0.40725   0.85393   0.12222   0.00000  Uiso   1.00
C218   C     0.09280   0.81200   0.21069   0.00000  Uiso   1.00
C219   C     0.40725   0.81273   0.21111   0.00000  Uiso   1.00
C220   C     0.09280   0.85467   0.12264   0.00000  Uiso   1.00
C221   C     0.38461   0.83333   0.16667   0.00000  Uiso   1.00
C222   C     0.11540   0.83334   0.16667   0.00000  Uiso   1.00
C223   C     0.45350   0.81193   0.21153   0.00000  Uiso   1.00
C224   C     0.04652   0.85531   0.12197   0.00000  Uiso   1.00
C225   C     0.45350   0.85473   0.12180   0.00000  Uiso   1.00
C226   C     0.04652   0.81136   0.21136   0.00000  Uiso   1.00
C227   C     0.47682   0.83333   0.16667   0.00000  Uiso   1.00
C228   C     0.02325   0.83334   0.16667   0.00000  Uiso   1.00
C229   C     0.47655   0.78985   0.25566   0.00000  Uiso   1.00
C230   C     0.02311   0.87753   0.07783   0.00000  Uiso   1.00
C231   C     0.47655   0.87682   0.07767   0.00000  Uiso   1.00
C232   C     0.02311   0.78914   0.25551   0.00000  Uiso   1.00
C233   C     0.24999   0.68840   0.16667   0.00000  Uiso   1.00
C234   C     0.24999   0.97827   0.16667   0.00000  Uiso   1.00
H235   H     0.38849   0.87004   0.08851   0.00000  Uiso   1.00
H236   H     0.11181   0.79547   0.24385   0.00000  Uiso   1.00
H237   H     0.38849   0.79663   0.24482   0.00000  Uiso   1.00
H238   H     0.11182   0.87120   0.08948   0.00000  Uiso   1.00
N239   N     0.45249   0.76763   0.30051   0.00000  Uiso   1.00
H240   H     0.46234   0.78499   0.00373   0.00000  Uiso   1.00
H241   H     0.46122   0.72991   0.30286   0.00000  Uiso   1.00
N242   N     0.04570   0.90174   0.03306   0.00000  Uiso   1.00
H243   H     0.06518   0.93075   0.04882   0.00000  Uiso   1.00
H244   H     0.06628   0.87594   0.01330   0.00000  Uiso   1.00
N245   N     0.45249   0.89905   0.03283   0.00000  Uiso   1.00
H246   H     0.46122   0.93676   0.03048   0.00000  Uiso   1.00
H247   H     0.46235   0.88169   0.32961   0.00000  Uiso   1.00
N248   N     0.04570   0.76494   0.30028   0.00000  Uiso   1.00
H249   H     0.06628   0.79074   0.32004   0.00000  Uiso   1.00
H250   H     0.06518   0.73593   0.28452   0.00000  Uiso   1.00
O251   O     0.75000   0.76178   0.21228   0.00000  Uiso   1.00
O252   O     0.75000   0.90488   0.12105   0.00000  Uiso   1.00
O253   O     0.75000   0.90488   0.21228   0.00000  Uiso   1.00
O254   O     0.75000   0.76178   0.12105   0.00000  Uiso   1.00
C255   C     0.75000   0.73933   0.16667   0.00000  Uiso   1.00
C256   C     0.75000   0.92734   0.16667   0.00000  Uiso   1.00
O257   O     0.68392   0.83333   0.21230   0.00000  Uiso   1.00
O258   O     0.81607   0.83333   0.12104   0.00000  Uiso   1.00
O259   O     0.81607   0.83333   0.21230   0.00000  Uiso   1.00
O260   O     0.68392   0.83333   0.12104   0.00000  Uiso   1.00
C261   C     0.66315   0.83333   0.16667   0.00000  Uiso   1.00
C262   C     0.83686   0.83333   0.16667   0.00000  Uiso   1.00
Zn263  Zn    0.75000   0.83333   0.22759   0.00000  Uiso   1.00
Zn264  Zn    0.75000   0.83333   0.10574   0.00000  Uiso   1.00
N265   N     0.75000   0.83333   0.02455   0.00000  Uiso   1.00
N266   N     0.75000   0.83333   0.30879   0.00000  Uiso   1.00
C267   C     0.90725   0.85393   0.12222   0.00000  Uiso   1.00
C268   C     0.59280   0.81200   0.21069   0.00000  Uiso   1.00
C269   C     0.90725   0.81273   0.21111   0.00000  Uiso   1.00
C270   C     0.59280   0.85467   0.12264   0.00000  Uiso   1.00
C271   C     0.88461   0.83333   0.16667   0.00000  Uiso   1.00
C272   C     0.61540   0.83334   0.16667   0.00000  Uiso   1.00
C273   C     0.95350   0.81193   0.21153   0.00000  Uiso   1.00
C274   C     0.54652   0.85531   0.12197   0.00000  Uiso   1.00
C275   C     0.95350   0.85473   0.12180   0.00000  Uiso   1.00
C276   C     0.54652   0.81136   0.21136   0.00000  Uiso   1.00
C277   C     0.97682   0.83333   0.16667   0.00000  Uiso   1.00
C278   C     0.52325   0.83334   0.16667   0.00000  Uiso   1.00
C279   C     0.97655   0.78985   0.25566   0.00000  Uiso   1.00
C280   C     0.52311   0.87753   0.07783   0.00000  Uiso   1.00
C281   C     0.97655   0.87682   0.07767   0.00000  Uiso   1.00
C282   C     0.52311   0.78914   0.25551   0.00000  Uiso   1.00
C283   C     0.74999   0.68840   0.16667   0.00000  Uiso   1.00
C284   C     0.74999   0.97827   0.16667   0.00000  Uiso   1.00
H285   H     0.88849   0.87004   0.08851   0.00000  Uiso   1.00
H286   H     0.61181   0.79547   0.24385   0.00000  Uiso   1.00
H287   H     0.88849   0.79663   0.24482   0.00000  Uiso   1.00
H288   H     0.61182   0.87120   0.08948   0.00000  Uiso   1.00
N289   N     0.95249   0.76763   0.30051   0.00000  Uiso   1.00
H290   H     0.96234   0.78499   0.00373   0.00000  Uiso   1.00
H291   H     0.96122   0.72991   0.30286   0.00000  Uiso   1.00
N292   N     0.54570   0.90174   0.03306   0.00000  Uiso   1.00
H293   H     0.56518   0.93075   0.04882   0.00000  Uiso   1.00
H294   H     0.56628   0.87594   0.01330   0.00000  Uiso   1.00
N295   N     0.95249   0.89905   0.03283   0.00000  Uiso   1.00
H296   H     0.96122   0.93676   0.03048   0.00000  Uiso   1.00
H297   H     0.96235   0.88169   0.32961   0.00000  Uiso   1.00
N298   N     0.54570   0.76494   0.30028   0.00000  Uiso   1.00
H299   H     0.56628   0.79074   0.32004   0.00000  Uiso   1.00
H300   H     0.56518   0.73593   0.28452   0.00000  Uiso   1.00
O301   O     0.25000   0.09512   0.54562   0.00000  Uiso   1.00
O302   O     0.25000   0.23822   0.45438   0.00000  Uiso   1.00
O303   O     0.25000   0.23822   0.54562   0.00000  Uiso   1.00
O304   O     0.25000   0.09512   0.45438   0.00000  Uiso   1.00
C305   C     0.25000   0.07266   0.50000   0.00000  Uiso   1.00
C306   C     0.25000   0.26067   0.50000   0.00000  Uiso   1.00
O307   O     0.18392   0.16667   0.54563   0.00000  Uiso   1.00
O308   O     0.31607   0.16667   0.45437   0.00000  Uiso   1.00
O309   O     0.31607   0.16667   0.54563   0.00000  Uiso   1.00
O310   O     0.18392   0.16667   0.45437   0.00000  Uiso   1.00
C311   C     0.16315   0.16667   0.50000   0.00000  Uiso   1.00
C312   C     0.33686   0.16667   0.50000   0.00000  Uiso   1.00
Zn313  Zn    0.25000   0.16667   0.56093   0.00000  Uiso   1.00
Zn314  Zn    0.25000   0.16667   0.43907   0.00000  Uiso   1.00
N315   N     0.25000   0.16667   0.35788   0.00000  Uiso   1.00
N316   N     0.25000   0.16667   0.64212   0.00000  Uiso   1.00
C317   C     0.40725   0.18726   0.45556   0.00000  Uiso   1.00
C318   C     0.09280   0.14534   0.54403   0.00000  Uiso   1.00
C319   C     0.40725   0.14607   0.54444   0.00000  Uiso   1.00
C320   C     0.09280   0.18800   0.45598   0.00000  Uiso   1.00
C321   C     0.38461   0.16667   0.50000   0.00000  Uiso   1.00
C322   C     0.11540   0.16667   0.50000   0.00000  Uiso   1.00
C323   C     0.45350   0.14527   0.54487   0.00000  Uiso   1.00
C324   C     0.04652   0.18864   0.45530   0.00000  Uiso   1.00
C325   C     0.45350   0.18807   0.45514   0.00000  Uiso   1.00
C326   C     0.04652   0.14470   0.54470   0.00000  Uiso   1.00
C327   C     0.47682   0.16667   0.50000   0.00000  Uiso   1.00
C328   C     0.02325   0.16667   0.50000   0.00000  Uiso   1.00
C329   C     0.47655   0.12318   0.58899   0.00000  Uiso   1.00
C330   C     0.02311   0.21087   0.41116   0.00000  Uiso   1.00
C331   C     0.47655   0.21016   0.41101   0.00000  Uiso   1.00
C332   C     0.02311   0.12248   0.58884   0.00000  Uiso   1.00
C333   C     0.24999   0.02173   0.50000   0.00000  Uiso   1.00
C334   C     0.24999   0.31160   0.50000   0.00000  Uiso   1.00
H335   H     0.38849   0.20337   0.42184   0.00000  Uiso   1.00
H336   H     0.11181   0.12880   0.57719   0.00000  Uiso   1.00
H337   H     0.38849   0.12996   0.57816   0.00000  Uiso   1.00
H338   H     0.11182   0.20454   0.42282   0.00000  Uiso   1.00
N339   N     0.45249   0.10096   0.63384   0.00000  Uiso   1.00
H340   H     0.46234   0.11832   0.33706   0.00000  Uiso   1.00
H341   H     0.46122   0.06324   0.63620   0.00000  Uiso   1.00
N342   N     0.04570   0.23507   0.36640   0.00000  Uiso   1.00
H343   H     0.06518   0.26408   0.38216   0.00000  Uiso   1.00
H344   H     0.06628   0.20927   0.34663   0.00000  Uiso   1.00
N345   N     0.45249   0.23238   0.36616   0.00000  Uiso   1.00
H346   H     0.46122   0.27010   0.36382   0.00000  Uiso   1.00
H347   H     0.46235   0.21503   0.66294   0.00000  Uiso   1.00
N348   N     0.04570   0.09827   0.63361   0.00000  Uiso   1.00
H349   H     0.06628   0.12408   0.65337   0.00000  Uiso   1.00
H350   H     0.06518   0.06926   0.61785   0.00000  Uiso   1.00
O351   O     0.75000   0.09512   0.54562   0.00000  Uiso   1.00
O352   O     0.75000   0.23822   0.45438   0.00000  Uiso   1.00
O353   O     0.75000   0.23822   0.54562   0.00000  Uiso   1.00
O354   O     0.75000   0.09512   0.45438   0.00000  Uiso   1.00
C355   C     0.75000   0.07266   0.50000   0.00000  Uiso   1.00
C356   C     0.75000   0.26067   0.50000   0.00000  Uiso   1.00
O357   O     0.68392   0.16667   0.54563   0.00000  Uiso   1.00
O358   O     0.81607   0.16667   0.45437   0.00000  Uiso   1.00
O359   O     0.81607   0.16667   0.54563   0.00000  Uiso   1.00
O360   O     0.68392   0.16667   0.45437   0.00000  Uiso   1.00
C361   C     0.66315   0.16667   0.50000   0.00000  Uiso   1.00
C362   C     0.83686   0.16667   0.50000   0.00000  Uiso   1.00
Zn363  Zn    0.75000   0.16667   0.56093   0.00000  Uiso   1.00
Zn364  Zn    0.75000   0.16667   0.43907   0.00000  Uiso   1.00
N365   N     0.75000   0.16667   0.35788   0.00000  Uiso   1.00
N366   N     0.75000   0.16667   0.64212   0.00000  Uiso   1.00
C367   C     0.90725   0.18726   0.45556   0.00000  Uiso   1.00
C368   C     0.59280   0.14534   0.54403   0.00000  Uiso   1.00
C369   C     0.90725   0.14607   0.54444   0.00000  Uiso   1.00
C370   C     0.59280   0.18800   0.45598   0.00000  Uiso   1.00
C371   C     0.88461   0.16667   0.50000   0.00000  Uiso   1.00
C372   C     0.61540   0.16667   0.50000   0.00000  Uiso   1.00
C373   C     0.95350   0.14527   0.54487   0.00000  Uiso   1.00
C374   C     0.54652   0.18864   0.45530   0.00000  Uiso   1.00
C375   C     0.95350   0.18807   0.45514   0.00000  Uiso   1.00
C376   C     0.54652   0.14470   0.54470   0.00000  Uiso   1.00
C377   C     0.97682   0.16667   0.50000   0.00000  Uiso   1.00
C378   C     0.52325   0.16667   0.50000   0.00000  Uiso   1.00
C379   C     0.97655   0.12318   0.58899   0.00000  Uiso   1.00
C380   C     0.52311   0.21087   0.41116   0.00000  Uiso   1.00
C381   C     0.97655   0.21016   0.41101   0.00000  Uiso   1.00
C382   C     0.52311   0.12248   0.58884   0.00000  Uiso   1.00
C383   C     0.74999   0.02173   0.50000   0.00000  Uiso   1.00
C384   C     0.74999   0.31160   0.50000   0.00000  Uiso   1.00
H385   H     0.88849   0.20337   0.42184   0.00000  Uiso   1.00
H386   H     0.61181   0.12880   0.57719   0.00000  Uiso   1.00
H387   H     0.88849   0.12996   0.57816   0.00000  Uiso   1.00
H388   H     0.61182   0.20454   0.42282   0.00000  Uiso   1.00
N389   N     0.95249   0.10096   0.63384   0.00000  Uiso   1.00
H390   H     0.96234   0.11832   0.33706   0.00000  Uiso   1.00
H391   H     0.96122   0.06324   0.63620   0.00000  Uiso   1.00
N392   N     0.54570   0.23507   0.36640   0.00000  Uiso   1.00
H393   H     0.56518   0.26408   0.38216   0.00000  Uiso   1.00
H394   H     0.56628   0.20927   0.34663   0.00000  Uiso   1.00
N395   N     0.95249   0.23238   0.36616   0.00000  Uiso   1.00
H396   H     0.96122   0.27010   0.36382   0.00000  Uiso   1.00
H397   H     0.96235   0.21503   0.66294   0.00000  Uiso   1.00
N398   N     0.54570   0.09827   0.63361   0.00000  Uiso   1.00
H399   H     0.56628   0.12408   0.65337   0.00000  Uiso   1.00
H400   H     0.56518   0.06926   0.61785   0.00000  Uiso   1.00
O401   O     0.25000   0.42845   0.54562   0.00000  Uiso   1.00
O402   O     0.25000   0.57155   0.45438   0.00000  Uiso   1.00
O403   O     0.25000   0.57155   0.54562   0.00000  Uiso   1.00
O404   O     0.25000   0.42845   0.45438   0.00000  Uiso   1.00
C405   C     0.25000   0.40599   0.50000   0.00000  Uiso   1.00
C406   C     0.25000   0.59401   0.50000   0.00000  Uiso   1.00
O407   O     0.18392   0.50000   0.54563   0.00000  Uiso   1.00
O408   O     0.31607   0.50000   0.45437   0.00000  Uiso   1.00
O409   O     0.31607   0.50000   0.54563   0.00000  Uiso   1.00
O410   O     0.18392   0.50000   0.45437   0.00000  Uiso   1.00
C411   C     0.16315   0.50000   0.50000   0.00000  Uiso   1.00
C412   C     0.33686   0.50000   0.50000   0.00000  Uiso   1.00
Zn413  Zn    0.25000   0.50000   0.56093   0.00000  Uiso   1.00
Zn414  Zn    0.25000   0.50000   0.43907   0.00000  Uiso   1.00
N415   N     0.25000   0.50000   0.35788   0.00000  Uiso   1.00
N416   N     0.25000   0.50000   0.64212   0.00000  Uiso   1.00
C417   C     0.40725   0.52060   0.45556   0.00000  Uiso   1.00
C418   C     0.09280   0.47867   0.54403   0.00000  Uiso   1.00
C419   C     0.40725   0.47940   0.54444   0.00000  Uiso   1.00
C420   C     0.09280   0.52134   0.45598   0.00000  Uiso   1.00
C421   C     0.38461   0.50000   0.50000   0.00000  Uiso   1.00
C422   C     0.11540   0.50000   0.50000   0.00000  Uiso   1.00
C423   C     0.45350   0.47860   0.54487   0.00000  Uiso   1.00
C424   C     0.04652   0.52198   0.45530   0.00000  Uiso   1.00
C425   C     0.45350   0.52140   0.45514   0.00000  Uiso   1.00
C426   C     0.04652   0.47803   0.54470   0.00000  Uiso   1.00
C427   C     0.47682   0.50000   0.50000   0.00000  Uiso   1.00
C428   C     0.02325   0.50000   0.50000   0.00000  Uiso   1.00
C429   C     0.47655   0.45652   0.58899   0.00000  Uiso   1.00
C430   C     0.02311   0.54420   0.41116   0.00000  Uiso   1.00
C431   C     0.47655   0.54349   0.41101   0.00000  Uiso   1.00
C432   C     0.02311   0.45581   0.58884   0.00000  Uiso   1.00
C433   C     0.24999   0.35506   0.50000   0.00000  Uiso   1.00
C434   C     0.24999   0.64494   0.50000   0.00000  Uiso   1.00
H435   H     0.38849   0.53670   0.42184   0.00000  Uiso   1.00
H436   H     0.11181   0.46214   0.57719   0.00000  Uiso   1.00
H437   H     0.38849   0.46329   0.57816   0.00000  Uiso   1.00
H438   H     0.11182   0.53787   0.42282   0.00000  Uiso   1.00
N439   N     0.45249   0.43429   0.63384   0.00000  Uiso   1.00
H440   H     0.46234   0.45165   0.33706   0.00000  Uiso   1.00
H441   H     0.46122   0.39658   0.63620   0.00000  Uiso   1.00
N442   N     0.04570   0.56841   0.36640   0.00000  Uiso   1.00
H443   H     0.06518   0.59742   0.38216   0.00000  Uiso   1.00
H444   H     0.06628   0.54261   0.34663   0.00000  Uiso   1.00
N445   N     0.45249   0.56571   0.36616   0.00000  Uiso   1.00
H446   H     0.46122   0.60343   0.36382   0.00000  Uiso   1.00
H447   H     0.46235   0.54836   0.66294   0.00000  Uiso   1.00
N448   N     0.04570   0.43161   0.63361   0.00000  Uiso   1.00
H449   H     0.06628   0.45741   0.65337   0.00000  Uiso   1.00
H450   H     0.06518   0.40260   0.61785   0.00000  Uiso   1.00
O451   O     0.75000   0.42845   0.54562   0.00000  Uiso   1.00
O452   O     0.75000   0.57155   0.45438   0.00000  Uiso   1.00
O453   O     0.75000   0.57155   0.54562   0.00000  Uiso   1.00
O454   O     0.75000   0.42845   0.45438   0.00000  Uiso   1.00
C455   C     0.75000   0.40599   0.50000   0.00000  Uiso   1.00
C456   C     0.75000   0.59401   0.50000   0.00000  Uiso   1.00
O457   O     0.68392   0.50000   0.54563   0.00000  Uiso   1.00
O458   O     0.81607   0.50000   0.45437   0.00000  Uiso   1.00
O459   O     0.81607   0.50000   0.54563   0.00000  Uiso   1.00
O460   O     0.68392   0.50000   0.45437   0.00000  Uiso   1.00
C461   C     0.66315   0.50000   0.50000   0.00000  Uiso   1.00
C462   C     0.83686   0.50000   0.50000   0.00000  Uiso   1.00
Zn463  Zn    0.75000   0.50000   0.56093   0.00000  Uiso   1.00
Zn464  Zn    0.75000   0.50000   0.43907   0.00000  Uiso   1.00
N465   N     0.75000   0.50000   0.35788   0.00000  Uiso   1.00
N466   N     0.75000   0.50000   0.64212   0.00000  Uiso   1.00
C467   C     0.90725   0.52060   0.45556   0.00000  Uiso   1.00
C468   C     0.59280   0.47867   0.54403   0.00000  Uiso   1.00
C469   C     0.90725   0.47940   0.54444   0.00000  Uiso   1.00
C470   C     0.59280   0.52134   0.45598   0.00000  Uiso   1.00
C471   C     0.88461   0.50000   0.50000   0.00000  Uiso   1.00
C472   C     0.61540   0.50000   0.50000   0.00000  Uiso   1.00
C473   C     0.95350   0.47860   0.54487   0.00000  Uiso   1.00
C474   C     0.54652   0.52198   0.45530   0.00000  Uiso   1.00
C475   C     0.95350   0.52140   0.45514   0.00000  Uiso   1.00
C476   C     0.54652   0.47803   0.54470   0.00000  Uiso   1.00
C477   C     0.97682   0.50000   0.50000   0.00000  Uiso   1.00
C478   C     0.52325   0.50000   0.50000   0.00000  Uiso   1.00
C479   C     0.97655   0.45652   0.58899   0.00000  Uiso   1.00
C480   C     0.52311   0.54420   0.41116   0.00000  Uiso   1.00
C481   C     0.97655   0.54349   0.41101   0.00000  Uiso   1.00
C482   C     0.52311   0.45581   0.58884   0.00000  Uiso   1.00
C483   C     0.74999   0.35506   0.50000   0.00000  Uiso   1.00
C484   C     0.74999   0.64494   0.50000   0.00000  Uiso   1.00
H485   H     0.88849   0.53670   0.42184   0.00000  Uiso   1.00
H486   H     0.61181   0.46214   0.57719   0.00000  Uiso   1.00
H487   H     0.88849   0.46329   0.57816   0.00000  Uiso   1.00
H488   H     0.61182   0.53787   0.42282   0.00000  Uiso   1.00
N489   N     0.95249   0.43429   0.63384   0.00000  Uiso   1.00
H490   H     0.96234   0.45165   0.33706   0.00000  Uiso   1.00
H491   H     0.96122   0.39658   0.63620   0.00000  Uiso   1.00
N492   N     0.54570   0.56841   0.36640   0.00000  Uiso   1.00
H493   H     0.56518   0.59742   0.38216   0.00000  Uiso   1.00
H494   H     0.56628   0.54261   0.34663   0.00000  Uiso   1.00
N495   N     0.95249   0.56571   0.36616   0.00000  Uiso   1.00
H496   H     0.96122   0.60343   0.36382   0.00000  Uiso   1.00
H497   H     0.96235   0.54836   0.66294   0.00000  Uiso   1.00
N498   N     0.54570   0.43161   0.63361   0.00000  Uiso   1.00
H499   H     0.56628   0.45741   0.65337   0.00000  Uiso   1.00
H500   H     0.56518   0.40260   0.61785   0.00000  Uiso   1.00
O501   O     0.25000   0.76178   0.54562   0.00000  Uiso   1.00
O502   O     0.25000   0.90488   0.45438   0.00000  Uiso   1.00
O503   O     0.25000   0.90488   0.54562   0.00000  Uiso   1.00
O504   O     0.25000   0.76178   0.45438   0.00000  Uiso   1.00
C505   C     0.25000   0.73933   0.50000   0.00000  Uiso   1.00
C506   C     0.25000   0.92734   0.50000   0.00000  Uiso   1.00
O507   O     0.18392   0.83333   0.54563   0.00000  Uiso   1.00
O508   O     0.31607   0.83333   0.45437   0.00000  Uiso   1.00
O509   O     0.31607   0.83333   0.54563   0.00000  Uiso   1.00
O510   O     0.18392   0.83333   0.45437   0.00000  Uiso   1.00
C511   C     0.16315   0.83333   0.50000   0.00000  Uiso   1.00
C512   C     0.33686   0.83333   0.50000   0.00000  Uiso   1.00
Zn513  Zn    0.25000   0.83333   0.56093   0.00000  Uiso   1.00
Zn514  Zn    0.25000   0.83333   0.43907   0.00000  Uiso   1.00
N515   N     0.25000   0.83333   0.35788   0.00000  Uiso   1.00
N516   N     0.25000   0.83333   0.64212   0.00000  Uiso   1.00
C517   C     0.40725   0.85393   0.45556   0.00000  Uiso   1.00
C518   C     0.09280   0.81200   0.54403   0.00000  Uiso   1.00
C519   C     0.40725   0.81273   0.54444   0.00000  Uiso   1.00
C520   C     0.09280   0.85467   0.45598   0.00000  Uiso   1.00
C521   C     0.38461   0.83333   0.50000   0.00000  Uiso   1.00
C522   C     0.11540   0.83334   0.50000   0.00000  Uiso   1.00
C523   C     0.45350   0.81193   0.54487   0.00000  Uiso   1.00
C524   C     0.04652   0.85531   0.45530   0.00000  Uiso   1.00
C525   C     0.45350   0.85473   0.45514   0.00000  Uiso   1.00
C526   C     0.04652   0.81136   0.54470   0.00000  Uiso   1.00
C527   C     0.47682   0.83333   0.50000   0.00000  Uiso   1.00
C528   C     0.02325   0.83334   0.50000   0.00000  Uiso   1.00
C529   C     0.47655   0.78985   0.58899   0.00000  Uiso   1.00
C530   C     0.02311   0.87753   0.41116   0.00000  Uiso   1.00
C531   C     0.47655   0.87682   0.41101   0.00000  Uiso   1.00
C532   C     0.02311   0.78914   0.58884   0.00000  Uiso   1.00
C533   C     0.24999   0.68840   0.50000   0.00000  Uiso   1.00
C534   C     0.24999   0.97827   0.50000   0.00000  Uiso   1.00
H535   H     0.38849   0.87004   0.42184   0.00000  Uiso   1.00
H536   H     0.11181   0.79547   0.57719   0.00000  Uiso   1.00
H537   H     0.38849   0.79663   0.57816   0.00000  Uiso   1.00
H538   H     0.11182   0.87120   0.42282   0.00000  Uiso   1.00
N539   N     0.45249   0.76763   0.63384   0.00000  Uiso   1.00
H540   H     0.46234   0.78499   0.33706   0.00000  Uiso   1.00
H541   H     0.46122   0.72991   0.63620   0.00000  Uiso   1.00
N542   N     0.04570   0.90174   0.36640   0.00000  Uiso   1.00
H543   H     0.06518   0.93075   0.38216   0.00000  Uiso   1.00
H544   H     0.06628   0.87594   0.34663   0.00000  Uiso   1.00
N545   N     0.45249   0.89905   0.36616   0.00000  Uiso   1.00
H546   H     0.46122   0.93676   0.36382   0.00000  Uiso   1.00
H547   H     0.46235   0.88169   0.66294   0.00000  Uiso   1.00
N548   N     0.04570   0.76494   0.63361   0.00000  Uiso   1.00
H549   H     0.06628   0.79074   0.65337   0.00000  Uiso   1.00
H550   H     0.06518   0.73593   0.61785   0.00000  Uiso   1.00
O551   O     0.75000   0.76178   0.54562   0.00000  Uiso   1.00
O552   O     0.75000   0.90488   0.45438   0.00000  Uiso   1.00
O553   O     0.75000   0.90488   0.54562   0.00000  Uiso   1.00
O554   O     0.75000   0.76178   0.45438   0.00000  Uiso   1.00
C555   C     0.75000   0.73933   0.50000   0.00000  Uiso   1.00
C556   C     0.75000   0.92734   0.50000   0.00000  Uiso   1.00
O557   O     0.68392   0.83333   0.54563   0.00000  Uiso   1.00
O558   O     0.81607   0.83333   0.45437   0.00000  Uiso   1.00
O559   O     0.81607   0.83333   0.54563   0.00000  Uiso   1.00
O560   O     0.68392   0.83333   0.45437   0.00000  Uiso   1.00
C561   C     0.66315   0.83333   0.50000   0.00000  Uiso   1.00
C562   C     0.83686   0.83333   0.50000   0.00000  Uiso   1.00
Zn563  Zn    0.75000   0.83333   0.56093   0.00000  Uiso   1.00
Zn564  Zn    0.75000   0.83333   0.43907   0.00000  Uiso   1.00
N565   N     0.75000   0.83333   0.35788   0.00000  Uiso   1.00
N566   N     0.75000   0.83333   0.64212   0.00000  Uiso   1.00
C567   C     0.90725   0.85393   0.45556   0.00000  Uiso   1.00
C568   C     0.59280   0.81200   0.54403   0.00000  Uiso   1.00
C569   C     0.90725   0.81273   0.54444   0.00000  Uiso   1.00
C570   C     0.59280   0.85467   0.45598   0.00000  Uiso   1.00
C571   C     0.88461   0.83333   0.50000   0.00000  Uiso   1.00
C572   C     0.61540   0.83334   0.50000   0.00000  Uiso   1.00
C573   C     0.95350   0.81193   0.54487   0.00000  Uiso   1.00
C574   C     0.54652   0.85531   0.45530   0.00000  Uiso   1.00
C575   C     0.95350   0.85473   0.45514   0.00000  Uiso   1.00
C576   C     0.54652   0.81136   0.54470   0.00000  Uiso   1.00
C577   C     0.97682   0.83333   0.50000   0.00000  Uiso   1.00
C578   C     0.52325   0.83334   0.50000   0.00000  Uiso   1.00
C579   C     0.97655   0.78985   0.58899   0.00000  Uiso   1.00
C580   C     0.52311   0.87753   0.41116   0.00000  Uiso   1.00
C581   C     0.97655   0.87682   0.41101   0.00000  Uiso   1.00
C582   C     0.52311   0.78914   0.58884   0.00000  Uiso   1.00
C583   C     0.74999   0.68840   0.50000   0.00000  Uiso   1.00
C584   C     0.74999   0.97827   0.50000   0.00000  Uiso   1.00
H585   H     0.88849   0.87004   0.42184   0.00000  Uiso   1.00
H586   H     0.61181   0.79547   0.57719   0.00000  Uiso   1.00
H587   H     0.88849   0.79663   0.57816   0.00000  Uiso   1.00
H588   H     0.61182   0.87120   0.42282   0.00000  Uiso   1.00
N589   N     0.95249   0.76763   0.63384   0.00000  Uiso   1.00
H590   H     0.96234   0.78499   0.33706   0.00000  Uiso   1.00
H591   H     0.96122   0.72991   0.63620   0.00000  Uiso   1.00
N592   N     0.54570   0.90174   0.36640   0.00000  Uiso   1.00
H593   H     0.56518   0.93075   0.38216   0.00000  Uiso   1.00
H594   H     0.56628   0.87594   0.34663   0.00000  Uiso   1.00
N595   N     0.95249   0.89905   0.36616   0.00000  Uiso   1.00
H596   H     0.96122   0.93676   0.36382   0.00000  Uiso   1.00
H597   H     0.96235   0.88169   0.66294   0.00000  Uiso   1.00
N598   N     0.54570   0.76494   0.63361   0.00000  Uiso   1.00
H599   H     0.56628   0.79074   0.65337   0.00000  Uiso   1.00
H600   H     0.56518   0.73593   0.61785   0.00000  Uiso   1.00
O601   O     0.25000   0.09512   0.87895   0.00000  Uiso   1.00
O602   O     0.25000   0.23822   0.78772   0.00000  Uiso   1.00
O603   O     0.25000   0.23822   0.87895   0.00000  Uiso   1.00
O604   O     0.25000   0.09512   0.78772   0.00000  Uiso   1.00
C605   C     0.25000   0.07266   0.83333   0.00000  Uiso   1.00
C606   C     0.25000   0.26067   0.83333   0.00000  Uiso   1.00
O607   O     0.18392   0.16667   0.87896   0.00000  Uiso   1.00
O608   O     0.31607   0.16667   0.78770   0.00000  Uiso   1.00
O609   O     0.31607   0.16667   0.87896   0.00000  Uiso   1.00
O610   O     0.18392   0.16667   0.78770   0.00000  Uiso   1.00
C611   C     0.16315   0.16667   0.83333   0.00000  Uiso   1.00
C612   C     0.33686   0.16667   0.83333   0.00000  Uiso   1.00
Zn613  Zn    0.25000   0.16667   0.89426   0.00000  Uiso   1.00
Zn614  Zn    0.25000   0.16667   0.77241   0.00000  Uiso   1.00
N615   N     0.25000   0.16667   0.69121   0.00000  Uiso   1.00
N616   N     0.25000   0.16667   0.97545   0.00000  Uiso   1.00
C617   C     0.40725   0.18726   0.78889   0.00000  Uiso   1.00
C618   C     0.09280   0.14534   0.87736   0.00000  Uiso   1.00
C619   C     0.40725   0.14607   0.87778   0.00000  Uiso   1.00
C620   C     0.09280   0.18800   0.78931   0.00000  Uiso   1.00
C621   C     0.38461   0.16667   0.83333   0.00000  Uiso   1.00
C622   C     0.11540   0.16667   0.83333   0.00000  Uiso   1.00
C623   C     0.45350   0.14527   0.87820   0.00000  Uiso   1.00
C624   C     0.04652   0.18864   0.78864   0.00000  Uiso   1.00
C625   C     0.45350   0.18807   0.78847   0.00000  Uiso   1.00
C626   C     0.04652   0.14470   0.87803   0.00000  Uiso   1.00
C627   C     0.47682   0.16667   0.83333   0.00000  Uiso   1.00
C628   C     0.02325   0.16667   0.83333   0.00000  Uiso   1.00
C629   C     0.47655   0.12318   0.92233   0.00000  Uiso   1.00
C630   C     0.02311   0.21087   0.74449   0.00000  Uiso   1.00
C631   C     0.47655   0.21016   0.74434   0.00000  Uiso   1.00
C632   C     0.02311   0.12248   0.92218   0.00000  Uiso   1.00
C633   C     0.24999   0.02173   0.83333   0.00000  Uiso   1.00
C634   C     0.24999   0.31160   0.83333   0.00000  Uiso   1.00
H635   H     0.38849   0.20337   0.75518   0.00000  Uiso   1.00
H636   H     0.11181   0.12880   0.91052   0.00000  Uiso   1.00
H637   H     0.38849   0.12996   0.91149   0.00000  Uiso   1.00
H638   H     0.11182   0.20454   0.75615   0.00000  Uiso   1.00
N639   N     0.45249   0.10096   0.96717   0.00000  Uiso   1.00
H640   H     0.46234   0.11832   0.67039   0.00000  Uiso   1.00
H641   H     0.46122   0.06324   0.96953   0.00000  Uiso   1.00
N642   N     0.04570   0.23507   0.69973   0.00000  Uiso   1.00
H643   H     0.06518   0.26408   0.71549   0.00000  Uiso   1.00
H644   H     0.06628   0.20927   0.67997   0.00000  Uiso   1.00
N645   N     0.45249   0.23238   0.69950   0.00000  Uiso   1.00
H646   H     0.46122   0.27010   0.69715   0.00000  Uiso   1.00
H647   H     0.46235   0.21503   0.99627   0.00000  Uiso   1.00
N648   N     0.04570   0.09827   0.96694   0.00000  Uiso   1.00
H649   H     0.06628   0.12408   0.98670   0.00000  Uiso   1.00
H650   H     0.06518   0.06926   0.95119   0.00000  Uiso   1.00
O651   O     0.75000   0.09512   0.87895   0.00000  Uiso   1.00
O652   O     0.75000   0.23822   0.78772   0.00000  Uiso   1.00
O653   O     0.75000   0.23822   0.87895   0.00000  Uiso   1.00
O654   O     0.75000   0.09512   0.78772   0.00000  Uiso   1.00
C655   C     0.75000   0.07266   0.83333   0.00000  Uiso   1.00
C656   C     0.75000   0.26067   0.83333   0.00000  Uiso   1.00
O657   O     0.68392   0.16667   0.87896   0.00000  Uiso   1.00
O658   O     0.81607   0.16667   0.78770   0.00000  Uiso   1.00
O659   O     0.81607   0.16667   0.87896   0.00000  Uiso   1.00
O660   O     0.68392   0.16667   0.78770   0.00000  Uiso   1.00
C661   C     0.66315   0.16667   0.83333   0.00000  Uiso   1.00
C662   C     0.83686   0.16667   0.83333   0.00000  Uiso   1.00
Zn663  Zn    0.75000   0.16667   0.89426   0.00000  Uiso   1.00
Zn664  Zn    0.75000   0.16667   0.77241   0.00000  Uiso   1.00
N665   N     0.75000   0.16667   0.69121   0.00000  Uiso   1.00
N666   N     0.75000   0.16667   0.97545   0.00000  Uiso   1.00
C667   C     0.90725   0.18726   0.78889   0.00000  Uiso   1.00
C668   C     0.59280   0.14534   0.87736   0.00000  Uiso   1.00
C669   C     0.90725   0.14607   0.87778   0.00000  Uiso   1.00
C670   C     0.59280   0.18800   0.78931   0.00000  Uiso   1.00
C671   C     0.88461   0.16667   0.83333   0.00000  Uiso   1.00
C672   C     0.61540   0.16667   0.83333   0.00000  Uiso   1.00
C673   C     0.95350   0.14527   0.87820   0.00000  Uiso   1.00
C674   C     0.54652   0.18864   0.78864   0.00000  Uiso   1.00
C675   C     0.95350   0.18807   0.78847   0.00000  Uiso   1.00
C676   C     0.54652   0.14470   0.87803   0.00000  Uiso   1.00
C677   C     0.97682   0.16667   0.83333   0.00000  Uiso   1.00
C678   C     0.52325   0.16667   0.83333   0.00000  Uiso   1.00
C679   C     0.97655   0.12318   0.92233   0.00000  Uiso   1.00
C680   C     0.52311   0.21087   0.74449   0.00000  Uiso   1.00
C681   C     0.97655   0.21016   0.74434   0.00000  Uiso   1.00
C682   C     0.52311   0.12248   0.92218   0.00000  Uiso   1.00
C683   C     0.74999   0.02173   0.83333   0.00000  Uiso   1.00
C684   C     0.74999   0.31160   0.83333   0.00000  Uiso   1.00
H685   H     0.88849   0.20337   0.75518   0.00000  Uiso   1.00
H686   H     0.61181   0.12880   0.91052   0.00000  Uiso   1.00
H687   H     0.88849   0.12996   0.91149   0.00000  Uiso   1.00
H688   H     0.61182   0.20454   0.75615   0.00000  Uiso   1.00
N689   N     0.95249   0.10096   0.96717   0.00000  Uiso   1.00
H690   H     0.96234   0.11832   0.67039   0.00000  Uiso   1.00
H691   H     0.96122   0.06324   0.96953   0.00000  Uiso   1.00
N692   N     0.54570   0.23507   0.69973   0.00000  Uiso   1.00
H693   H     0.56518   0.26408   0.71549   0.00000  Uiso   1.00
H694   H     0.56628   0.20927   0.67997   0.00000  Uiso   1.00
N695   N     0.95249   0.23238   0.69950   0.00000  Uiso   1.00
H696   H     0.96122   0.27010   0.69715   0.00000  Uiso   1.00
H697   H     0.96235   0.21503   0.99627   0.00000  Uiso   1.00
N698   N     0.54570   0.09827   0.96694   0.00000  Uiso   1.00
H699   H     0.56628   0.12408   0.98670   0.00000  Uiso   1.00
H700   H     0.56518   0.06926   0.95119   0.00000  Uiso   1.00
O701   O     0.25000   0.42845   0.87895   0.00000  Uiso   1.00
O702   O     0.25000   0.57155   0.78772   0.00000  Uiso   1.00
O703   O     0.25000   0.57155   0.87895   0.00000  Uiso   1.00
O704   O     0.25000   0.42845   0.78772   0.00000  Uiso   1.00
C705   C     0.25000   0.40599   0.83333   0.00000  Uiso   1.00
C706   C     0.25000   0.59401   0.83333   0.00000  Uiso   1.00
O707   O     0.18392   0.50000   0.87896   0.00000  Uiso   1.00
O708   O     0.31607   0.50000   0.78770   0.00000  Uiso   1.00
O709   O     0.31607   0.50000   0.87896   0.00000  Uiso   1.00
O710   O     0.18392   0.50000   0.78770   0.00000  Uiso   1.00
C711   C     0.16315   0.50000   0.83333   0.00000  Uiso   1.00
C712   C     0.33686   0.50000   0.83333   0.00000  Uiso   1.00
Zn713  Zn    0.25000   0.50000   0.89426   0.00000  Uiso   1.00
Zn714  Zn    0.25000   0.50000   0.77241   0.00000  Uiso   1.00
N715   N     0.25000   0.50000   0.69121   0.00000  Uiso   1.00
N716   N     0.25000   0.50000   0.97545   0.00000  Uiso   1.00
C717   C     0.40725   0.52060   0.78889   0.00000  Uiso   1.00
C718   C     0.09280   0.47867   0.87736   0.00000  Uiso   1.00
C719   C     0.40725   0.47940   0.87778   0.00000  Uiso   1.00
C720   C     0.09280   0.52134   0.78931   0.00000  Uiso   1.00
C721   C     0.38461   0.50000   0.83333   0.00000  Uiso   1.00
C722   C     0.11540   0.50000   0.83333   0.00000  Uiso   1.00
C723   C     0.45350   0.47860   0.87820   0.00000  Uiso   1.00
C724   C     0.04652   0.52198   0.78864   0.00000  Uiso   1.00
C725   C     0.45350   0.52140   0.78847   0.00000  Uiso   1.00
C726   C     0.04652   0.47803   0.87803   0.00000  Uiso   1.00
C727   C     0.47682   0.50000   0.83333   0.00000  Uiso   1.00
C728   C     0.02325   0.50000   0.83333   0.00000  Uiso   1.00
C729   C     0.47655   0.45652   0.92233   0.00000  Uiso   1.00
C730   C     0.02311   0.54420   0.74449   0.00000  Uiso   1.00
C731   C     0.47655   0.54349   0.74434   0.00000  Uiso   1.00
C732   C     0.02311   0.45581   0.92218   0.00000  Uiso   1.00
C733   C     0.24999   0.35506   0.83333   0.00000  Uiso   1.00
C734   C     0.24999   0.64494   0.83333   0.00000  Uiso   1.00
H735   H     0.38849   0.53670   0.75518   0.00000  Uiso   1.00
H736   H     0.11181   0.46214   0.91052   0.00000  Uiso   1.00
H737   H     0.38849   0.46329   0.91149   0.00000  Uiso   1.00
H738   H     0.11182   0.53787   0.75615   0.00000  Uiso   1.00
N739   N     0.45249   0.43429   0.96717   0.00000  Uiso   1.00
H740   H     0.46234   0.45165   0.67039   0.00000  Uiso   1.00
H741   H     0.46122   0.39658   0.96953   0.00000  Uiso   1.00
N742   N     0.04570   0.56841   0.69973   0.00000  Uiso   1.00
H743   H     0.06518   0.59742   0.71549   0.00000  Uiso   1.00
H744   H     0.06628   0.54261   0.67997   0.00000  Uiso   1.00
N745   N     0.45249   0.56571   0.69950   0.00000  Uiso   1.00
H746   H     0.46122   0.60343   0.69715   0.00000  Uiso   1.00
H747   H     0.46235   0.54836   0.99627   0.00000  Uiso   1.00
N748   N     0.04570   0.43161   0.96694   0.00000  Uiso   1.00
H749   H     0.06628   0.45741   0.98670   0.00000  Uiso   1.00
H750   H     0.06518   0.40260   0.95119   0.00000  Uiso   1.00
O751   O     0.75000   0.42845   0.87895   0.00000  Uiso   1.00
O752   O     0.75000   0.57155   0.78772   0.00000  Uiso   1.00
O753   O     0.75000   0.57155   0.87895   0.00000  Uiso   1.00
O754   O     0.75000   0.42845   0.78772   0.00000  Uiso   1.00
C755   C     0.75000   0.40599   0.83333   0.00000  Uiso   1.00
C756   C     0.75000   0.59401   0.83333   0.00000  Uiso   1.00
O757   O     0.68392   0.50000   0.87896   0.00000  Uiso   1.00
O758   O     0.81607   0.50000   0.78770   0.00000  Uiso   1.00
O759   O     0.81607   0.50000   0.87896   0.00000  Uiso   1.00
O760   O     0.68392   0.50000   0.78770   0.00000  Uiso   1.00
C761   C     0.66315   0.50000   0.83333   0.00000  Uiso   1.00
C762   C     0.83686   0.50000   0.83333   0.00000  Uiso   1.00
Zn763  Zn    0.75000   0.50000   0.89426   0.00000  Uiso   1.00
Zn764  Zn    0.75000   0.50000   0.77241   0.00000  Uiso   1.00
N765   N     0.75000   0.50000   0.69121   0.00000  Uiso   1.00
N766   N     0.75000   0.50000   0.97545   0.00000  Uiso   1.00
C767   C     0.90725   0.52060   0.78889   0.00000  Uiso   1.00
C768   C     0.59280   0.47867   0.87736   0.00000  Uiso   1.00
C769   C     0.90725   0.47940   0.87778   0.00000  Uiso   1.00
C770   C     0.59280   0.52134   0.78931   0.00000  Uiso   1.00
C771   C     0.88461   0.50000   0.83333   0.00000  Uiso   1.00
C772   C     0.61540   0.50000   0.83333   0.00000  Uiso   1.00
C773   C     0.95350   0.47860   0.87820   0.00000  Uiso   1.00
C774   C     0.54652   0.52198   0.78864   0.00000  Uiso   1.00
C775   C     0.95350   0.52140   0.78847   0.00000  Uiso   1.00
C776   C     0.54652   0.47803   0.87803   0.00000  Uiso   1.00
C777   C     0.97682   0.50000   0.83333   0.00000  Uiso   1.00
C778   C     0.52325   0.50000   0.83333   0.00000  Uiso   1.00
C779   C     0.97655   0.45652   0.92233   0.00000  Uiso   1.00
C780   C     0.52311   0.54420   0.74449   0.00000  Uiso   1.00
C781   C     0.97655   0.54349   0.74434   0.00000  Uiso   1.00
C782   C     0.52311   0.45581   0.92218   0.00000  Uiso   1.00
C783   C     0.74999   0.35506   0.83333   0.00000  Uiso   1.00
C784   C     0.74999   0.64494   0.83333   0.00000  Uiso   1.00
H785   H     0.88849   0.53670   0.75518   0.00000  Uiso   1.00
H786   H     0.61181   0.46214   0.91052   0.00000  Uiso   1.00
H787   H     0.88849   0.46329   0.91149   0.00000  Uiso   1.00
H788   H     0.61182   0.53787   0.75615   0.00000  Uiso   1.00
N789   N     0.95249   0.43429   0.96717   0.00000  Uiso   1.00
H790   H     0.96234   0.45165   0.67039   0.00000  Uiso   1.00
H791   H     0.96122   0.39658   0.96953   0.00000  Uiso   1.00
N792   N     0.54570   0.56841   0.69973   0.00000  Uiso   1.00
H793   H     0.56518   0.59742   0.71549   0.00000  Uiso   1.00
H794   H     0.56628   0.54261   0.67997   0.00000  Uiso   1.00
N795   N     0.95249   0.56571   0.69950   0.00000  Uiso   1.00
H796   H     0.96122   0.60343   0.69715   0.00000  Uiso   1.00
H797   H     0.96235   0.54836   0.99627   0.00000  Uiso   1.00
N798   N     0.54570   0.43161   0.96694   0.00000  Uiso   1.00
H799   H     0.56628   0.45741   0.98670   0.00000  Uiso   1.00
H800   H     0.56518   0.40260   0.95119   0.00000  Uiso   1.00
O801   O     0.25000   0.76178   0.87895   0.00000  Uiso   1.00
O802   O     0.25000   0.90488   0.78772   0.00000  Uiso   1.00
O803   O     0.25000   0.90488   0.87895   0.00000  Uiso   1.00
O804   O     0.25000   0.76178   0.78772   0.00000  Uiso   1.00
C805   C     0.25000   0.73933   0.83333   0.00000  Uiso   1.00
C806   C     0.25000   0.92734   0.83333   0.00000  Uiso   1.00
O807   O     0.18392   0.83333   0.87896   0.00000  Uiso   1.00
O808   O     0.31607   0.83333   0.78770   0.00000  Uiso   1.00
O809   O     0.31607   0.83333   0.87896   0.00000  Uiso   1.00
O810   O     0.18392   0.83333   0.78770   0.00000  Uiso   1.00
C811   C     0.16315   0.83333   0.83333   0.00000  Uiso   1.00
C812   C     0.33686   0.83333   0.83333   0.00000  Uiso   1.00
Zn813  Zn    0.25000   0.83333   0.89426   0.00000  Uiso   1.00
Zn814  Zn    0.25000   0.83333   0.77241   0.00000  Uiso   1.00
N815   N     0.25000   0.83333   0.69121   0.00000  Uiso   1.00
N816   N     0.25000   0.83333   0.97545   0.00000  Uiso   1.00
C817   C     0.40725   0.85393   0.78889   0.00000  Uiso   1.00
C818   C     0.09280   0.81200   0.87736   0.00000  Uiso   1.00
C819   C     0.40725   0.81273   0.87778   0.00000  Uiso   1.00
C820   C     0.09280   0.85467   0.78931   0.00000  Uiso   1.00
C821   C     0.38461   0.83333   0.83333   0.00000  Uiso   1.00
C822   C     0.11540   0.83334   0.83333   0.00000  Uiso   1.00
C823   C     0.45350   0.81193   0.87820   0.00000  Uiso   1.00
C824   C     0.04652   0.85531   0.78864   0.00000  Uiso   1.00
C825   C     0.45350   0.85473   0.78847   0.00000  Uiso   1.00
C826   C     0.04652   0.81136   0.87803   0.00000  Uiso   1.00
C827   C     0.47682   0.83333   0.83333   0.00000  Uiso   1.00
C828   C     0.02325   0.83334   0.83333   0.00000  Uiso   1.00
C829   C     0.47655   0.78985   0.92233   0.00000  Uiso   1.00
C830   C     0.02311   0.87753   0.74449   0.00000  Uiso   1.00
C831   C     0.47655   0.87682   0.74434   0.00000  Uiso   1.00
C832   C     0.02311   0.78914   0.92218   0.00000  Uiso   1.00
C833   C     0.24999   0.68840   0.83333   0.00000  Uiso   1.00
C834   C     0.24999   0.97827   0.83333   0.00000  Uiso   1.00
H835   H     0.38849   0.87004   0.75518   0.00000  Uiso   1.00
H836   H     0.11181   0.79547   0.91052   0.00000  Uiso   1.00
H837   H     0.38849   0.79663   0.91149   0.00000  Uiso   1.00
H838   H     0.11182   0.87120   0.75615   0.00000  Uiso   1.00
N839   N     0.45249   0.76763   0.96717   0.00000  Uiso   1.00
H840   H     0.46234   0.78499   0.67039   0.00000  Uiso   1.00
H841   H     0.46122   0.72991   0.96953   0.00000  Uiso   1.00
N842   N     0.04570   0.90174   0.69973   0.00000  Uiso   1.00
H843   H     0.06518   0.93075   0.71549   0.00000  Uiso   1.00
H844   H     0.06628   0.87594   0.67997   0.00000  Uiso   1.00
N845   N     0.45249   0.89905   0.69950   0.00000  Uiso   1.00
H846   H     0.46122   0.93676   0.69715   0.00000  Uiso   1.00
H847   H     0.46235   0.88169   0.99627   0.00000  Uiso   1.00
N848   N     0.04570   0.76494   0.96694   0.00000  Uiso   1.00
H849   H     0.06628   0.79074   0.98670   0.00000  Uiso   1.00
H850   H     0.06518   0.73593   0.95119   0.00000  Uiso   1.00
O851   O     0.75000   0.76178   0.87895   0.00000  Uiso   1.00
O852   O     0.75000   0.90488   0.78772   0.00000  Uiso   1.00
O853   O     0.75000   0.90488   0.87895   0.00000  Uiso   1.00
O854   O     0.75000   0.76178   0.78772   0.00000  Uiso   1.00
C855   C     0.75000   0.73933   0.83333   0.00000  Uiso   1.00
C856   C     0.75000   0.92734   0.83333   0.00000  Uiso   1.00
O857   O     0.68392   0.83333   0.87896   0.00000  Uiso   1.00
O858   O     0.81607   0.83333   0.78770   0.00000  Uiso   1.00
O859   O     0.81607   0.83333   0.87896   0.00000  Uiso   1.00
O860   O     0.68392   0.83333   0.78770   0.00000  Uiso   1.00
C861   C     0.66315   0.83333   0.83333   0.00000  Uiso   1.00
C862   C     0.83686   0.83333   0.83333   0.00000  Uiso   1.00
Zn863  Zn    0.75000   0.83333   0.89426   0.00000  Uiso   1.00
Zn864  Zn    0.75000   0.83333   0.77241   0.00000  Uiso   1.00
N865   N     0.75000   0.83333   0.69121   0.00000  Uiso   1.00
N866   N     0.75000   0.83333   0.97545   0.00000  Uiso   1.00
C867   C     0.90725   0.85393   0.78889   0.00000  Uiso   1.00
C868   C     0.59280   0.81200   0.87736   0.00000  Uiso   1.00
C869   C     0.90725   0.81273   0.87778   0.00000  Uiso   1.00
C870   C     0.59280   0.85467   0.78931   0.00000  Uiso   1.00
C871   C     0.88461   0.83333   0.83333   0.00000  Uiso   1.00
C872   C     0.61540   0.83334   0.83333   0.00000  Uiso   1.00
C873   C     0.95350   0.81193   0.87820   0.00000  Uiso   1.00
C874   C     0.54652   0.85531   0.78864   0.00000  Uiso   1.00
C875   C     0.95350   0.85473   0.78847   0.00000  Uiso   1.00
C876   C     0.54652   0.81136   0.87803   0.00000  Uiso   1.00
C877   C     0.97682   0.83333   0.83333   0.00000  Uiso   1.00
C878   C     0.52325   0.83334   0.83333   0.00000  Uiso   1.00
C879   C     0.97655   0.78985   0.92233   0.00000  Uiso   1.00
C880   C     0.52311   0.87753   0.74449   0.00000  Uiso   1.00
C881   C     0.97655   0.87682   0.74434   0.00000  Uiso   1.00
C882   C     0.52311   0.78914   0.92218   0.00000  Uiso   1.00
C883   C     0.74999   0.68840   0.83333   0.00000  Uiso   1.00
C884   C     0.74999   0.97827   0.83333   0.00000  Uiso   1.00
H885   H     0.88849   0.87004   0.75518   0.00000  Uiso   1.00
H886   H     0.61181   0.79547   0.91052   0.00000  Uiso   1.00
H887   H     0.88849   0.79663   0.91149   0.00000  Uiso   1.00
H888   H     0.61182   0.87120   0.75615   0.00000  Uiso   1.00
N889   N     0.95249   0.76763   0.96717   0.00000  Uiso   1.00
H890   H     0.96234   0.78499   0.67039   0.00000  Uiso   1.00
H891   H     0.96122   0.72991   0.96953   0.00000  Uiso   1.00
N892   N     0.54570   0.90174   0.69973   0.00000  Uiso   1.00
H893   H     0.56518   0.93075   0.71549   0.00000  Uiso   1.00
H894   H     0.56628   0.87594   0.67997   0.00000  Uiso   1.00
N895   N     0.95249   0.89905   0.69950   0.00000  Uiso   1.00
H896   H     0.96122   0.93676   0.69715   0.00000  Uiso   1.00
H897   H     0.96235   0.88169   0.99627   0.00000  Uiso   1.00
N898   N     0.54570   0.76494   0.96694   0.00000  Uiso   1.00
H899   H     0.56628   0.79074   0.98670   0.00000  Uiso   1.00
H900   H     0.56518   0.73593   0.95119   0.00000  Uiso   1.00
loop_
_geom_bond_atom_site_label_1
_geom_bond_atom_site_label_2
_geom_bond_distance
_geom_bond_site_symmetry_2
_ccdc_geom_bond_type
O1     C5      1.261   .     A
O1     Zn13    1.953   .     S
O2     C6      1.261   .     A
O2     Zn14    1.953   .     S
O3     Zn13    1.953   .     S
O3     C6      1.261   .     A
O4     Zn14    1.953   .     S
O4     C5      1.261   .     A
C5     C33     1.365   .     S
C6     C34     1.365   .     S
O7     C11     1.272   .     A
O7     Zn13    2.018   .     S
O8     C12     1.272   .     A
O8     Zn14    2.018   .     S
O9     C12     1.272   .     A
O9     Zn13    2.018   .     S
O10    C11     1.272   .     A
O10    Zn14    2.018   .     S
C11    C22     1.433   .     S
C12    C21     1.433   .     S
Zn13   N16     1.973   .     S
Zn14   N15     1.973   .     S
N15    N616    1.193   1_554 S
N16    N315    1.193   .     S
C17    C25     1.389   .     A
C17    H35     1.084   .     S
C17    C21     1.390   .     A
C18    C26     1.389   .     A
C18    C22     1.390   .     A
C18    H36     1.082   .     S
C19    C23     1.389   .     A
C19    H37     1.084   .     S
C19    C21     1.390   .     A
C20    H38     1.082   .     S
C20    C22     1.390   .     A
C20    C24     1.389   .     A
C23    C27     1.417   .     A
C23    C29     1.407   .     A
C24    C30     1.414   .     A
C24    C28     1.419   .     A
C25    C31     1.407   .     A
C25    C27     1.417   .     A
C26    C32     1.414   .     A
C26    C28     1.419   .     A
C27    C78     1.394   .     S
C28    C77     1.394   1_455 S
C29    N39     1.437   .     S
C29    C82     1.398   .     S
C30    N42     1.437   .     S
C30    C81     1.398   1_455 S
C31    N45     1.437   .     S
C31    C80     1.398   .     S
C32    N48     1.437   .     S
C32    C79     1.398   1_455 S
C33    C234    1.165   1_545 S
C34    C133    1.165   .     S
N39    H41     1.046   .     S
N39    H340    1.046   .     S
H40    N639    1.046   1_554 S
N42    H44     1.044   .     S
N42    H43     1.045   .     S
N45    H46     1.046   .     S
N45    H647    1.046   1_554 S
H47    N345    1.046   .     S
N48    H50     1.045   .     S
N48    H49     1.044   .     S
O51    C55     1.261   .     A
O51    Zn63    1.953   .     S
O52    C56     1.261   .     A
O52    Zn64    1.953   .     S
O53    Zn63    1.953   .     S
O53    C56     1.261   .     A
O54    Zn64    1.953   .     S
O54    C55     1.261   .     A
C55    C83     1.365   .     S
C56    C84     1.365   .     S
O57    C61     1.272   .     A
O57    Zn63    2.018   .     S
O58    C62     1.272   .     A
O58    Zn64    2.018   .     S
O59    C62     1.272   .     A
O59    Zn63    2.018   .     S
O60    C61     1.272   .     A
O60    Zn64    2.018   .     S
C61    C72     1.433   .     S
C62    C71     1.433   .     S
Zn63   N66     1.973   .     S
Zn64   N65     1.973   .     S
N65    N666    1.193   1_554 S
N66    N365    1.193   .     S
C67    C75     1.389   .     A
C67    H85     1.084   .     S
C67    C71     1.390   .     A
C68    C76     1.389   .     A
C68    C72     1.390   .     A
C68    H86     1.082   .     S
C69    C73     1.389   .     A
C69    H87     1.084   .     S
C69    C71     1.390   .     A
C70    H88     1.082   .     S
C70    C72     1.390   .     A
C70    C74     1.389   .     A
C73    C77     1.417   .     A
C73    C79     1.407   .     A
C74    C80     1.414   .     A
C74    C78     1.419   .     A
C75    C81     1.407   .     A
C75    C77     1.417   .     A
C76    C82     1.414   .     A
C76    C78     1.419   .     A
C77    C28     1.394   1_655 S
C79    N89     1.437   .     S
C79    C32     1.398   1_655 S
C80    N92     1.437   .     S
C81    N95     1.437   .     S
C81    C30     1.398   1_655 S
C82    N98     1.437   .     S
C83    C284    1.165   1_545 S
C84    C183    1.165   .     S
N89    H91     1.046   .     S
N89    H390    1.046   .     S
H90    N689    1.046   1_554 S
N92    H94     1.044   .     S
N92    H93     1.045   .     S
N95    H96     1.046   .     S
N95    H697    1.046   1_554 S
H97    N395    1.046   .     S
N98    H100    1.045   .     S
N98    H99     1.044   .     S
O101   C105    1.261   .     A
O101   Zn113   1.953   .     S
O102   C106    1.261   .     A
O102   Zn114   1.953   .     S
O103   Zn113   1.953   .     S
O103   C106    1.261   .     A
O104   Zn114   1.953   .     S
O104   C105    1.261   .     A
C105   C133    1.365   .     S
C106   C134    1.365   .     S
O107   C111    1.272   .     A
O107   Zn113   2.018   .     S
O108   C112    1.272   .     A
O108   Zn114   2.018   .     S
O109   C112    1.272   .     A
O109   Zn113   2.018   .     S
O110   C111    1.272   .     A
O110   Zn114   2.018   .     S
C111   C122    1.433   .     S
C112   C121    1.433   .     S
Zn113  N116    1.973   .     S
Zn114  N115    1.973   .     S
N115   N716    1.193   1_554 S
N116   N415    1.193   .     S
C117   C125    1.389   .     A
C117   H135    1.084   .     S
C117   C121    1.390   .     A
C118   C126    1.389   .     A
C118   C122    1.390   .     A
C118   H136    1.082   .     S
C119   C123    1.389   .     A
C119   H137    1.084   .     S
C119   C121    1.390   .     A
C120   H138    1.082   .     S
C120   C122    1.390   .     A
C120   C124    1.389   .     A
C123   C127    1.417   .     A
C123   C129    1.407   .     A
C124   C130    1.414   .     A
C124   C128    1.419   .     A
C125   C131    1.407   .     A
C125   C127    1.417   .     A
C126   C132    1.414   .     A
C126   C128    1.419   .     A
C127   C178    1.394   .     S
C128   C177    1.394   1_455 S
C129   N139    1.437   .     S
C129   C182    1.398   .     S
C130   N142    1.437   .     S
C130   C181    1.398   1_455 S
C131   N145    1.437   .     S
C131   C180    1.398   .     S
C132   N148    1.437   .     S
C132   C179    1.398   1_455 S
C134   C233    1.165   .     S
N139   H141    1.046   .     S
N139   H440    1.046   .     S
H140   N739    1.046   1_554 S
N142   H144    1.044   .     S
N142   H143    1.045   .     S
N145   H146    1.046   .     S
N145   H747    1.046   1_554 S
H147   N445    1.046   .     S
N148   H150    1.045   .     S
N148   H149    1.044   .     S
O151   C155    1.261   .     A
O151   Zn163   1.953   .     S
O152   C156    1.261   .     A
O152   Zn164   1.953   .     S
O153   Zn163   1.953   .     S
O153   C156    1.261   .     A
O154   Zn164   1.953   .     S
O154   C155    1.261   .     A
C155   C183    1.365   .     S
C156   C184    1.365   .     S
O157   C161    1.272   .     A
O157   Zn163   2.018   .     S
O158   C162    1.272   .     A
O158   Zn164   2.018   .     S
O159   C162    1.272   .     A
O159   Zn163   2.018   .     S
O160   C161    1.272   .     A
O160   Zn164   2.018   .     S
C161   C172    1.433   .     S
C162   C171    1.433   .     S
Zn163  N166    1.973   .     S
Zn164  N165    1.973   .     S
N165   N766    1.193   1_554 S
N166   N465    1.193   .     S
C167   C175    1.389   .     A
C167   H185    1.084   .     S
C167   C171    1.390   .     A
C168   C176    1.389   .     A
C168   C172    1.390   .     A
C168   H186    1.082   .     S
C169   C173    1.389   .     A
C169   H187    1.084   .     S
C169   C171    1.390   .     A
C170   H188    1.082   .     S
C170   C172    1.390   .     A
C170   C174    1.389   .     A
C173   C177    1.417   .     A
C173   C179    1.407   .     A
C174   C180    1.414   .     A
C174   C178    1.419   .     A
C175   C181    1.407   .     A
C175   C177    1.417   .     A
C176   C182    1.414   .     A
C176   C178    1.419   .     A
C177   C128    1.394   1_655 S
C179   N189    1.437   .     S
C179   C132    1.398   1_655 S
C180   N192    1.437   .     S
C181   N195    1.437   .     S
C181   C130    1.398   1_655 S
C182   N198    1.437   .     S
C184   C283    1.165   .     S
N189   H191    1.046   .     S
N189   H490    1.046   .     S
H190   N789    1.046   1_554 S
N192   H194    1.044   .     S
N192   H193    1.045   .     S
N195   H196    1.046   .     S
N195   H797    1.046   1_554 S
H197   N495    1.046   .     S
N198   H200    1.045   .     S
N198   H199    1.044   .     S
O201   C205    1.261   .     A
O201   Zn213   1.953   .     S
O202   C206    1.261   .     A
O202   Zn214   1.953   .     S
O203   Zn213   1.953   .     S
O203   C206    1.261   .     A
O204   Zn214   1.953   .     S
O204   C205    1.261   .     A
C205   C233    1.365   .     S
C206   C234    1.365   .     S
O207   C211    1.272   .     A
O207   Zn213   2.018   .     S
O208   C212    1.272   .     A
O208   Zn214   2.018   .     S
O209   C212    1.272   .     A
O209   Zn213   2.018   .     S
O210   C211    1.272   .     A
O210   Zn214   2.018   .     S
C211   C222    1.433   .     S
C212   C221    1.433   .     S
Zn213  N216    1.973   .     S
Zn214  N215    1.973   .     S
N215   N816    1.193   1_554 S
N216   N515    1.193   .     S
C217   C225    1.389   .     A
C217   H235    1.084   .     S
C217   C221    1.390   .     A
C218   C226    1.389   .     A
C218   C222    1.390   .     A
C218   H236    1.082   .     S
C219   C223    1.389   .     A
C219   H237    1.084   .     S
C219   C221    1.390   .     A
C220   H238    1.082   .     S
C220   C222    1.390   .     A
C220   C224    1.389   .     A
C223   C227    1.417   .     A
C223   C229    1.407   .     A
C224   C230    1.414   .     A
C224   C228    1.419   .     A
C225   C231    1.407   .     A
C225   C227    1.417   .     A
C226   C232    1.414   .     A
C226   C228    1.419   .     A
C227   C278    1.394   .     S
C228   C277    1.394   1_455 S
C229   N239    1.437   .     S
C229   C282    1.398   .     S
C230   N242    1.437   .     S
C230   C281    1.398   1_455 S
C231   N245    1.437   .     S
C231   C280    1.398   .     S
C232   N248    1.437   .     S
C232   C279    1.398   1_455 S
C234   C33     1.165   1_565 S
N239   H241    1.046   .     S
N239   H540    1.046   .     S
H240   N839    1.046   1_554 S
N242   H244    1.044   .     S
N242   H243    1.045   .     S
N245   H246    1.046   .     S
N245   H847    1.046   1_554 S
H247   N545    1.046   .     S
N248   H250    1.045   .     S
N248   H249    1.044   .     S
O251   C255    1.261   .     A
O251   Zn263   1.953   .     S
O252   C256    1.261   .     A
O252   Zn264   1.953   .     S
O253   Zn263   1.953   .     S
O253   C256    1.261   .     A
O254   Zn264   1.953   .     S
O254   C255    1.261   .     A
C255   C283    1.365   .     S
C256   C284    1.365   .     S
O257   C261    1.272   .     A
O257   Zn263   2.018   .     S
O258   C262    1.272   .     A
O258   Zn264   2.018   .     S
O259   C262    1.272   .     A
O259   Zn263   2.018   .     S
O260   C261    1.272   .     A
O260   Zn264   2.018   .     S
C261   C272    1.433   .     S
C262   C271    1.433   .     S
Zn263  N266    1.973   .     S
Zn264  N265    1.973   .     S
N265   N866    1.193   1_554 S
N266   N565    1.193   .     S
C267   C275    1.389   .     A
C267   H285    1.084   .     S
C267   C271    1.390   .     A
C268   C276    1.389   .     A
C268   C272    1.390   .     A
C268   H286    1.082   .     S
C269   C273    1.389   .     A
C269   H287    1.084   .     S
C269   C271    1.390   .     A
C270   H288    1.082   .     S
C270   C272    1.390   .     A
C270   C274    1.389   .     A
C273   C277    1.417   .     A
C273   C279    1.407   .     A
C274   C280    1.414   .     A
C274   C278    1.419   .     A
C275   C281    1.407   .     A
C275   C277    1.417   .     A
C276   C282    1.414   .     A
C276   C278    1.419   .     A
C277   C228    1.394   1_655 S
C279   N289    1.437   .     S
C279   C232    1.398   1_655 S
C280   N292    1.437   .     S
C281   N295    1.437   .     S
C281   C230    1.398   1_655 S
C282   N298    1.437   .     S
C284   C83     1.165   1_565 S
N289   H291    1.046   .     S
N289   H590    1.046   .     S
H290   N889    1.046   1_554 S
N292   H294    1.044   .     S
N292   H293    1.045   .     S
N295   H296    1.046   .     S
N295   H897    1.046   1_554 S
H297   N595    1.046   .     S
N298   H300    1.045   .     S
N298   H299    1.044   .     S
O301   C305    1.261   .     A
O301   Zn313   1.953   .     S
O302   C306    1.261   .     A
O302   Zn314   1.953   .     S
O303   Zn313   1.953   .     S
O303   C306    1.261   .     A
O304   Zn314   1.953   .     S
O304   C305    1.261   .     A
C305   C333    1.365   .     S
C306   C334    1.365   .     S
O307   C311    1.272   .     A
O307   Zn313   2.018   .     S
O308   C312    1.272   .     A
O308   Zn314   2.018   .     S
O309   C312    1.272   .     A
O309   Zn313   2.018   .     S
O310   C311    1.272   .     A
O310   Zn314   2.018   .     S
C311   C322    1.433   .     S
C312   C321    1.433   .     S
Zn313  N316    1.973   .     S
Zn314  N315    1.973   .     S
N316   N615    1.193   .     S
C317   C325    1.389   .     A
C317   H335    1.084   .     S
C317   C321    1.390   .     A
C318   C326    1.389   .     A
C318   C322    1.390   .     A
C318   H336    1.082   .     S
C319   C323    1.389   .     A
C319   H337    1.084   .     S
C319   C321    1.390   .     A
C320   H338    1.082   .     S
C320   C322    1.390   .     A
C320   C324    1.389   .     A
C323   C327    1.417   .     A
C323   C329    1.407   .     A
C324   C330    1.414   .     A
C324   C328    1.419   .     A
C325   C331    1.407   .     A
C325   C327    1.417   .     A
C326   C332    1.414   .     A
C326   C328    1.419   .     A
C327   C378    1.394   .     S
C328   C377    1.394   1_455 S
C329   N339    1.437   .     S
C329   C382    1.398   .     S
C330   N342    1.437   .     S
C330   C381    1.398   1_455 S
C331   N345    1.437   .     S
C331   C380    1.398   .     S
C332   N348    1.437   .     S
C332   C379    1.398   1_455 S
C333   C534    1.165   1_545 S
C334   C433    1.165   .     S
N339   H341    1.046   .     S
N339   H640    1.046   .     S
N342   H344    1.044   .     S
N342   H343    1.045   .     S
N345   H346    1.046   .     S
H347   N645    1.046   .     S
N348   H350    1.045   .     S
N348   H349    1.044   .     S
O351   C355    1.261   .     A
O351   Zn363   1.953   .     S
O352   C356    1.261   .     A
O352   Zn364   1.953   .     S
O353   Zn363   1.953   .     S
O353   C356    1.261   .     A
O354   Zn364   1.953   .     S
O354   C355    1.261   .     A
C355   C383    1.365   .     S
C356   C384    1.365   .     S
O357   C361    1.272   .     A
O357   Zn363   2.018   .     S
O358   C362    1.272   .     A
O358   Zn364   2.018   .     S
O359   C362    1.272   .     A
O359   Zn363   2.018   .     S
O360   C361    1.272   .     A
O360   Zn364   2.018   .     S
C361   C372    1.433   .     S
C362   C371    1.433   .     S
Zn363  N366    1.973   .     S
Zn364  N365    1.973   .     S
N366   N665    1.193   .     S
C367   C375    1.389   .     A
C367   H385    1.084   .     S
C367   C371    1.390   .     A
C368   C376    1.389   .     A
C368   C372    1.390   .     A
C368   H386    1.082   .     S
C369   C373    1.389   .     A
C369   H387    1.084   .     S
C369   C371    1.390   .     A
C370   H388    1.082   .     S
C370   C372    1.390   .     A
C370   C374    1.389   .     A
C373   C377    1.417   .     A
C373   C379    1.407   .     A
C374   C380    1.414   .     A
C374   C378    1.419   .     A
C375   C381    1.407   .     A
C375   C377    1.417   .     A
C376   C382    1.414   .     A
C376   C378    1.419   .     A
C377   C328    1.394   1_655 S
C379   N389    1.437   .     S
C379   C332    1.398   1_655 S
C380   N392    1.437   .     S
C381   N395    1.437   .     S
C381   C330    1.398   1_655 S
C382   N398    1.437   .     S
C383   C584    1.165   1_545 S
C384   C483    1.165   .     S
N389   H391    1.046   .     S
N389   H690    1.046   .     S
N392   H394    1.044   .     S
N392   H393    1.045   .     S
N395   H396    1.046   .     S
H397   N695    1.046   .     S
N398   H400    1.045   .     S
N398   H399    1.044   .     S
O401   C405    1.261   .     A
O401   Zn413   1.953   .     S
O402   C406    1.261   .     A
O402   Zn414   1.953   .     S
O403   Zn413   1.953   .     S
O403   C406    1.261   .     A
O404   Zn414   1.953   .     S
O404   C405    1.261   .     A
C405   C433    1.365   .     S
C406   C434    1.365   .     S
O407   C411    1.272   .     A
O407   Zn413   2.018   .     S
O408   C412    1.272   .     A
O408   Zn414   2.018   .     S
O409   C412    1.272   .     A
O409   Zn413   2.018   .     S
O410   C411    1.272   .     A
O410   Zn414   2.018   .     S
C411   C422    1.433   .     S
C412   C421    1.433   .     S
Zn413  N416    1.973   .     S
Zn414  N415    1.973   .     S
N416   N715    1.193   .     S
C417   C425    1.389   .     A
C417   H435    1.084   .     S
C417   C421    1.390   .     A
C418   C426    1.389   .     A
C418   C422    1.390   .     A
C418   H436    1.082   .     S
C419   C423    1.389   .     A
C419   H437    1.084   .     S
C419   C421    1.390   .     A
C420   H438    1.082   .     S
C420   C422    1.390   .     A
C420   C424    1.389   .     A
C423   C427    1.417   .     A
C423   C429    1.407   .     A
C424   C430    1.414   .     A
C424   C428    1.419   .     A
C425   C431    1.407   .     A
C425   C427    1.417   .     A
C426   C432    1.414   .     A
C426   C428    1.419   .     A
C427   C478    1.394   .     S
C428   C477    1.394   1_455 S
C429   N439    1.437   .     S
C429   C482    1.398   .     S
C430   N442    1.437   .     S
C430   C481    1.398   1_455 S
C431   N445    1.437   .     S
C431   C480    1.398   .     S
C432   N448    1.437   .     S
C432   C479    1.398   1_455 S
C434   C533    1.165   .     S
N439   H441    1.046   .     S
N439   H740    1.046   .     S
N442   H444    1.044   .     S
N442   H443    1.045   .     S
N445   H446    1.046   .     S
H447   N745    1.046   .     S
N448   H450    1.045   .     S
N448   H449    1.044   .     S
O451   C455    1.261   .     A
O451   Zn463   1.953   .     S
O452   C456    1.261   .     A
O452   Zn464   1.953   .     S
O453   Zn463   1.953   .     S
O453   C456    1.261   .     A
O454   Zn464   1.953   .     S
O454   C455    1.261   .     A
C455   C483    1.365   .     S
C456   C484    1.365   .     S
O457   C461    1.272   .     A
O457   Zn463   2.018   .     S
O458   C462    1.272   .     A
O458   Zn464   2.018   .     S
O459   C462    1.272   .     A
O459   Zn463   2.018   .     S
O460   C461    1.272   .     A
O460   Zn464   2.018   .     S
C461   C472    1.433   .     S
C462   C471    1.433   .     S
Zn463  N466    1.973   .     S
Zn464  N465    1.973   .     S
N466   N765    1.193   .     S
C467   C475    1.389   .     A
C467   H485    1.084   .     S
C467   C471    1.390   .     A
C468   C476    1.389   .     A
C468   C472    1.390   .     A
C468   H486    1.082   .     S
C469   C473    1.389   .     A
C469   H487    1.084   .     S
C469   C471    1.390   .     A
C470   H488    1.082   .     S
C470   C472    1.390   .     A
C470   C474    1.389   .     A
C473   C477    1.417   .     A
C473   C479    1.407   .     A
C474   C480    1.414   .     A
C474   C478    1.419   .     A
C475   C481    1.407   .     A
C475   C477    1.417   .     A
C476   C482    1.414   .     A
C476   C478    1.419   .     A
C477   C428    1.394   1_655 S
C479   N489    1.437   .     S
C479   C432    1.398   1_655 S
C480   N492    1.437   .     S
C481   N495    1.437   .     S
C481   C430    1.398   1_655 S
C482   N498    1.437   .     S
C484   C583    1.165   .     S
N489   H491    1.046   .     S
N489   H790    1.046   .     S
N492   H494    1.044   .     S
N492   H493    1.045   .     S
N495   H496    1.046   .     S
H497   N795    1.046   .     S
N498   H500    1.045   .     S
N498   H499    1.044   .     S
O501   C505    1.261   .     A
O501   Zn513   1.953   .     S
O502   C506    1.261   .     A
O502   Zn514   1.953   .     S
O503   Zn513   1.953   .     S
O503   C506    1.261   .     A
O504   Zn514   1.953   .     S
O504   C505    1.261   .     A
C505   C533    1.365   .     S
C506   C534    1.365   .     S
O507   C511    1.272   .     A
O507   Zn513   2.018   .     S
O508   C512    1.272   .     A
O508   Zn514   2.018   .     S
O509   C512    1.272   .     A
O509   Zn513   2.018   .     S
O510   C511    1.272   .     A
O510   Zn514   2.018   .     S
C511   C522    1.433   .     S
C512   C521    1.433   .     S
Zn513  N516    1.973   .     S
Zn514  N515    1.973   .     S
N516   N815    1.193   .     S
C517   C525    1.389   .     A
C517   H535    1.084   .     S
C517   C521    1.390   .     A
C518   C526    1.389   .     A
C518   C522    1.390   .     A
C518   H536    1.082   .     S
C519   C523    1.389   .     A
C519   H537    1.084   .     S
C519   C521    1.390   .     A
C520   H538    1.082   .     S
C520   C522    1.390   .     A
C520   C524    1.389   .     A
C523   C527    1.417   .     A
C523   C529    1.407   .     A
C524   C530    1.414   .     A
C524   C528    1.419   .     A
C525   C531    1.407   .     A
C525   C527    1.417   .     A
C526   C532    1.414   .     A
C526   C528    1.419   .     A
C527   C578    1.394   .     S
C528   C577    1.394   1_455 S
C529   N539    1.437   .     S
C529   C582    1.398   .     S
C530   N542    1.437   .     S
C530   C581    1.398   1_455 S
C531   N545    1.437   .     S
C531   C580    1.398   .     S
C532   N548    1.437   .     S
C532   C579    1.398   1_455 S
C534   C333    1.165   1_565 S
N539   H541    1.046   .     S
N539   H840    1.046   .     S
N542   H544    1.044   .     S
N542   H543    1.045   .     S
N545   H546    1.046   .     S
H547   N845    1.046   .     S
N548   H550    1.045   .     S
N548   H549    1.044   .     S
O551   C555    1.261   .     A
O551   Zn563   1.953   .     S
O552   C556    1.261   .     A
O552   Zn564   1.953   .     S
O553   Zn563   1.953   .     S
O553   C556    1.261   .     A
O554   Zn564   1.953   .     S
O554   C555    1.261   .     A
C555   C583    1.365   .     S
C556   C584    1.365   .     S
O557   C561    1.272   .     A
O557   Zn563   2.018   .     S
O558   C562    1.272   .     A
O558   Zn564   2.018   .     S
O559   C562    1.272   .     A
O559   Zn563   2.018   .     S
O560   C561    1.272   .     A
O560   Zn564   2.018   .     S
C561   C572    1.433   .     S
C562   C571    1.433   .     S
Zn563  N566    1.973   .     S
Zn564  N565    1.973   .     S
N566   N865    1.193   .     S
C567   C575    1.389   .     A
C567   H585    1.084   .     S
C567   C571    1.390   .     A
C568   C576    1.389   .     A
C568   C572    1.390   .     A
C568   H586    1.082   .     S
C569   C573    1.389   .     A
C569   H587    1.084   .     S
C569   C571    1.390   .     A
C570   H588    1.082   .     S
C570   C572    1.390   .     A
C570   C574    1.389   .     A
C573   C577    1.417   .     A
C573   C579    1.407   .     A
C574   C580    1.414   .     A
C574   C578    1.419   .     A
C575   C581    1.407   .     A
C575   C577    1.417   .     A
C576   C582    1.414   .     A
C576   C578    1.419   .     A
C577   C528    1.394   1_655 S
C579   N589    1.437   .     S
C579   C532    1.398   1_655 S
C580   N592    1.437   .     S
C581   N595    1.437   .     S
C581   C530    1.398   1_655 S
C582   N598    1.437   .     S
C584   C383    1.165   1_565 S
N589   H591    1.046   .     S
N589   H890    1.046   .     S
N592   H594    1.044   .     S
N592   H593    1.045   .     S
N595   H596    1.046   .     S
H597   N895    1.046   .     S
N598   H600    1.045   .     S
N598   H599    1.044   .     S
O601   C605    1.261   .     A
O601   Zn613   1.953   .     S
O602   C606    1.261   .     A
O602   Zn614   1.953   .     S
O603   Zn613   1.953   .     S
O603   C606    1.261   .     A
O604   Zn614   1.953   .     S
O604   C605    1.261   .     A
C605   C633    1.365   .     S
C606   C634    1.365   .     S
O607   C611    1.272   .     A
O607   Zn613   2.018   .     S
O608   C612    1.272   .     A
O608   Zn614   2.018   .     S
O609   C612    1.272   .     A
O609   Zn613   2.018   .     S
O610   C611    1.272   .     A
O610   Zn614   2.018   .     S
C611   C622    1.433   .     S
C612   C621    1.433   .     S
Zn613  N616    1.973   .     S
Zn614  N615    1.973   .     S
N616   N15     1.193   1_556 S
C617   C625    1.389   .     A
C617   H635    1.084   .     S
C617   C621    1.390   .     A
C618   C626    1.389   .     A
C618   C622    1.390   .     A
C618   H636    1.082   .     S
C619   C623    1.389   .     A
C619   H637    1.084   .     S
C619   C621    1.390   .     A
C620   H638    1.082   .     S
C620   C622    1.390   .     A
C620   C624    1.389   .     A
C623   C627    1.417   .     A
C623   C629    1.407   .     A
C624   C630    1.414   .     A
C624   C628    1.419   .     A
C625   C631    1.407   .     A
C625   C627    1.417   .     A
C626   C632    1.414   .     A
C626   C628    1.419   .     A
C627   C678    1.394   .     S
C628   C677    1.394   1_455 S
C629   N639    1.437   .     S
C629   C682    1.398   .     S
C630   N642    1.437   .     S
C630   C681    1.398   1_455 S
C631   N645    1.437   .     S
C631   C680    1.398   .     S
C632   N648    1.437   .     S
C632   C679    1.398   1_455 S
C633   C834    1.165   1_545 S
C634   C733    1.165   .     S
N639   H641    1.046   .     S
N639   H40     1.046   1_556 S
N642   H644    1.044   .     S
N642   H643    1.045   .     S
N645   H646    1.046   .     S
H647   N45     1.046   1_556 S
N648   H650    1.045   .     S
N648   H649    1.044   .     S
O651   C655    1.261   .     A
O651   Zn663   1.953   .     S
O652   C656    1.261   .     A
O652   Zn664   1.953   .     S
O653   Zn663   1.953   .     S
O653   C656    1.261   .     A
O654   Zn664   1.953   .     S
O654   C655    1.261   .     A
C655   C683    1.365   .     S
C656   C684    1.365   .     S
O657   C661    1.272   .     A
O657   Zn663   2.018   .     S
O658   C662    1.272   .     A
O658   Zn664   2.018   .     S
O659   C662    1.272   .     A
O659   Zn663   2.018   .     S
O660   C661    1.272   .     A
O660   Zn664   2.018   .     S
C661   C672    1.433   .     S
C662   C671    1.433   .     S
Zn663  N666    1.973   .     S
Zn664  N665    1.973   .     S
N666   N65     1.193   1_556 S
C667   C675    1.389   .     A
C667   H685    1.084   .     S
C667   C671    1.390   .     A
C668   C676    1.389   .     A
C668   C672    1.390   .     A
C668   H686    1.082   .     S
C669   C673    1.389   .     A
C669   H687    1.084   .     S
C669   C671    1.390   .     A
C670   H688    1.082   .     S
C670   C672    1.390   .     A
C670   C674    1.389   .     A
C673   C677    1.417   .     A
C673   C679    1.407   .     A
C674   C680    1.414   .     A
C674   C678    1.419   .     A
C675   C681    1.407   .     A
C675   C677    1.417   .     A
C676   C682    1.414   .     A
C676   C678    1.419   .     A
C677   C628    1.394   1_655 S
C679   N689    1.437   .     S
C679   C632    1.398   1_655 S
C680   N692    1.437   .     S
C681   N695    1.437   .     S
C681   C630    1.398   1_655 S
C682   N698    1.437   .     S
C683   C884    1.165   1_545 S
C684   C783    1.165   .     S
N689   H691    1.046   .     S
N689   H90     1.046   1_556 S
N692   H694    1.044   .     S
N692   H693    1.045   .     S
N695   H696    1.046   .     S
H697   N95     1.046   1_556 S
N698   H700    1.045   .     S
N698   H699    1.044   .     S
O701   C705    1.261   .     A
O701   Zn713   1.953   .     S
O702   C706    1.261   .     A
O702   Zn714   1.953   .     S
O703   Zn713   1.953   .     S
O703   C706    1.261   .     A
O704   Zn714   1.953   .     S
O704   C705    1.261   .     A
C705   C733    1.365   .     S
C706   C734    1.365   .     S
O707   C711    1.272   .     A
O707   Zn713   2.018   .     S
O708   C712    1.272   .     A
O708   Zn714   2.018   .     S
O709   C712    1.272   .     A
O709   Zn713   2.018   .     S
O710   C711    1.272   .     A
O710   Zn714   2.018   .     S
C711   C722    1.433   .     S
C712   C721    1.433   .     S
Zn713  N716    1.973   .     S
Zn714  N715    1.973   .     S
N716   N115    1.193   1_556 S
C717   C725    1.389   .     A
C717   H735    1.084   .     S
C717   C721    1.390   .     A
C718   C726    1.389   .     A
C718   C722    1.390   .     A
C718   H736    1.082   .     S
C719   C723    1.389   .     A
C719   H737    1.084   .     S
C719   C721    1.390   .     A
C720   H738    1.082   .     S
C720   C722    1.390   .     A
C720   C724    1.389   .     A
C723   C727    1.417   .     A
C723   C729    1.407   .     A
C724   C730    1.414   .     A
C724   C728    1.419   .     A
C725   C731    1.407   .     A
C725   C727    1.417   .     A
C726   C732    1.414   .     A
C726   C728    1.419   .     A
C727   C778    1.394   .     S
C728   C777    1.394   1_455 S
C729   N739    1.437   .     S
C729   C782    1.398   .     S
C730   N742    1.437   .     S
C730   C781    1.398   1_455 S
C731   N745    1.437   .     S
C731   C780    1.398   .     S
C732   N748    1.437   .     S
C732   C779    1.398   1_455 S
C734   C833    1.165   .     S
N739   H741    1.046   .     S
N739   H140    1.046   1_556 S
N742   H744    1.044   .     S
N742   H743    1.045   .     S
N745   H746    1.046   .     S
H747   N145    1.046   1_556 S
N748   H750    1.045   .     S
N748   H749    1.044   .     S
O751   C755    1.261   .     A
O751   Zn763   1.953   .     S
O752   C756    1.261   .     A
O752   Zn764   1.953   .     S
O753   Zn763   1.953   .     S
O753   C756    1.261   .     A
O754   Zn764   1.953   .     S
O754   C755    1.261   .     A
C755   C783    1.365   .     S
C756   C784    1.365   .     S
O757   C761    1.272   .     A
O757   Zn763   2.018   .     S
O758   C762    1.272   .     A
O758   Zn764   2.018   .     S
O759   C762    1.272   .     A
O759   Zn763   2.018   .     S
O760   C761    1.272   .     A
O760   Zn764   2.018   .     S
C761   C772    1.433   .     S
C762   C771    1.433   .     S
Zn763  N766    1.973   .     S
Zn764  N765    1.973   .     S
N766   N165    1.193   1_556 S
C767   C775    1.389   .     A
C767   H785    1.084   .     S
C767   C771    1.390   .     A
C768   C776    1.389   .     A
C768   C772    1.390   .     A
C768   H786    1.082   .     S
C769   C773    1.389   .     A
C769   H787    1.084   .     S
C769   C771    1.390   .     A
C770   H788    1.082   .     S
C770   C772    1.390   .     A
C770   C774    1.389   .     A
C773   C777    1.417   .     A
C773   C779    1.407   .     A
C774   C780    1.414   .     A
C774   C778    1.419   .     A
C775   C781    1.407   .     A
C775   C777    1.417   .     A
C776   C782    1.414   .     A
C776   C778    1.419   .     A
C777   C728    1.394   1_655 S
C779   N789    1.437   .     S
C779   C732    1.398   1_655 S
C780   N792    1.437   .     S
C781   N795    1.437   .     S
C781   C730    1.398   1_655 S
C782   N798    1.437   .     S
C784   C883    1.165   .     S
N789   H791    1.046   .     S
N789   H190    1.046   1_556 S
N792   H794    1.044   .     S
N792   H793    1.045   .     S
N795   H796    1.046   .     S
H797   N195    1.046   1_556 S
N798   H800    1.045   .     S
N798   H799    1.044   .     S
O801   C805    1.261   .     A
O801   Zn813   1.953   .     S
O802   C806    1.261   .     A
O802   Zn814   1.953   .     S
O803   Zn813   1.953   .     S
O803   C806    1.261   .     A
O804   Zn814   1.953   .     S
O804   C805    1.261   .     A
C805   C833    1.365   .     S
C806   C834    1.365   .     S
O807   C811    1.272   .     A
O807   Zn813   2.018   .     S
O808   C812    1.272   .     A
O808   Zn814   2.018   .     S
O809   C812    1.272   .     A
O809   Zn813   2.018   .     S
O810   C811    1.272   .     A
O810   Zn814   2.018   .     S
C811   C822    1.433   .     S
C812   C821    1.433   .     S
Zn813  N816    1.973   .     S
Zn814  N815    1.973   .     S
N816   N215    1.193   1_556 S
C817   C825    1.389   .     A
C817   H835    1.084   .     S
C817   C821    1.390   .     A
C818   C826    1.389   .     A
C818   C822    1.390   .     A
C818   H836    1.082   .     S
C819   C823    1.389   .     A
C819   H837    1.084   .     S
C819   C821    1.390   .     A
C820   H838    1.082   .     S
C820   C822    1.390   .     A
C820   C824    1.389   .     A
C823   C827    1.417   .     A
C823   C829    1.407   .     A
C824   C830    1.414   .     A
C824   C828    1.419   .     A
C825   C831    1.407   .     A
C825   C827    1.417   .     A
C826   C832    1.414   .     A
C826   C828    1.419   .     A
C827   C878    1.394   .     S
C828   C877    1.394   1_455 S
C829   N839    1.437   .     S
C829   C882    1.398   .     S
C830   N842    1.437   .     S
C830   C881    1.398   1_455 S
C831   N845    1.437   .     S
C831   C880    1.398   .     S
C832   N848    1.437   .     S
C832   C879    1.398   1_455 S
C834   C633    1.165   1_565 S
N839   H841    1.046   .     S
N839   H240    1.046   1_556 S
N842   H844    1.044   .     S
N842   H843    1.045   .     S
N845   H846    1.046   .     S
H847   N245    1.046   1_556 S
N848   H850    1.045   .     S
N848   H849    1.044   .     S
O851   C855    1.261   .     A
O851   Zn863   1.953   .     S
O852   C856    1.261   .     A
O852   Zn864   1.953   .     S
O853   Zn863   1.953   .     S
O853   C856    1.261   .     A
O854   Zn864   1.953   .     S
O854   C855    1.261   .     A
C855   C883    1.365   .     S
C856   C884    1.365   .     S
O857   C861    1.272   .     A
O857   Zn863   2.018   .     S
O858   C862    1.272   .     A
O858   Zn864   2.018   .     S
O859   C862    1.272   .     A
O859   Zn863   2.018   .     S
O860   C861    1.272   .     A
O860   Zn864   2.018   .     S
C861   C872    1.433   .     S
C862   C871    1.433   .     S
Zn863  N866    1.973   .     S
Zn864  N865    1.973   .     S
N866   N265    1.193   1_556 S
C867   C875    1.389   .     A
C867   H885    1.084   .     S
C867   C871    1.390   .     A
C868   C876    1.389   .     A
C868   C872    1.390   .     A
C868   H886    1.082   .     S
C869   C873    1.389   .     A
C869   H887    1.084   .     S
C869   C871    1.390   .     A
C870   H888    1.082   .     S
C870   C872    1.390   .     A
C870   C874    1.389   .     A
C873   C877    1.417   .     A
C873   C879    1.407   .     A
C874   C880    1.414   .     A
C874   C878    1.419   .     A
C875   C881    1.407   .     A
C875   C877    1.417   .     A
C876   C882    1.414   .     A
C876   C878    1.419   .     A
C877   C828    1.394   1_655 S
C879   N889    1.437   .     S
C879   C832    1.398   1_655 S
C880   N892    1.437   .     S
C881   N895    1.437   .     S
C881   C830    1.398   1_655 S
C882   N898    1.437   .     S
C884   C683    1.165   1_565 S
N889   H891    1.046   .     S
N889   H290    1.046   1_556 S
N892   H894    1.044   .     S
N892   H893    1.045   .     S
N895   H896    1.046   .     S
H897   N295    1.046   1_556 S
N898   H900    1.045   .     S
N898   H899    1.044   .     S
