data_str_m3_o2_o10_pcu_sym.137
_audit_creation_date              2020-01-03
_audit_creation_method            'Materials Studio'
_symmetry_space_group_name_H-M    'P1'
_symmetry_Int_Tables_number       1
_symmetry_cell_setting            triclinic
loop_
_symmetry_equiv_pos_as_xyz
  x,y,z
_cell_length_a                    25.7926
_cell_length_b                    29.8798
_cell_length_c                    28.4347
_cell_angle_alpha                 90.8743
_cell_angle_beta                  98.4085
_cell_angle_gamma                 90.5582
loop_
_atom_site_label
_atom_site_type_symbol
_atom_site_fract_x
_atom_site_fract_y
_atom_site_fract_z
_atom_site_U_iso_or_equiv
_atom_site_adp_type
_atom_site_occupancy
C1     C     0.16695   0.16395   0.24972   0.00000  Uiso   1.00
C2     C     0.16731   0.33626   0.25038   0.00000  Uiso   1.00
C3     C     0.12247   0.23741   0.04596   0.00000  Uiso   1.00
C4     C     0.19027   0.28228   0.45248   0.00000  Uiso   1.00
C5     C     0.12265   0.23744   0.09550   0.00000  Uiso   1.00
C6     C     0.19192   0.28313   0.40294   0.00000  Uiso   1.00
C7     C     0.21184   0.25957   0.10850   0.00000  Uiso   1.00
C8     C     0.14184   0.21565   0.39275   0.00000  Uiso   1.00
C9     C     0.21435   0.25680   0.05907   0.00000  Uiso   1.00
C10    C     0.14229   0.21239   0.44243   0.00000  Uiso   1.00
C11    C     0.16825   0.24657   0.02669   0.00000  Uiso   1.00
C12    C     0.16685   0.24663   0.47322   0.00000  Uiso   1.00
C13    C     0.06734   0.25275   0.23794   0.00000  Uiso   1.00
C14    C     0.26606   0.24949   0.26214   0.00000  Uiso   1.00
C15    C     0.01322   0.26251   0.23419   0.00000  Uiso   1.00
C16    C     0.32033   0.24274   0.26650   0.00000  Uiso   1.00
C17    C     0.15263   0.04585   0.28280   0.00000  Uiso   1.00
C18    C     0.16935   0.45401   0.21031   0.00000  Uiso   1.00
C19    C     0.14662   0.09158   0.28134   0.00000  Uiso   1.00
C20    C     0.16300   0.40811   0.20924   0.00000  Uiso   1.00
C21    C     0.17158   0.11626   0.24983   0.00000  Uiso   1.00
C22    C     0.17219   0.38443   0.25157   0.00000  Uiso   1.00
C23    C     0.20349   0.09567   0.22039   0.00000  Uiso   1.00
C24    C     0.18860   0.40672   0.29487   0.00000  Uiso   1.00
C25    C     0.21146   0.04978   0.22280   0.00000  Uiso   1.00
C26    C     0.19678   0.45273   0.29627   0.00000  Uiso   1.00
C27    C     0.18502   0.02483   0.25393   0.00000  Uiso   1.00
C28    C     0.18600   0.47643   0.25352   0.00000  Uiso   1.00
H29    H     0.12185   0.10760   0.30412   0.00000  Uiso   1.00
H30    H     0.14999   0.39129   0.17548   0.00000  Uiso   1.00
H31    H     0.08641   0.22947   0.02265   0.00000  Uiso   1.00
H32    H     0.20781   0.30904   0.47561   0.00000  Uiso   1.00
N33    N     0.16667   0.24999   0.12624   0.00000  Uiso   1.00
N34    N     0.16667   0.25001   0.37377   0.00000  Uiso   1.00
O35    O     0.16667   0.18453   0.28974   0.00000  Uiso   1.00
O36    O     0.16666   0.31546   0.21026   0.00000  Uiso   1.00
O37    O     0.16667   0.18453   0.21026   0.00000  Uiso   1.00
O38    O     0.16666   0.31547   0.28974   0.00000  Uiso   1.00
O39    O     0.09058   0.25000   0.28045   0.00000  Uiso   1.00
O40    O     0.24275   0.25000   0.21956   0.00000  Uiso   1.00
O41    O     0.09058   0.24999   0.20097   0.00000  Uiso   1.00
O42    O     0.24275   0.25000   0.29904   0.00000  Uiso   1.00
Zn43   Zn    0.16667   0.25000   0.30307   0.00000  Uiso   1.00
Zn44   Zn    0.16667   0.24999   0.19693   0.00000  Uiso   1.00
N45    N     0.32414   0.29864   0.20491   0.00000  Uiso   1.00
H46    H     0.29849   0.31851   0.22028   0.00000  Uiso   1.00
C47    C     0.02306   0.32449   0.17737   0.00000  Uiso   1.00
H48    H     0.33263   0.35144   0.15868   0.00000  Uiso   1.00
H49    H     0.03705   0.30314   0.14975   0.00000  Uiso   1.00
H50    H     0.05656   0.34025   0.20101   0.00000  Uiso   1.00
N51    N     0.00904   0.20880   0.29824   0.00000  Uiso   1.00
H52    H     0.32805   0.20879   0.33027   0.00000  Uiso   1.00
C53    C     0.00832   0.16440   0.27703   0.00000  Uiso   1.00
H54    H     0.02826   0.14083   0.30338   0.00000  Uiso   1.00
H55    H     0.02937   0.16429   0.24562   0.00000  Uiso   1.00
H56    H     0.30059   0.15264   0.26605   0.00000  Uiso   1.00
H57    H     0.13118   0.02667   0.30583   0.00000  Uiso   1.00
H58    H     0.15973   0.47224   0.17760   0.00000  Uiso   1.00
H59    H     0.22349   0.11546   0.19673   0.00000  Uiso   1.00
H60    H     0.19580   0.38841   0.32755   0.00000  Uiso   1.00
N61    N     0.24470   0.02902   0.19320   0.00000  Uiso   1.00
H62    H     0.24840   0.04657   0.16287   0.00000  Uiso   1.00
C63    C     0.29493   0.01507   0.21773   0.00000  Uiso   1.00
H64    H     0.31831   0.00022   0.19172   0.00000  Uiso   1.00
H65    H     0.28974   0.48917   0.24422   0.00000  Uiso   1.00
H66    H     0.31692   0.04427   0.23571   0.00000  Uiso   1.00
N67    N     0.21359   0.47492   0.34075   0.00000  Uiso   1.00
H68    H     0.20515   0.45756   0.36986   0.00000  Uiso   1.00
C69    C     0.26711   0.49144   0.34726   0.00000  Uiso   1.00
H70    H     0.27675   0.00724   0.38312   0.00000  Uiso   1.00
H71    H     0.27234   0.01725   0.32069   0.00000  Uiso   1.00
H72    H     0.29455   0.46344   0.34424   0.00000  Uiso   1.00
N73    N     0.07672   0.22349   0.11323   0.00000  Uiso   1.00
H74    H     0.04350   0.23900   0.09697   0.00000  Uiso   1.00
C75    C     0.06976   0.17545   0.11425   0.00000  Uiso   1.00
H76    H     0.10511   0.15962   0.13379   0.00000  Uiso   1.00
H77    H     0.03579   0.16743   0.13265   0.00000  Uiso   1.00
H78    H     0.06214   0.16134   0.07746   0.00000  Uiso   1.00
N79    N     0.22012   0.31772   0.38286   0.00000  Uiso   1.00
H80    H     0.23971   0.30707   0.35597   0.00000  Uiso   1.00
C81    C     0.24922   0.35155   0.41327   0.00000  Uiso   1.00
H82    H     0.26866   0.37506   0.39129   0.00000  Uiso   1.00
H83    H     0.28008   0.33575   0.43888   0.00000  Uiso   1.00
H84    H     0.22228   0.37132   0.43231   0.00000  Uiso   1.00
H85    H     0.24686   0.26800   0.13285   0.00000  Uiso   1.00
H86    H     0.12260   0.18977   0.36923   0.00000  Uiso   1.00
N87    N     0.26341   0.26363   0.04272   0.00000  Uiso   1.00
H88    H     0.29000   0.28255   0.06564   0.00000  Uiso   1.00
C89    C     0.28650   0.22338   0.02636   0.00000  Uiso   1.00
H90    H     0.32364   0.23209   0.01313   0.00000  Uiso   1.00
H91    H     0.26010   0.20702   0.49665   0.00000  Uiso   1.00
H92    H     0.29491   0.19945   0.05597   0.00000  Uiso   1.00
N93    N     0.11843   0.17452   0.46069   0.00000  Uiso   1.00
H94    H     0.08831   0.16025   0.43720   0.00000  Uiso   1.00
C95    C     0.15496   0.14145   0.48172   0.00000  Uiso   1.00
H96    H     0.17723   0.12724   0.45446   0.00000  Uiso   1.00
H97    H     0.13308   0.11395   0.49621   0.00000  Uiso   1.00
H98    H     0.18275   0.15639   0.01143   0.00000  Uiso   1.00
C99    C     0.50028   0.16395   0.24972   0.00000  Uiso   1.00
C100   C     0.50064   0.33626   0.25038   0.00000  Uiso   1.00
C101   C     0.45580   0.23741   0.04596   0.00000  Uiso   1.00
C102   C     0.52361   0.28228   0.45248   0.00000  Uiso   1.00
C103   C     0.45598   0.23744   0.09550   0.00000  Uiso   1.00
C104   C     0.52525   0.28313   0.40294   0.00000  Uiso   1.00
C105   C     0.54517   0.25957   0.10850   0.00000  Uiso   1.00
C106   C     0.47517   0.21565   0.39275   0.00000  Uiso   1.00
C107   C     0.54768   0.25680   0.05907   0.00000  Uiso   1.00
C108   C     0.47563   0.21239   0.44243   0.00000  Uiso   1.00
C109   C     0.50159   0.24657   0.02669   0.00000  Uiso   1.00
C110   C     0.50018   0.24663   0.47322   0.00000  Uiso   1.00
C111   C     0.40067   0.25275   0.23794   0.00000  Uiso   1.00
C112   C     0.59940   0.24949   0.26214   0.00000  Uiso   1.00
C113   C     0.34655   0.26251   0.23419   0.00000  Uiso   1.00
C114   C     0.65367   0.24274   0.26650   0.00000  Uiso   1.00
C115   C     0.48596   0.04585   0.28280   0.00000  Uiso   1.00
C116   C     0.50268   0.45401   0.21031   0.00000  Uiso   1.00
C117   C     0.47995   0.09158   0.28134   0.00000  Uiso   1.00
C118   C     0.49633   0.40811   0.20924   0.00000  Uiso   1.00
C119   C     0.50491   0.11626   0.24983   0.00000  Uiso   1.00
C120   C     0.50552   0.38443   0.25157   0.00000  Uiso   1.00
C121   C     0.53682   0.09567   0.22039   0.00000  Uiso   1.00
C122   C     0.52193   0.40672   0.29487   0.00000  Uiso   1.00
C123   C     0.54479   0.04978   0.22280   0.00000  Uiso   1.00
C124   C     0.53012   0.45273   0.29627   0.00000  Uiso   1.00
C125   C     0.51836   0.02483   0.25393   0.00000  Uiso   1.00
C126   C     0.51933   0.47643   0.25352   0.00000  Uiso   1.00
H127   H     0.45518   0.10760   0.30412   0.00000  Uiso   1.00
H128   H     0.48332   0.39129   0.17548   0.00000  Uiso   1.00
H129   H     0.41975   0.22947   0.02265   0.00000  Uiso   1.00
H130   H     0.54114   0.30904   0.47561   0.00000  Uiso   1.00
N131   N     0.50000   0.24999   0.12624   0.00000  Uiso   1.00
N132   N     0.50000   0.25001   0.37377   0.00000  Uiso   1.00
O133   O     0.50000   0.18453   0.28974   0.00000  Uiso   1.00
O134   O     0.50000   0.31546   0.21026   0.00000  Uiso   1.00
O135   O     0.50000   0.18453   0.21026   0.00000  Uiso   1.00
O136   O     0.50000   0.31547   0.28974   0.00000  Uiso   1.00
O137   O     0.42392   0.25000   0.28045   0.00000  Uiso   1.00
O138   O     0.57608   0.25000   0.21956   0.00000  Uiso   1.00
O139   O     0.42392   0.24999   0.20097   0.00000  Uiso   1.00
O140   O     0.57608   0.25000   0.29904   0.00000  Uiso   1.00
Zn141  Zn    0.50000   0.25000   0.30307   0.00000  Uiso   1.00
Zn142  Zn    0.50000   0.24999   0.19693   0.00000  Uiso   1.00
N143   N     0.65747   0.29864   0.20491   0.00000  Uiso   1.00
H144   H     0.63182   0.31851   0.22028   0.00000  Uiso   1.00
C145   C     0.35640   0.32449   0.17737   0.00000  Uiso   1.00
H146   H     0.66597   0.35144   0.15868   0.00000  Uiso   1.00
H147   H     0.37038   0.30314   0.14975   0.00000  Uiso   1.00
H148   H     0.38990   0.34025   0.20101   0.00000  Uiso   1.00
N149   N     0.34238   0.20880   0.29824   0.00000  Uiso   1.00
H150   H     0.66139   0.20879   0.33027   0.00000  Uiso   1.00
C151   C     0.34166   0.16440   0.27703   0.00000  Uiso   1.00
H152   H     0.36159   0.14083   0.30338   0.00000  Uiso   1.00
H153   H     0.36270   0.16429   0.24562   0.00000  Uiso   1.00
H154   H     0.63392   0.15264   0.26605   0.00000  Uiso   1.00
H155   H     0.46452   0.02667   0.30583   0.00000  Uiso   1.00
H156   H     0.49307   0.47224   0.17760   0.00000  Uiso   1.00
H157   H     0.55682   0.11546   0.19673   0.00000  Uiso   1.00
H158   H     0.52913   0.38841   0.32755   0.00000  Uiso   1.00
N159   N     0.57804   0.02902   0.19320   0.00000  Uiso   1.00
H160   H     0.58174   0.04657   0.16287   0.00000  Uiso   1.00
C161   C     0.62826   0.01507   0.21773   0.00000  Uiso   1.00
H162   H     0.65164   0.00022   0.19172   0.00000  Uiso   1.00
H163   H     0.62307   0.48917   0.24422   0.00000  Uiso   1.00
H164   H     0.65026   0.04427   0.23571   0.00000  Uiso   1.00
N165   N     0.54692   0.47492   0.34075   0.00000  Uiso   1.00
H166   H     0.53848   0.45756   0.36986   0.00000  Uiso   1.00
C167   C     0.60044   0.49144   0.34726   0.00000  Uiso   1.00
H168   H     0.61008   0.00724   0.38312   0.00000  Uiso   1.00
H169   H     0.60567   0.01725   0.32069   0.00000  Uiso   1.00
H170   H     0.62789   0.46344   0.34424   0.00000  Uiso   1.00
N171   N     0.41005   0.22349   0.11323   0.00000  Uiso   1.00
H172   H     0.37683   0.23900   0.09697   0.00000  Uiso   1.00
C173   C     0.40310   0.17545   0.11425   0.00000  Uiso   1.00
H174   H     0.43845   0.15962   0.13379   0.00000  Uiso   1.00
H175   H     0.36912   0.16743   0.13265   0.00000  Uiso   1.00
H176   H     0.39548   0.16134   0.07746   0.00000  Uiso   1.00
N177   N     0.55345   0.31772   0.38286   0.00000  Uiso   1.00
H178   H     0.57304   0.30707   0.35597   0.00000  Uiso   1.00
C179   C     0.58256   0.35155   0.41327   0.00000  Uiso   1.00
H180   H     0.60200   0.37506   0.39129   0.00000  Uiso   1.00
H181   H     0.61342   0.33575   0.43888   0.00000  Uiso   1.00
H182   H     0.55562   0.37132   0.43231   0.00000  Uiso   1.00
H183   H     0.58019   0.26800   0.13285   0.00000  Uiso   1.00
H184   H     0.45593   0.18977   0.36923   0.00000  Uiso   1.00
N185   N     0.59675   0.26363   0.04272   0.00000  Uiso   1.00
H186   H     0.62333   0.28255   0.06564   0.00000  Uiso   1.00
C187   C     0.61984   0.22338   0.02636   0.00000  Uiso   1.00
H188   H     0.65697   0.23209   0.01313   0.00000  Uiso   1.00
H189   H     0.59343   0.20702   0.49665   0.00000  Uiso   1.00
H190   H     0.62824   0.19945   0.05597   0.00000  Uiso   1.00
N191   N     0.45177   0.17452   0.46069   0.00000  Uiso   1.00
H192   H     0.42164   0.16025   0.43720   0.00000  Uiso   1.00
C193   C     0.48830   0.14145   0.48172   0.00000  Uiso   1.00
H194   H     0.51056   0.12724   0.45446   0.00000  Uiso   1.00
H195   H     0.46641   0.11395   0.49621   0.00000  Uiso   1.00
H196   H     0.51608   0.15639   0.01143   0.00000  Uiso   1.00
C197   C     0.83362   0.16395   0.24972   0.00000  Uiso   1.00
C198   C     0.83397   0.33626   0.25038   0.00000  Uiso   1.00
C199   C     0.78913   0.23741   0.04596   0.00000  Uiso   1.00
C200   C     0.85694   0.28228   0.45248   0.00000  Uiso   1.00
C201   C     0.78932   0.23744   0.09550   0.00000  Uiso   1.00
C202   C     0.85859   0.28313   0.40294   0.00000  Uiso   1.00
C203   C     0.87850   0.25957   0.10850   0.00000  Uiso   1.00
C204   C     0.80851   0.21565   0.39275   0.00000  Uiso   1.00
C205   C     0.88102   0.25680   0.05907   0.00000  Uiso   1.00
C206   C     0.80896   0.21239   0.44243   0.00000  Uiso   1.00
C207   C     0.83492   0.24657   0.02669   0.00000  Uiso   1.00
C208   C     0.83351   0.24663   0.47322   0.00000  Uiso   1.00
C209   C     0.73400   0.25275   0.23794   0.00000  Uiso   1.00
C210   C     0.93273   0.24949   0.26214   0.00000  Uiso   1.00
C211   C     0.67988   0.26251   0.23419   0.00000  Uiso   1.00
C212   C     0.98700   0.24274   0.26650   0.00000  Uiso   1.00
C213   C     0.81930   0.04585   0.28280   0.00000  Uiso   1.00
C214   C     0.83602   0.45401   0.21031   0.00000  Uiso   1.00
C215   C     0.81329   0.09158   0.28134   0.00000  Uiso   1.00
C216   C     0.82966   0.40811   0.20924   0.00000  Uiso   1.00
C217   C     0.83824   0.11626   0.24983   0.00000  Uiso   1.00
C218   C     0.83886   0.38443   0.25157   0.00000  Uiso   1.00
C219   C     0.87016   0.09567   0.22039   0.00000  Uiso   1.00
C220   C     0.85526   0.40672   0.29487   0.00000  Uiso   1.00
C221   C     0.87813   0.04978   0.22280   0.00000  Uiso   1.00
C222   C     0.86345   0.45273   0.29627   0.00000  Uiso   1.00
C223   C     0.85169   0.02483   0.25393   0.00000  Uiso   1.00
C224   C     0.85267   0.47643   0.25352   0.00000  Uiso   1.00
H225   H     0.78852   0.10760   0.30412   0.00000  Uiso   1.00
H226   H     0.81665   0.39129   0.17548   0.00000  Uiso   1.00
H227   H     0.75308   0.22947   0.02265   0.00000  Uiso   1.00
H228   H     0.87448   0.30904   0.47561   0.00000  Uiso   1.00
N229   N     0.83333   0.24999   0.12624   0.00000  Uiso   1.00
N230   N     0.83333   0.25001   0.37377   0.00000  Uiso   1.00
O231   O     0.83334   0.18453   0.28974   0.00000  Uiso   1.00
O232   O     0.83333   0.31546   0.21026   0.00000  Uiso   1.00
O233   O     0.83334   0.18453   0.21026   0.00000  Uiso   1.00
O234   O     0.83333   0.31547   0.28974   0.00000  Uiso   1.00
O235   O     0.75725   0.25000   0.28045   0.00000  Uiso   1.00
O236   O     0.90942   0.25000   0.21956   0.00000  Uiso   1.00
O237   O     0.75725   0.24999   0.20097   0.00000  Uiso   1.00
O238   O     0.90942   0.25000   0.29904   0.00000  Uiso   1.00
Zn239  Zn    0.83333   0.25000   0.30307   0.00000  Uiso   1.00
Zn240  Zn    0.83333   0.24999   0.19693   0.00000  Uiso   1.00
N241   N     0.99080   0.29864   0.20491   0.00000  Uiso   1.00
H242   H     0.96515   0.31851   0.22028   0.00000  Uiso   1.00
C243   C     0.68973   0.32449   0.17737   0.00000  Uiso   1.00
H244   H     0.99930   0.35144   0.15868   0.00000  Uiso   1.00
H245   H     0.70371   0.30314   0.14975   0.00000  Uiso   1.00
H246   H     0.72323   0.34025   0.20101   0.00000  Uiso   1.00
N247   N     0.67571   0.20880   0.29824   0.00000  Uiso   1.00
H248   H     0.99472   0.20879   0.33027   0.00000  Uiso   1.00
C249   C     0.67499   0.16440   0.27703   0.00000  Uiso   1.00
H250   H     0.69493   0.14083   0.30338   0.00000  Uiso   1.00
H251   H     0.69604   0.16429   0.24562   0.00000  Uiso   1.00
H252   H     0.96726   0.15264   0.26605   0.00000  Uiso   1.00
H253   H     0.79785   0.02667   0.30583   0.00000  Uiso   1.00
H254   H     0.82640   0.47224   0.17760   0.00000  Uiso   1.00
H255   H     0.89015   0.11546   0.19673   0.00000  Uiso   1.00
H256   H     0.86246   0.38841   0.32755   0.00000  Uiso   1.00
N257   N     0.91137   0.02902   0.19320   0.00000  Uiso   1.00
H258   H     0.91507   0.04657   0.16287   0.00000  Uiso   1.00
C259   C     0.96160   0.01507   0.21773   0.00000  Uiso   1.00
H260   H     0.98498   0.00022   0.19172   0.00000  Uiso   1.00
H261   H     0.95640   0.48917   0.24422   0.00000  Uiso   1.00
H262   H     0.98359   0.04427   0.23571   0.00000  Uiso   1.00
N263   N     0.88026   0.47492   0.34075   0.00000  Uiso   1.00
H264   H     0.87181   0.45756   0.36986   0.00000  Uiso   1.00
C265   C     0.93377   0.49144   0.34726   0.00000  Uiso   1.00
H266   H     0.94342   0.00724   0.38312   0.00000  Uiso   1.00
H267   H     0.93901   0.01725   0.32069   0.00000  Uiso   1.00
H268   H     0.96122   0.46344   0.34424   0.00000  Uiso   1.00
N269   N     0.74339   0.22349   0.11323   0.00000  Uiso   1.00
H270   H     0.71016   0.23900   0.09697   0.00000  Uiso   1.00
C271   C     0.73643   0.17545   0.11425   0.00000  Uiso   1.00
H272   H     0.77178   0.15962   0.13379   0.00000  Uiso   1.00
H273   H     0.70245   0.16743   0.13265   0.00000  Uiso   1.00
H274   H     0.72881   0.16134   0.07746   0.00000  Uiso   1.00
N275   N     0.88678   0.31772   0.38286   0.00000  Uiso   1.00
H276   H     0.90638   0.30707   0.35597   0.00000  Uiso   1.00
C277   C     0.91589   0.35155   0.41327   0.00000  Uiso   1.00
H278   H     0.93533   0.37506   0.39129   0.00000  Uiso   1.00
H279   H     0.94675   0.33575   0.43888   0.00000  Uiso   1.00
H280   H     0.88895   0.37132   0.43231   0.00000  Uiso   1.00
H281   H     0.91352   0.26800   0.13285   0.00000  Uiso   1.00
H282   H     0.78927   0.18977   0.36923   0.00000  Uiso   1.00
N283   N     0.93008   0.26363   0.04272   0.00000  Uiso   1.00
H284   H     0.95666   0.28255   0.06564   0.00000  Uiso   1.00
C285   C     0.95317   0.22338   0.02636   0.00000  Uiso   1.00
H286   H     0.99031   0.23209   0.01313   0.00000  Uiso   1.00
H287   H     0.92677   0.20702   0.49665   0.00000  Uiso   1.00
H288   H     0.96158   0.19945   0.05597   0.00000  Uiso   1.00
N289   N     0.78510   0.17452   0.46069   0.00000  Uiso   1.00
H290   H     0.75498   0.16025   0.43720   0.00000  Uiso   1.00
C291   C     0.82163   0.14145   0.48172   0.00000  Uiso   1.00
H292   H     0.84389   0.12724   0.45446   0.00000  Uiso   1.00
H293   H     0.79975   0.11395   0.49621   0.00000  Uiso   1.00
H294   H     0.84942   0.15639   0.01143   0.00000  Uiso   1.00
C295   C     0.16695   0.66395   0.24972   0.00000  Uiso   1.00
C296   C     0.16731   0.83626   0.25038   0.00000  Uiso   1.00
C297   C     0.12247   0.73741   0.04596   0.00000  Uiso   1.00
C298   C     0.19027   0.78228   0.45248   0.00000  Uiso   1.00
C299   C     0.12265   0.73744   0.09550   0.00000  Uiso   1.00
C300   C     0.19192   0.78313   0.40294   0.00000  Uiso   1.00
C301   C     0.21184   0.75957   0.10850   0.00000  Uiso   1.00
C302   C     0.14184   0.71565   0.39275   0.00000  Uiso   1.00
C303   C     0.21435   0.75680   0.05907   0.00000  Uiso   1.00
C304   C     0.14229   0.71239   0.44243   0.00000  Uiso   1.00
C305   C     0.16825   0.74657   0.02669   0.00000  Uiso   1.00
C306   C     0.16685   0.74663   0.47322   0.00000  Uiso   1.00
C307   C     0.06734   0.75275   0.23794   0.00000  Uiso   1.00
C308   C     0.26606   0.74949   0.26214   0.00000  Uiso   1.00
C309   C     0.01322   0.76251   0.23419   0.00000  Uiso   1.00
C310   C     0.32033   0.74274   0.26650   0.00000  Uiso   1.00
C311   C     0.15263   0.54585   0.28280   0.00000  Uiso   1.00
C312   C     0.16935   0.95401   0.21031   0.00000  Uiso   1.00
C313   C     0.14662   0.59158   0.28134   0.00000  Uiso   1.00
C314   C     0.16300   0.90811   0.20924   0.00000  Uiso   1.00
C315   C     0.17158   0.61626   0.24983   0.00000  Uiso   1.00
C316   C     0.17219   0.88443   0.25157   0.00000  Uiso   1.00
C317   C     0.20349   0.59567   0.22039   0.00000  Uiso   1.00
C318   C     0.18860   0.90672   0.29487   0.00000  Uiso   1.00
C319   C     0.21146   0.54978   0.22280   0.00000  Uiso   1.00
C320   C     0.19678   0.95273   0.29627   0.00000  Uiso   1.00
C321   C     0.18502   0.52483   0.25393   0.00000  Uiso   1.00
C322   C     0.18600   0.97643   0.25352   0.00000  Uiso   1.00
H323   H     0.12185   0.60760   0.30412   0.00000  Uiso   1.00
H324   H     0.14999   0.89129   0.17548   0.00000  Uiso   1.00
H325   H     0.08641   0.72947   0.02265   0.00000  Uiso   1.00
H326   H     0.20781   0.80904   0.47561   0.00000  Uiso   1.00
N327   N     0.16667   0.74999   0.12624   0.00000  Uiso   1.00
N328   N     0.16667   0.75001   0.37377   0.00000  Uiso   1.00
O329   O     0.16667   0.68453   0.28974   0.00000  Uiso   1.00
O330   O     0.16666   0.81546   0.21026   0.00000  Uiso   1.00
O331   O     0.16667   0.68453   0.21026   0.00000  Uiso   1.00
O332   O     0.16666   0.81547   0.28974   0.00000  Uiso   1.00
O333   O     0.09058   0.75000   0.28045   0.00000  Uiso   1.00
O334   O     0.24275   0.75000   0.21956   0.00000  Uiso   1.00
O335   O     0.09058   0.74999   0.20097   0.00000  Uiso   1.00
O336   O     0.24275   0.75000   0.29904   0.00000  Uiso   1.00
Zn337  Zn    0.16667   0.75000   0.30307   0.00000  Uiso   1.00
Zn338  Zn    0.16667   0.74999   0.19693   0.00000  Uiso   1.00
N339   N     0.32414   0.79864   0.20491   0.00000  Uiso   1.00
H340   H     0.29849   0.81851   0.22028   0.00000  Uiso   1.00
C341   C     0.02306   0.82449   0.17737   0.00000  Uiso   1.00
H342   H     0.33263   0.85144   0.15868   0.00000  Uiso   1.00
H343   H     0.03705   0.80314   0.14975   0.00000  Uiso   1.00
H344   H     0.05656   0.84025   0.20101   0.00000  Uiso   1.00
N345   N     0.00904   0.70880   0.29824   0.00000  Uiso   1.00
H346   H     0.32805   0.70879   0.33027   0.00000  Uiso   1.00
C347   C     0.00832   0.66440   0.27703   0.00000  Uiso   1.00
H348   H     0.02826   0.64083   0.30338   0.00000  Uiso   1.00
H349   H     0.02937   0.66429   0.24562   0.00000  Uiso   1.00
H350   H     0.30059   0.65264   0.26605   0.00000  Uiso   1.00
H351   H     0.13118   0.52667   0.30583   0.00000  Uiso   1.00
H352   H     0.15973   0.97224   0.17760   0.00000  Uiso   1.00
H353   H     0.22349   0.61546   0.19673   0.00000  Uiso   1.00
H354   H     0.19580   0.88841   0.32755   0.00000  Uiso   1.00
N355   N     0.24470   0.52902   0.19320   0.00000  Uiso   1.00
H356   H     0.24840   0.54657   0.16287   0.00000  Uiso   1.00
C357   C     0.29493   0.51507   0.21773   0.00000  Uiso   1.00
H358   H     0.31831   0.50022   0.19172   0.00000  Uiso   1.00
H359   H     0.28974   0.98917   0.24422   0.00000  Uiso   1.00
H360   H     0.31692   0.54427   0.23571   0.00000  Uiso   1.00
N361   N     0.21359   0.97492   0.34075   0.00000  Uiso   1.00
H362   H     0.20515   0.95756   0.36986   0.00000  Uiso   1.00
C363   C     0.26711   0.99144   0.34726   0.00000  Uiso   1.00
H364   H     0.27675   0.50724   0.38312   0.00000  Uiso   1.00
H365   H     0.27234   0.51725   0.32069   0.00000  Uiso   1.00
H366   H     0.29455   0.96344   0.34424   0.00000  Uiso   1.00
N367   N     0.07672   0.72349   0.11323   0.00000  Uiso   1.00
H368   H     0.04350   0.73900   0.09697   0.00000  Uiso   1.00
C369   C     0.06976   0.67545   0.11425   0.00000  Uiso   1.00
H370   H     0.10511   0.65962   0.13379   0.00000  Uiso   1.00
H371   H     0.03579   0.66743   0.13265   0.00000  Uiso   1.00
H372   H     0.06214   0.66134   0.07746   0.00000  Uiso   1.00
N373   N     0.22012   0.81772   0.38286   0.00000  Uiso   1.00
H374   H     0.23971   0.80707   0.35597   0.00000  Uiso   1.00
C375   C     0.24922   0.85155   0.41327   0.00000  Uiso   1.00
H376   H     0.26866   0.87506   0.39129   0.00000  Uiso   1.00
H377   H     0.28008   0.83575   0.43888   0.00000  Uiso   1.00
H378   H     0.22228   0.87132   0.43231   0.00000  Uiso   1.00
H379   H     0.24686   0.76800   0.13285   0.00000  Uiso   1.00
H380   H     0.12260   0.68977   0.36923   0.00000  Uiso   1.00
N381   N     0.26341   0.76363   0.04272   0.00000  Uiso   1.00
H382   H     0.29000   0.78255   0.06564   0.00000  Uiso   1.00
C383   C     0.28650   0.72338   0.02636   0.00000  Uiso   1.00
H384   H     0.32364   0.73209   0.01313   0.00000  Uiso   1.00
H385   H     0.26010   0.70702   0.49665   0.00000  Uiso   1.00
H386   H     0.29491   0.69945   0.05597   0.00000  Uiso   1.00
N387   N     0.11843   0.67452   0.46069   0.00000  Uiso   1.00
H388   H     0.08831   0.66025   0.43720   0.00000  Uiso   1.00
C389   C     0.15496   0.64145   0.48172   0.00000  Uiso   1.00
H390   H     0.17723   0.62724   0.45446   0.00000  Uiso   1.00
H391   H     0.13308   0.61395   0.49621   0.00000  Uiso   1.00
H392   H     0.18275   0.65639   0.01143   0.00000  Uiso   1.00
C393   C     0.50028   0.66395   0.24972   0.00000  Uiso   1.00
C394   C     0.50064   0.83626   0.25038   0.00000  Uiso   1.00
C395   C     0.45580   0.73741   0.04596   0.00000  Uiso   1.00
C396   C     0.52361   0.78228   0.45248   0.00000  Uiso   1.00
C397   C     0.45598   0.73744   0.09550   0.00000  Uiso   1.00
C398   C     0.52525   0.78313   0.40294   0.00000  Uiso   1.00
C399   C     0.54517   0.75957   0.10850   0.00000  Uiso   1.00
C400   C     0.47517   0.71565   0.39275   0.00000  Uiso   1.00
C401   C     0.54768   0.75680   0.05907   0.00000  Uiso   1.00
C402   C     0.47563   0.71239   0.44243   0.00000  Uiso   1.00
C403   C     0.50159   0.74657   0.02669   0.00000  Uiso   1.00
C404   C     0.50018   0.74663   0.47322   0.00000  Uiso   1.00
C405   C     0.40067   0.75275   0.23794   0.00000  Uiso   1.00
C406   C     0.59940   0.74949   0.26214   0.00000  Uiso   1.00
C407   C     0.34655   0.76251   0.23419   0.00000  Uiso   1.00
C408   C     0.65367   0.74274   0.26650   0.00000  Uiso   1.00
C409   C     0.48596   0.54585   0.28280   0.00000  Uiso   1.00
C410   C     0.50268   0.95401   0.21031   0.00000  Uiso   1.00
C411   C     0.47995   0.59158   0.28134   0.00000  Uiso   1.00
C412   C     0.49633   0.90811   0.20924   0.00000  Uiso   1.00
C413   C     0.50491   0.61626   0.24983   0.00000  Uiso   1.00
C414   C     0.50552   0.88443   0.25157   0.00000  Uiso   1.00
C415   C     0.53682   0.59567   0.22039   0.00000  Uiso   1.00
C416   C     0.52193   0.90672   0.29487   0.00000  Uiso   1.00
C417   C     0.54479   0.54978   0.22280   0.00000  Uiso   1.00
C418   C     0.53012   0.95273   0.29627   0.00000  Uiso   1.00
C419   C     0.51836   0.52483   0.25393   0.00000  Uiso   1.00
C420   C     0.51933   0.97643   0.25352   0.00000  Uiso   1.00
H421   H     0.45518   0.60760   0.30412   0.00000  Uiso   1.00
H422   H     0.48332   0.89129   0.17548   0.00000  Uiso   1.00
H423   H     0.41975   0.72947   0.02265   0.00000  Uiso   1.00
H424   H     0.54114   0.80904   0.47561   0.00000  Uiso   1.00
N425   N     0.50000   0.74999   0.12624   0.00000  Uiso   1.00
N426   N     0.50000   0.75001   0.37377   0.00000  Uiso   1.00
O427   O     0.50000   0.68453   0.28974   0.00000  Uiso   1.00
O428   O     0.50000   0.81546   0.21026   0.00000  Uiso   1.00
O429   O     0.50000   0.68453   0.21026   0.00000  Uiso   1.00
O430   O     0.50000   0.81547   0.28974   0.00000  Uiso   1.00
O431   O     0.42392   0.75000   0.28045   0.00000  Uiso   1.00
O432   O     0.57608   0.75000   0.21956   0.00000  Uiso   1.00
O433   O     0.42392   0.74999   0.20097   0.00000  Uiso   1.00
O434   O     0.57608   0.75000   0.29904   0.00000  Uiso   1.00
Zn435  Zn    0.50000   0.75000   0.30307   0.00000  Uiso   1.00
Zn436  Zn    0.50000   0.74999   0.19693   0.00000  Uiso   1.00
N437   N     0.65747   0.79864   0.20491   0.00000  Uiso   1.00
H438   H     0.63182   0.81851   0.22028   0.00000  Uiso   1.00
C439   C     0.35640   0.82449   0.17737   0.00000  Uiso   1.00
H440   H     0.66597   0.85144   0.15868   0.00000  Uiso   1.00
H441   H     0.37038   0.80314   0.14975   0.00000  Uiso   1.00
H442   H     0.38990   0.84025   0.20101   0.00000  Uiso   1.00
N443   N     0.34238   0.70880   0.29824   0.00000  Uiso   1.00
H444   H     0.66139   0.70879   0.33027   0.00000  Uiso   1.00
C445   C     0.34166   0.66440   0.27703   0.00000  Uiso   1.00
H446   H     0.36159   0.64083   0.30338   0.00000  Uiso   1.00
H447   H     0.36270   0.66429   0.24562   0.00000  Uiso   1.00
H448   H     0.63392   0.65264   0.26605   0.00000  Uiso   1.00
H449   H     0.46452   0.52667   0.30583   0.00000  Uiso   1.00
H450   H     0.49307   0.97224   0.17760   0.00000  Uiso   1.00
H451   H     0.55682   0.61546   0.19673   0.00000  Uiso   1.00
H452   H     0.52913   0.88841   0.32755   0.00000  Uiso   1.00
N453   N     0.57804   0.52902   0.19320   0.00000  Uiso   1.00
H454   H     0.58174   0.54657   0.16287   0.00000  Uiso   1.00
C455   C     0.62826   0.51507   0.21773   0.00000  Uiso   1.00
H456   H     0.65164   0.50022   0.19172   0.00000  Uiso   1.00
H457   H     0.62307   0.98917   0.24422   0.00000  Uiso   1.00
H458   H     0.65026   0.54427   0.23571   0.00000  Uiso   1.00
N459   N     0.54692   0.97492   0.34075   0.00000  Uiso   1.00
H460   H     0.53848   0.95756   0.36986   0.00000  Uiso   1.00
C461   C     0.60044   0.99144   0.34726   0.00000  Uiso   1.00
H462   H     0.61008   0.50724   0.38312   0.00000  Uiso   1.00
H463   H     0.60567   0.51725   0.32069   0.00000  Uiso   1.00
H464   H     0.62789   0.96344   0.34424   0.00000  Uiso   1.00
N465   N     0.41005   0.72349   0.11323   0.00000  Uiso   1.00
H466   H     0.37683   0.73900   0.09697   0.00000  Uiso   1.00
C467   C     0.40310   0.67545   0.11425   0.00000  Uiso   1.00
H468   H     0.43845   0.65962   0.13379   0.00000  Uiso   1.00
H469   H     0.36912   0.66743   0.13265   0.00000  Uiso   1.00
H470   H     0.39548   0.66134   0.07746   0.00000  Uiso   1.00
N471   N     0.55345   0.81772   0.38286   0.00000  Uiso   1.00
H472   H     0.57304   0.80707   0.35597   0.00000  Uiso   1.00
C473   C     0.58256   0.85155   0.41327   0.00000  Uiso   1.00
H474   H     0.60200   0.87506   0.39129   0.00000  Uiso   1.00
H475   H     0.61342   0.83575   0.43888   0.00000  Uiso   1.00
H476   H     0.55562   0.87132   0.43231   0.00000  Uiso   1.00
H477   H     0.58019   0.76800   0.13285   0.00000  Uiso   1.00
H478   H     0.45593   0.68977   0.36923   0.00000  Uiso   1.00
N479   N     0.59675   0.76363   0.04272   0.00000  Uiso   1.00
H480   H     0.62333   0.78255   0.06564   0.00000  Uiso   1.00
C481   C     0.61984   0.72338   0.02636   0.00000  Uiso   1.00
H482   H     0.65697   0.73209   0.01313   0.00000  Uiso   1.00
H483   H     0.59343   0.70702   0.49665   0.00000  Uiso   1.00
H484   H     0.62824   0.69945   0.05597   0.00000  Uiso   1.00
N485   N     0.45177   0.67452   0.46069   0.00000  Uiso   1.00
H486   H     0.42164   0.66025   0.43720   0.00000  Uiso   1.00
C487   C     0.48830   0.64145   0.48172   0.00000  Uiso   1.00
H488   H     0.51056   0.62724   0.45446   0.00000  Uiso   1.00
H489   H     0.46641   0.61395   0.49621   0.00000  Uiso   1.00
H490   H     0.51608   0.65639   0.01143   0.00000  Uiso   1.00
C491   C     0.83362   0.66395   0.24972   0.00000  Uiso   1.00
C492   C     0.83397   0.83626   0.25038   0.00000  Uiso   1.00
C493   C     0.78913   0.73741   0.04596   0.00000  Uiso   1.00
C494   C     0.85694   0.78228   0.45248   0.00000  Uiso   1.00
C495   C     0.78932   0.73744   0.09550   0.00000  Uiso   1.00
C496   C     0.85859   0.78313   0.40294   0.00000  Uiso   1.00
C497   C     0.87850   0.75957   0.10850   0.00000  Uiso   1.00
C498   C     0.80851   0.71565   0.39275   0.00000  Uiso   1.00
C499   C     0.88102   0.75680   0.05907   0.00000  Uiso   1.00
C500   C     0.80896   0.71239   0.44243   0.00000  Uiso   1.00
C501   C     0.83492   0.74657   0.02669   0.00000  Uiso   1.00
C502   C     0.83351   0.74663   0.47322   0.00000  Uiso   1.00
C503   C     0.73400   0.75275   0.23794   0.00000  Uiso   1.00
C504   C     0.93273   0.74949   0.26214   0.00000  Uiso   1.00
C505   C     0.67988   0.76251   0.23419   0.00000  Uiso   1.00
C506   C     0.98700   0.74274   0.26650   0.00000  Uiso   1.00
C507   C     0.81930   0.54585   0.28280   0.00000  Uiso   1.00
C508   C     0.83602   0.95401   0.21031   0.00000  Uiso   1.00
C509   C     0.81329   0.59158   0.28134   0.00000  Uiso   1.00
C510   C     0.82966   0.90811   0.20924   0.00000  Uiso   1.00
C511   C     0.83824   0.61626   0.24983   0.00000  Uiso   1.00
C512   C     0.83886   0.88443   0.25157   0.00000  Uiso   1.00
C513   C     0.87016   0.59567   0.22039   0.00000  Uiso   1.00
C514   C     0.85526   0.90672   0.29487   0.00000  Uiso   1.00
C515   C     0.87813   0.54978   0.22280   0.00000  Uiso   1.00
C516   C     0.86345   0.95273   0.29627   0.00000  Uiso   1.00
C517   C     0.85169   0.52483   0.25393   0.00000  Uiso   1.00
C518   C     0.85267   0.97643   0.25352   0.00000  Uiso   1.00
H519   H     0.78852   0.60760   0.30412   0.00000  Uiso   1.00
H520   H     0.81665   0.89129   0.17548   0.00000  Uiso   1.00
H521   H     0.75308   0.72947   0.02265   0.00000  Uiso   1.00
H522   H     0.87448   0.80904   0.47561   0.00000  Uiso   1.00
N523   N     0.83333   0.74999   0.12624   0.00000  Uiso   1.00
N524   N     0.83333   0.75001   0.37377   0.00000  Uiso   1.00
O525   O     0.83334   0.68453   0.28974   0.00000  Uiso   1.00
O526   O     0.83333   0.81546   0.21026   0.00000  Uiso   1.00
O527   O     0.83334   0.68453   0.21026   0.00000  Uiso   1.00
O528   O     0.83333   0.81547   0.28974   0.00000  Uiso   1.00
O529   O     0.75725   0.75000   0.28045   0.00000  Uiso   1.00
O530   O     0.90942   0.75000   0.21956   0.00000  Uiso   1.00
O531   O     0.75725   0.74999   0.20097   0.00000  Uiso   1.00
O532   O     0.90942   0.75000   0.29904   0.00000  Uiso   1.00
Zn533  Zn    0.83333   0.75000   0.30307   0.00000  Uiso   1.00
Zn534  Zn    0.83333   0.74999   0.19693   0.00000  Uiso   1.00
N535   N     0.99080   0.79864   0.20491   0.00000  Uiso   1.00
H536   H     0.96515   0.81851   0.22028   0.00000  Uiso   1.00
C537   C     0.68973   0.82449   0.17737   0.00000  Uiso   1.00
H538   H     0.99930   0.85144   0.15868   0.00000  Uiso   1.00
H539   H     0.70371   0.80314   0.14975   0.00000  Uiso   1.00
H540   H     0.72323   0.84025   0.20101   0.00000  Uiso   1.00
N541   N     0.67571   0.70880   0.29824   0.00000  Uiso   1.00
H542   H     0.99472   0.70879   0.33027   0.00000  Uiso   1.00
C543   C     0.67499   0.66440   0.27703   0.00000  Uiso   1.00
H544   H     0.69493   0.64083   0.30338   0.00000  Uiso   1.00
H545   H     0.69604   0.66429   0.24562   0.00000  Uiso   1.00
H546   H     0.96726   0.65264   0.26605   0.00000  Uiso   1.00
H547   H     0.79785   0.52667   0.30583   0.00000  Uiso   1.00
H548   H     0.82640   0.97224   0.17760   0.00000  Uiso   1.00
H549   H     0.89015   0.61546   0.19673   0.00000  Uiso   1.00
H550   H     0.86246   0.88841   0.32755   0.00000  Uiso   1.00
N551   N     0.91137   0.52902   0.19320   0.00000  Uiso   1.00
H552   H     0.91507   0.54657   0.16287   0.00000  Uiso   1.00
C553   C     0.96160   0.51507   0.21773   0.00000  Uiso   1.00
H554   H     0.98498   0.50022   0.19172   0.00000  Uiso   1.00
H555   H     0.95640   0.98917   0.24422   0.00000  Uiso   1.00
H556   H     0.98359   0.54427   0.23571   0.00000  Uiso   1.00
N557   N     0.88026   0.97492   0.34075   0.00000  Uiso   1.00
H558   H     0.87181   0.95756   0.36986   0.00000  Uiso   1.00
C559   C     0.93377   0.99144   0.34726   0.00000  Uiso   1.00
H560   H     0.94342   0.50724   0.38312   0.00000  Uiso   1.00
H561   H     0.93901   0.51725   0.32069   0.00000  Uiso   1.00
H562   H     0.96122   0.96344   0.34424   0.00000  Uiso   1.00
N563   N     0.74339   0.72349   0.11323   0.00000  Uiso   1.00
H564   H     0.71016   0.73900   0.09697   0.00000  Uiso   1.00
C565   C     0.73643   0.67545   0.11425   0.00000  Uiso   1.00
H566   H     0.77178   0.65962   0.13379   0.00000  Uiso   1.00
H567   H     0.70245   0.66743   0.13265   0.00000  Uiso   1.00
H568   H     0.72881   0.66134   0.07746   0.00000  Uiso   1.00
N569   N     0.88678   0.81772   0.38286   0.00000  Uiso   1.00
H570   H     0.90638   0.80707   0.35597   0.00000  Uiso   1.00
C571   C     0.91589   0.85155   0.41327   0.00000  Uiso   1.00
H572   H     0.93533   0.87506   0.39129   0.00000  Uiso   1.00
H573   H     0.94675   0.83575   0.43888   0.00000  Uiso   1.00
H574   H     0.88895   0.87132   0.43231   0.00000  Uiso   1.00
H575   H     0.91352   0.76800   0.13285   0.00000  Uiso   1.00
H576   H     0.78927   0.68977   0.36923   0.00000  Uiso   1.00
N577   N     0.93008   0.76363   0.04272   0.00000  Uiso   1.00
H578   H     0.95666   0.78255   0.06564   0.00000  Uiso   1.00
C579   C     0.95317   0.72338   0.02636   0.00000  Uiso   1.00
H580   H     0.99031   0.73209   0.01313   0.00000  Uiso   1.00
H581   H     0.92677   0.70702   0.49665   0.00000  Uiso   1.00
H582   H     0.96158   0.69945   0.05597   0.00000  Uiso   1.00
N583   N     0.78510   0.67452   0.46069   0.00000  Uiso   1.00
H584   H     0.75498   0.66025   0.43720   0.00000  Uiso   1.00
C585   C     0.82163   0.64145   0.48172   0.00000  Uiso   1.00
H586   H     0.84389   0.62724   0.45446   0.00000  Uiso   1.00
H587   H     0.79975   0.61395   0.49621   0.00000  Uiso   1.00
H588   H     0.84942   0.65639   0.01143   0.00000  Uiso   1.00
C589   C     0.16695   0.16395   0.74972   0.00000  Uiso   1.00
C590   C     0.16731   0.33626   0.75038   0.00000  Uiso   1.00
C591   C     0.12247   0.23741   0.54596   0.00000  Uiso   1.00
C592   C     0.19027   0.28228   0.95248   0.00000  Uiso   1.00
C593   C     0.12265   0.23744   0.59550   0.00000  Uiso   1.00
C594   C     0.19192   0.28313   0.90294   0.00000  Uiso   1.00
C595   C     0.21184   0.25957   0.60850   0.00000  Uiso   1.00
C596   C     0.14184   0.21565   0.89275   0.00000  Uiso   1.00
C597   C     0.21435   0.25680   0.55907   0.00000  Uiso   1.00
C598   C     0.14229   0.21239   0.94243   0.00000  Uiso   1.00
C599   C     0.16825   0.24657   0.52669   0.00000  Uiso   1.00
C600   C     0.16685   0.24663   0.97322   0.00000  Uiso   1.00
C601   C     0.06734   0.25275   0.73794   0.00000  Uiso   1.00
C602   C     0.26606   0.24949   0.76214   0.00000  Uiso   1.00
C603   C     0.01322   0.26251   0.73419   0.00000  Uiso   1.00
C604   C     0.32033   0.24274   0.76650   0.00000  Uiso   1.00
C605   C     0.15263   0.04585   0.78280   0.00000  Uiso   1.00
C606   C     0.16935   0.45401   0.71031   0.00000  Uiso   1.00
C607   C     0.14662   0.09158   0.78134   0.00000  Uiso   1.00
C608   C     0.16300   0.40811   0.70924   0.00000  Uiso   1.00
C609   C     0.17158   0.11626   0.74983   0.00000  Uiso   1.00
C610   C     0.17219   0.38443   0.75157   0.00000  Uiso   1.00
C611   C     0.20349   0.09567   0.72039   0.00000  Uiso   1.00
C612   C     0.18860   0.40672   0.79487   0.00000  Uiso   1.00
C613   C     0.21146   0.04978   0.72280   0.00000  Uiso   1.00
C614   C     0.19678   0.45273   0.79627   0.00000  Uiso   1.00
C615   C     0.18502   0.02483   0.75393   0.00000  Uiso   1.00
C616   C     0.18600   0.47643   0.75352   0.00000  Uiso   1.00
H617   H     0.12185   0.10760   0.80412   0.00000  Uiso   1.00
H618   H     0.14999   0.39129   0.67548   0.00000  Uiso   1.00
H619   H     0.08641   0.22947   0.52265   0.00000  Uiso   1.00
H620   H     0.20781   0.30904   0.97561   0.00000  Uiso   1.00
N621   N     0.16667   0.24999   0.62624   0.00000  Uiso   1.00
N622   N     0.16667   0.25001   0.87377   0.00000  Uiso   1.00
O623   O     0.16667   0.18453   0.78974   0.00000  Uiso   1.00
O624   O     0.16666   0.31546   0.71026   0.00000  Uiso   1.00
O625   O     0.16667   0.18453   0.71026   0.00000  Uiso   1.00
O626   O     0.16666   0.31547   0.78974   0.00000  Uiso   1.00
O627   O     0.09058   0.25000   0.78045   0.00000  Uiso   1.00
O628   O     0.24275   0.25000   0.71956   0.00000  Uiso   1.00
O629   O     0.09058   0.24999   0.70097   0.00000  Uiso   1.00
O630   O     0.24275   0.25000   0.79904   0.00000  Uiso   1.00
Zn631  Zn    0.16667   0.25000   0.80307   0.00000  Uiso   1.00
Zn632  Zn    0.16667   0.24999   0.69693   0.00000  Uiso   1.00
N633   N     0.32414   0.29864   0.70491   0.00000  Uiso   1.00
H634   H     0.29849   0.31851   0.72028   0.00000  Uiso   1.00
C635   C     0.02306   0.32449   0.67737   0.00000  Uiso   1.00
H636   H     0.33263   0.35144   0.65868   0.00000  Uiso   1.00
H637   H     0.03705   0.30314   0.64975   0.00000  Uiso   1.00
H638   H     0.05656   0.34025   0.70101   0.00000  Uiso   1.00
N639   N     0.00904   0.20880   0.79824   0.00000  Uiso   1.00
H640   H     0.32805   0.20879   0.83027   0.00000  Uiso   1.00
C641   C     0.00832   0.16440   0.77703   0.00000  Uiso   1.00
H642   H     0.02826   0.14083   0.80338   0.00000  Uiso   1.00
H643   H     0.02937   0.16429   0.74562   0.00000  Uiso   1.00
H644   H     0.30059   0.15264   0.76605   0.00000  Uiso   1.00
H645   H     0.13118   0.02667   0.80583   0.00000  Uiso   1.00
H646   H     0.15973   0.47224   0.67760   0.00000  Uiso   1.00
H647   H     0.22349   0.11546   0.69673   0.00000  Uiso   1.00
H648   H     0.19580   0.38841   0.82755   0.00000  Uiso   1.00
N649   N     0.24470   0.02902   0.69320   0.00000  Uiso   1.00
H650   H     0.24840   0.04657   0.66287   0.00000  Uiso   1.00
C651   C     0.29493   0.01507   0.71773   0.00000  Uiso   1.00
H652   H     0.31831   0.00022   0.69172   0.00000  Uiso   1.00
H653   H     0.28974   0.48917   0.74422   0.00000  Uiso   1.00
H654   H     0.31692   0.04427   0.73571   0.00000  Uiso   1.00
N655   N     0.21359   0.47492   0.84075   0.00000  Uiso   1.00
H656   H     0.20515   0.45756   0.86986   0.00000  Uiso   1.00
C657   C     0.26711   0.49144   0.84726   0.00000  Uiso   1.00
H658   H     0.27675   0.00724   0.88312   0.00000  Uiso   1.00
H659   H     0.27234   0.01725   0.82069   0.00000  Uiso   1.00
H660   H     0.29455   0.46344   0.84424   0.00000  Uiso   1.00
N661   N     0.07672   0.22349   0.61323   0.00000  Uiso   1.00
H662   H     0.04350   0.23900   0.59697   0.00000  Uiso   1.00
C663   C     0.06976   0.17545   0.61425   0.00000  Uiso   1.00
H664   H     0.10511   0.15962   0.63379   0.00000  Uiso   1.00
H665   H     0.03579   0.16743   0.63265   0.00000  Uiso   1.00
H666   H     0.06214   0.16134   0.57746   0.00000  Uiso   1.00
N667   N     0.22012   0.31772   0.88286   0.00000  Uiso   1.00
H668   H     0.23971   0.30707   0.85597   0.00000  Uiso   1.00
C669   C     0.24922   0.35155   0.91327   0.00000  Uiso   1.00
H670   H     0.26866   0.37506   0.89129   0.00000  Uiso   1.00
H671   H     0.28008   0.33575   0.93888   0.00000  Uiso   1.00
H672   H     0.22228   0.37132   0.93231   0.00000  Uiso   1.00
H673   H     0.24686   0.26800   0.63285   0.00000  Uiso   1.00
H674   H     0.12260   0.18977   0.86923   0.00000  Uiso   1.00
N675   N     0.26341   0.26363   0.54272   0.00000  Uiso   1.00
H676   H     0.29000   0.28255   0.56564   0.00000  Uiso   1.00
C677   C     0.28650   0.22338   0.52636   0.00000  Uiso   1.00
H678   H     0.32364   0.23209   0.51313   0.00000  Uiso   1.00
H679   H     0.26010   0.20702   0.99665   0.00000  Uiso   1.00
H680   H     0.29491   0.19945   0.55597   0.00000  Uiso   1.00
N681   N     0.11843   0.17452   0.96069   0.00000  Uiso   1.00
H682   H     0.08831   0.16025   0.93720   0.00000  Uiso   1.00
C683   C     0.15496   0.14145   0.98172   0.00000  Uiso   1.00
H684   H     0.17723   0.12724   0.95446   0.00000  Uiso   1.00
H685   H     0.13308   0.11395   0.99621   0.00000  Uiso   1.00
H686   H     0.18275   0.15639   0.51143   0.00000  Uiso   1.00
C687   C     0.50028   0.16395   0.74972   0.00000  Uiso   1.00
C688   C     0.50064   0.33626   0.75038   0.00000  Uiso   1.00
C689   C     0.45580   0.23741   0.54596   0.00000  Uiso   1.00
C690   C     0.52361   0.28228   0.95248   0.00000  Uiso   1.00
C691   C     0.45598   0.23744   0.59550   0.00000  Uiso   1.00
C692   C     0.52525   0.28313   0.90294   0.00000  Uiso   1.00
C693   C     0.54517   0.25957   0.60850   0.00000  Uiso   1.00
C694   C     0.47517   0.21565   0.89275   0.00000  Uiso   1.00
C695   C     0.54768   0.25680   0.55907   0.00000  Uiso   1.00
C696   C     0.47563   0.21239   0.94243   0.00000  Uiso   1.00
C697   C     0.50159   0.24657   0.52669   0.00000  Uiso   1.00
C698   C     0.50018   0.24663   0.97322   0.00000  Uiso   1.00
C699   C     0.40067   0.25275   0.73794   0.00000  Uiso   1.00
C700   C     0.59940   0.24949   0.76214   0.00000  Uiso   1.00
C701   C     0.34655   0.26251   0.73419   0.00000  Uiso   1.00
C702   C     0.65367   0.24274   0.76650   0.00000  Uiso   1.00
C703   C     0.48596   0.04585   0.78280   0.00000  Uiso   1.00
C704   C     0.50268   0.45401   0.71031   0.00000  Uiso   1.00
C705   C     0.47995   0.09158   0.78134   0.00000  Uiso   1.00
C706   C     0.49633   0.40811   0.70924   0.00000  Uiso   1.00
C707   C     0.50491   0.11626   0.74983   0.00000  Uiso   1.00
C708   C     0.50552   0.38443   0.75157   0.00000  Uiso   1.00
C709   C     0.53682   0.09567   0.72039   0.00000  Uiso   1.00
C710   C     0.52193   0.40672   0.79487   0.00000  Uiso   1.00
C711   C     0.54479   0.04978   0.72280   0.00000  Uiso   1.00
C712   C     0.53012   0.45273   0.79627   0.00000  Uiso   1.00
C713   C     0.51836   0.02483   0.75393   0.00000  Uiso   1.00
C714   C     0.51933   0.47643   0.75352   0.00000  Uiso   1.00
H715   H     0.45518   0.10760   0.80412   0.00000  Uiso   1.00
H716   H     0.48332   0.39129   0.67548   0.00000  Uiso   1.00
H717   H     0.41975   0.22947   0.52265   0.00000  Uiso   1.00
H718   H     0.54114   0.30904   0.97561   0.00000  Uiso   1.00
N719   N     0.50000   0.24999   0.62624   0.00000  Uiso   1.00
N720   N     0.50000   0.25001   0.87377   0.00000  Uiso   1.00
O721   O     0.50000   0.18453   0.78974   0.00000  Uiso   1.00
O722   O     0.50000   0.31546   0.71026   0.00000  Uiso   1.00
O723   O     0.50000   0.18453   0.71026   0.00000  Uiso   1.00
O724   O     0.50000   0.31547   0.78974   0.00000  Uiso   1.00
O725   O     0.42392   0.25000   0.78045   0.00000  Uiso   1.00
O726   O     0.57608   0.25000   0.71956   0.00000  Uiso   1.00
O727   O     0.42392   0.24999   0.70097   0.00000  Uiso   1.00
O728   O     0.57608   0.25000   0.79904   0.00000  Uiso   1.00
Zn729  Zn    0.50000   0.25000   0.80307   0.00000  Uiso   1.00
Zn730  Zn    0.50000   0.24999   0.69693   0.00000  Uiso   1.00
N731   N     0.65747   0.29864   0.70491   0.00000  Uiso   1.00
H732   H     0.63182   0.31851   0.72028   0.00000  Uiso   1.00
C733   C     0.35640   0.32449   0.67737   0.00000  Uiso   1.00
H734   H     0.66597   0.35144   0.65868   0.00000  Uiso   1.00
H735   H     0.37038   0.30314   0.64975   0.00000  Uiso   1.00
H736   H     0.38990   0.34025   0.70101   0.00000  Uiso   1.00
N737   N     0.34238   0.20880   0.79824   0.00000  Uiso   1.00
H738   H     0.66139   0.20879   0.83027   0.00000  Uiso   1.00
C739   C     0.34166   0.16440   0.77703   0.00000  Uiso   1.00
H740   H     0.36159   0.14083   0.80338   0.00000  Uiso   1.00
H741   H     0.36270   0.16429   0.74562   0.00000  Uiso   1.00
H742   H     0.63392   0.15264   0.76605   0.00000  Uiso   1.00
H743   H     0.46452   0.02667   0.80583   0.00000  Uiso   1.00
H744   H     0.49307   0.47224   0.67760   0.00000  Uiso   1.00
H745   H     0.55682   0.11546   0.69673   0.00000  Uiso   1.00
H746   H     0.52913   0.38841   0.82755   0.00000  Uiso   1.00
N747   N     0.57804   0.02902   0.69320   0.00000  Uiso   1.00
H748   H     0.58174   0.04657   0.66287   0.00000  Uiso   1.00
C749   C     0.62826   0.01507   0.71773   0.00000  Uiso   1.00
H750   H     0.65164   0.00022   0.69172   0.00000  Uiso   1.00
H751   H     0.62307   0.48917   0.74422   0.00000  Uiso   1.00
H752   H     0.65026   0.04427   0.73571   0.00000  Uiso   1.00
N753   N     0.54692   0.47492   0.84075   0.00000  Uiso   1.00
H754   H     0.53848   0.45756   0.86986   0.00000  Uiso   1.00
C755   C     0.60044   0.49144   0.84726   0.00000  Uiso   1.00
H756   H     0.61008   0.00724   0.88312   0.00000  Uiso   1.00
H757   H     0.60567   0.01725   0.82069   0.00000  Uiso   1.00
H758   H     0.62789   0.46344   0.84424   0.00000  Uiso   1.00
N759   N     0.41005   0.22349   0.61323   0.00000  Uiso   1.00
H760   H     0.37683   0.23900   0.59697   0.00000  Uiso   1.00
C761   C     0.40310   0.17545   0.61425   0.00000  Uiso   1.00
H762   H     0.43845   0.15962   0.63379   0.00000  Uiso   1.00
H763   H     0.36912   0.16743   0.63265   0.00000  Uiso   1.00
H764   H     0.39548   0.16134   0.57746   0.00000  Uiso   1.00
N765   N     0.55345   0.31772   0.88286   0.00000  Uiso   1.00
H766   H     0.57304   0.30707   0.85597   0.00000  Uiso   1.00
C767   C     0.58256   0.35155   0.91327   0.00000  Uiso   1.00
H768   H     0.60200   0.37506   0.89129   0.00000  Uiso   1.00
H769   H     0.61342   0.33575   0.93888   0.00000  Uiso   1.00
H770   H     0.55562   0.37132   0.93231   0.00000  Uiso   1.00
H771   H     0.58019   0.26800   0.63285   0.00000  Uiso   1.00
H772   H     0.45593   0.18977   0.86923   0.00000  Uiso   1.00
N773   N     0.59675   0.26363   0.54272   0.00000  Uiso   1.00
H774   H     0.62333   0.28255   0.56564   0.00000  Uiso   1.00
C775   C     0.61984   0.22338   0.52636   0.00000  Uiso   1.00
H776   H     0.65697   0.23209   0.51313   0.00000  Uiso   1.00
H777   H     0.59343   0.20702   0.99665   0.00000  Uiso   1.00
H778   H     0.62824   0.19945   0.55597   0.00000  Uiso   1.00
N779   N     0.45177   0.17452   0.96069   0.00000  Uiso   1.00
H780   H     0.42164   0.16025   0.93720   0.00000  Uiso   1.00
C781   C     0.48830   0.14145   0.98172   0.00000  Uiso   1.00
H782   H     0.51056   0.12724   0.95446   0.00000  Uiso   1.00
H783   H     0.46641   0.11395   0.99621   0.00000  Uiso   1.00
H784   H     0.51608   0.15639   0.51143   0.00000  Uiso   1.00
C785   C     0.83362   0.16395   0.74972   0.00000  Uiso   1.00
C786   C     0.83397   0.33626   0.75038   0.00000  Uiso   1.00
C787   C     0.78913   0.23741   0.54596   0.00000  Uiso   1.00
C788   C     0.85694   0.28228   0.95248   0.00000  Uiso   1.00
C789   C     0.78932   0.23744   0.59550   0.00000  Uiso   1.00
C790   C     0.85859   0.28313   0.90294   0.00000  Uiso   1.00
C791   C     0.87850   0.25957   0.60850   0.00000  Uiso   1.00
C792   C     0.80851   0.21565   0.89275   0.00000  Uiso   1.00
C793   C     0.88102   0.25680   0.55907   0.00000  Uiso   1.00
C794   C     0.80896   0.21239   0.94243   0.00000  Uiso   1.00
C795   C     0.83492   0.24657   0.52669   0.00000  Uiso   1.00
C796   C     0.83351   0.24663   0.97322   0.00000  Uiso   1.00
C797   C     0.73400   0.25275   0.73794   0.00000  Uiso   1.00
C798   C     0.93273   0.24949   0.76214   0.00000  Uiso   1.00
C799   C     0.67988   0.26251   0.73419   0.00000  Uiso   1.00
C800   C     0.98700   0.24274   0.76650   0.00000  Uiso   1.00
C801   C     0.81930   0.04585   0.78280   0.00000  Uiso   1.00
C802   C     0.83602   0.45401   0.71031   0.00000  Uiso   1.00
C803   C     0.81329   0.09158   0.78134   0.00000  Uiso   1.00
C804   C     0.82966   0.40811   0.70924   0.00000  Uiso   1.00
C805   C     0.83824   0.11626   0.74983   0.00000  Uiso   1.00
C806   C     0.83886   0.38443   0.75157   0.00000  Uiso   1.00
C807   C     0.87016   0.09567   0.72039   0.00000  Uiso   1.00
C808   C     0.85526   0.40672   0.79487   0.00000  Uiso   1.00
C809   C     0.87813   0.04978   0.72280   0.00000  Uiso   1.00
C810   C     0.86345   0.45273   0.79627   0.00000  Uiso   1.00
C811   C     0.85169   0.02483   0.75393   0.00000  Uiso   1.00
C812   C     0.85267   0.47643   0.75352   0.00000  Uiso   1.00
H813   H     0.78852   0.10760   0.80412   0.00000  Uiso   1.00
H814   H     0.81665   0.39129   0.67548   0.00000  Uiso   1.00
H815   H     0.75308   0.22947   0.52265   0.00000  Uiso   1.00
H816   H     0.87448   0.30904   0.97561   0.00000  Uiso   1.00
N817   N     0.83333   0.24999   0.62624   0.00000  Uiso   1.00
N818   N     0.83333   0.25001   0.87377   0.00000  Uiso   1.00
O819   O     0.83334   0.18453   0.78974   0.00000  Uiso   1.00
O820   O     0.83333   0.31546   0.71026   0.00000  Uiso   1.00
O821   O     0.83334   0.18453   0.71026   0.00000  Uiso   1.00
O822   O     0.83333   0.31547   0.78974   0.00000  Uiso   1.00
O823   O     0.75725   0.25000   0.78045   0.00000  Uiso   1.00
O824   O     0.90942   0.25000   0.71956   0.00000  Uiso   1.00
O825   O     0.75725   0.24999   0.70097   0.00000  Uiso   1.00
O826   O     0.90942   0.25000   0.79904   0.00000  Uiso   1.00
Zn827  Zn    0.83333   0.25000   0.80307   0.00000  Uiso   1.00
Zn828  Zn    0.83333   0.24999   0.69693   0.00000  Uiso   1.00
N829   N     0.99080   0.29864   0.70491   0.00000  Uiso   1.00
H830   H     0.96515   0.31851   0.72028   0.00000  Uiso   1.00
C831   C     0.68973   0.32449   0.67737   0.00000  Uiso   1.00
H832   H     0.99930   0.35144   0.65868   0.00000  Uiso   1.00
H833   H     0.70371   0.30314   0.64975   0.00000  Uiso   1.00
H834   H     0.72323   0.34025   0.70101   0.00000  Uiso   1.00
N835   N     0.67571   0.20880   0.79824   0.00000  Uiso   1.00
H836   H     0.99472   0.20879   0.83027   0.00000  Uiso   1.00
C837   C     0.67499   0.16440   0.77703   0.00000  Uiso   1.00
H838   H     0.69493   0.14083   0.80338   0.00000  Uiso   1.00
H839   H     0.69604   0.16429   0.74562   0.00000  Uiso   1.00
H840   H     0.96726   0.15264   0.76605   0.00000  Uiso   1.00
H841   H     0.79785   0.02667   0.80583   0.00000  Uiso   1.00
H842   H     0.82640   0.47224   0.67760   0.00000  Uiso   1.00
H843   H     0.89015   0.11546   0.69673   0.00000  Uiso   1.00
H844   H     0.86246   0.38841   0.82755   0.00000  Uiso   1.00
N845   N     0.91137   0.02902   0.69320   0.00000  Uiso   1.00
H846   H     0.91507   0.04657   0.66287   0.00000  Uiso   1.00
C847   C     0.96160   0.01507   0.71773   0.00000  Uiso   1.00
H848   H     0.98498   0.00022   0.69172   0.00000  Uiso   1.00
H849   H     0.95640   0.48917   0.74422   0.00000  Uiso   1.00
H850   H     0.98359   0.04427   0.73571   0.00000  Uiso   1.00
N851   N     0.88026   0.47492   0.84075   0.00000  Uiso   1.00
H852   H     0.87181   0.45756   0.86986   0.00000  Uiso   1.00
C853   C     0.93377   0.49144   0.84726   0.00000  Uiso   1.00
H854   H     0.94342   0.00724   0.88312   0.00000  Uiso   1.00
H855   H     0.93901   0.01725   0.82069   0.00000  Uiso   1.00
H856   H     0.96122   0.46344   0.84424   0.00000  Uiso   1.00
N857   N     0.74339   0.22349   0.61323   0.00000  Uiso   1.00
H858   H     0.71016   0.23900   0.59697   0.00000  Uiso   1.00
C859   C     0.73643   0.17545   0.61425   0.00000  Uiso   1.00
H860   H     0.77178   0.15962   0.63379   0.00000  Uiso   1.00
H861   H     0.70245   0.16743   0.63265   0.00000  Uiso   1.00
H862   H     0.72881   0.16134   0.57746   0.00000  Uiso   1.00
N863   N     0.88678   0.31772   0.88286   0.00000  Uiso   1.00
H864   H     0.90638   0.30707   0.85597   0.00000  Uiso   1.00
C865   C     0.91589   0.35155   0.91327   0.00000  Uiso   1.00
H866   H     0.93533   0.37506   0.89129   0.00000  Uiso   1.00
H867   H     0.94675   0.33575   0.93888   0.00000  Uiso   1.00
H868   H     0.88895   0.37132   0.93231   0.00000  Uiso   1.00
H869   H     0.91352   0.26800   0.63285   0.00000  Uiso   1.00
H870   H     0.78927   0.18977   0.86923   0.00000  Uiso   1.00
N871   N     0.93008   0.26363   0.54272   0.00000  Uiso   1.00
H872   H     0.95666   0.28255   0.56564   0.00000  Uiso   1.00
C873   C     0.95317   0.22338   0.52636   0.00000  Uiso   1.00
H874   H     0.99031   0.23209   0.51313   0.00000  Uiso   1.00
H875   H     0.92677   0.20702   0.99665   0.00000  Uiso   1.00
H876   H     0.96158   0.19945   0.55597   0.00000  Uiso   1.00
N877   N     0.78510   0.17452   0.96069   0.00000  Uiso   1.00
H878   H     0.75498   0.16025   0.93720   0.00000  Uiso   1.00
C879   C     0.82163   0.14145   0.98172   0.00000  Uiso   1.00
H880   H     0.84389   0.12724   0.95446   0.00000  Uiso   1.00
H881   H     0.79975   0.11395   0.99621   0.00000  Uiso   1.00
H882   H     0.84942   0.15639   0.51143   0.00000  Uiso   1.00
C883   C     0.16695   0.66395   0.74972   0.00000  Uiso   1.00
C884   C     0.16731   0.83626   0.75038   0.00000  Uiso   1.00
C885   C     0.12247   0.73741   0.54596   0.00000  Uiso   1.00
C886   C     0.19027   0.78228   0.95248   0.00000  Uiso   1.00
C887   C     0.12265   0.73744   0.59550   0.00000  Uiso   1.00
C888   C     0.19192   0.78313   0.90294   0.00000  Uiso   1.00
C889   C     0.21184   0.75957   0.60850   0.00000  Uiso   1.00
C890   C     0.14184   0.71565   0.89275   0.00000  Uiso   1.00
C891   C     0.21435   0.75680   0.55907   0.00000  Uiso   1.00
C892   C     0.14229   0.71239   0.94243   0.00000  Uiso   1.00
C893   C     0.16825   0.74657   0.52669   0.00000  Uiso   1.00
C894   C     0.16685   0.74663   0.97322   0.00000  Uiso   1.00
C895   C     0.06734   0.75275   0.73794   0.00000  Uiso   1.00
C896   C     0.26606   0.74949   0.76214   0.00000  Uiso   1.00
C897   C     0.01322   0.76251   0.73419   0.00000  Uiso   1.00
C898   C     0.32033   0.74274   0.76650   0.00000  Uiso   1.00
C899   C     0.15263   0.54585   0.78280   0.00000  Uiso   1.00
C900   C     0.16935   0.95401   0.71031   0.00000  Uiso   1.00
C901   C     0.14662   0.59158   0.78134   0.00000  Uiso   1.00
C902   C     0.16300   0.90811   0.70924   0.00000  Uiso   1.00
C903   C     0.17158   0.61626   0.74983   0.00000  Uiso   1.00
C904   C     0.17219   0.88443   0.75157   0.00000  Uiso   1.00
C905   C     0.20349   0.59567   0.72039   0.00000  Uiso   1.00
C906   C     0.18860   0.90672   0.79487   0.00000  Uiso   1.00
C907   C     0.21146   0.54978   0.72280   0.00000  Uiso   1.00
C908   C     0.19678   0.95273   0.79627   0.00000  Uiso   1.00
C909   C     0.18502   0.52483   0.75393   0.00000  Uiso   1.00
C910   C     0.18600   0.97643   0.75352   0.00000  Uiso   1.00
H911   H     0.12185   0.60760   0.80412   0.00000  Uiso   1.00
H912   H     0.14999   0.89129   0.67548   0.00000  Uiso   1.00
H913   H     0.08641   0.72947   0.52265   0.00000  Uiso   1.00
H914   H     0.20781   0.80904   0.97561   0.00000  Uiso   1.00
N915   N     0.16667   0.74999   0.62624   0.00000  Uiso   1.00
N916   N     0.16667   0.75001   0.87377   0.00000  Uiso   1.00
O917   O     0.16667   0.68453   0.78974   0.00000  Uiso   1.00
O918   O     0.16666   0.81546   0.71026   0.00000  Uiso   1.00
O919   O     0.16667   0.68453   0.71026   0.00000  Uiso   1.00
O920   O     0.16666   0.81547   0.78974   0.00000  Uiso   1.00
O921   O     0.09058   0.75000   0.78045   0.00000  Uiso   1.00
O922   O     0.24275   0.75000   0.71956   0.00000  Uiso   1.00
O923   O     0.09058   0.74999   0.70097   0.00000  Uiso   1.00
O924   O     0.24275   0.75000   0.79904   0.00000  Uiso   1.00
Zn925  Zn    0.16667   0.75000   0.80307   0.00000  Uiso   1.00
Zn926  Zn    0.16667   0.74999   0.69693   0.00000  Uiso   1.00
N927   N     0.32414   0.79864   0.70491   0.00000  Uiso   1.00
H928   H     0.29849   0.81851   0.72028   0.00000  Uiso   1.00
C929   C     0.02306   0.82449   0.67737   0.00000  Uiso   1.00
H930   H     0.33263   0.85144   0.65868   0.00000  Uiso   1.00
H931   H     0.03705   0.80314   0.64975   0.00000  Uiso   1.00
H932   H     0.05656   0.84025   0.70101   0.00000  Uiso   1.00
N933   N     0.00904   0.70880   0.79824   0.00000  Uiso   1.00
H934   H     0.32805   0.70879   0.83027   0.00000  Uiso   1.00
C935   C     0.00832   0.66440   0.77703   0.00000  Uiso   1.00
H936   H     0.02826   0.64083   0.80338   0.00000  Uiso   1.00
H937   H     0.02937   0.66429   0.74562   0.00000  Uiso   1.00
H938   H     0.30059   0.65264   0.76605   0.00000  Uiso   1.00
H939   H     0.13118   0.52667   0.80583   0.00000  Uiso   1.00
H940   H     0.15973   0.97224   0.67760   0.00000  Uiso   1.00
H941   H     0.22349   0.61546   0.69673   0.00000  Uiso   1.00
H942   H     0.19580   0.88841   0.82755   0.00000  Uiso   1.00
N943   N     0.24470   0.52902   0.69320   0.00000  Uiso   1.00
H944   H     0.24840   0.54657   0.66287   0.00000  Uiso   1.00
C945   C     0.29493   0.51507   0.71773   0.00000  Uiso   1.00
H946   H     0.31831   0.50022   0.69172   0.00000  Uiso   1.00
H947   H     0.28974   0.98917   0.74422   0.00000  Uiso   1.00
H948   H     0.31692   0.54427   0.73571   0.00000  Uiso   1.00
N949   N     0.21359   0.97492   0.84075   0.00000  Uiso   1.00
H950   H     0.20515   0.95756   0.86986   0.00000  Uiso   1.00
C951   C     0.26711   0.99144   0.84726   0.00000  Uiso   1.00
H952   H     0.27675   0.50724   0.88312   0.00000  Uiso   1.00
H953   H     0.27234   0.51725   0.82069   0.00000  Uiso   1.00
H954   H     0.29455   0.96344   0.84424   0.00000  Uiso   1.00
N955   N     0.07672   0.72349   0.61323   0.00000  Uiso   1.00
H956   H     0.04350   0.73900   0.59697   0.00000  Uiso   1.00
C957   C     0.06976   0.67545   0.61425   0.00000  Uiso   1.00
H958   H     0.10511   0.65962   0.63379   0.00000  Uiso   1.00
H959   H     0.03579   0.66743   0.63265   0.00000  Uiso   1.00
H960   H     0.06214   0.66134   0.57746   0.00000  Uiso   1.00
N961   N     0.22012   0.81772   0.88286   0.00000  Uiso   1.00
H962   H     0.23971   0.80707   0.85597   0.00000  Uiso   1.00
C963   C     0.24922   0.85155   0.91327   0.00000  Uiso   1.00
H964   H     0.26866   0.87506   0.89129   0.00000  Uiso   1.00
H965   H     0.28008   0.83575   0.93888   0.00000  Uiso   1.00
H966   H     0.22228   0.87132   0.93231   0.00000  Uiso   1.00
H967   H     0.24686   0.76800   0.63285   0.00000  Uiso   1.00
H968   H     0.12260   0.68977   0.86923   0.00000  Uiso   1.00
N969   N     0.26341   0.76363   0.54272   0.00000  Uiso   1.00
H970   H     0.29000   0.78255   0.56564   0.00000  Uiso   1.00
C971   C     0.28650   0.72338   0.52636   0.00000  Uiso   1.00
H972   H     0.32364   0.73209   0.51313   0.00000  Uiso   1.00
H973   H     0.26010   0.70702   0.99665   0.00000  Uiso   1.00
H974   H     0.29491   0.69945   0.55597   0.00000  Uiso   1.00
N975   N     0.11843   0.67452   0.96069   0.00000  Uiso   1.00
H976   H     0.08831   0.66025   0.93720   0.00000  Uiso   1.00
C977   C     0.15496   0.64145   0.98172   0.00000  Uiso   1.00
H978   H     0.17723   0.62724   0.95446   0.00000  Uiso   1.00
H979   H     0.13308   0.61395   0.99621   0.00000  Uiso   1.00
H980   H     0.18275   0.65639   0.51143   0.00000  Uiso   1.00
C981   C     0.50028   0.66395   0.74972   0.00000  Uiso   1.00
C982   C     0.50064   0.83626   0.75038   0.00000  Uiso   1.00
C983   C     0.45580   0.73741   0.54596   0.00000  Uiso   1.00
C984   C     0.52361   0.78228   0.95248   0.00000  Uiso   1.00
C985   C     0.45598   0.73744   0.59550   0.00000  Uiso   1.00
C986   C     0.52525   0.78313   0.90294   0.00000  Uiso   1.00
C987   C     0.54517   0.75957   0.60850   0.00000  Uiso   1.00
C988   C     0.47517   0.71565   0.89275   0.00000  Uiso   1.00
C989   C     0.54768   0.75680   0.55907   0.00000  Uiso   1.00
C990   C     0.47563   0.71239   0.94243   0.00000  Uiso   1.00
C991   C     0.50159   0.74657   0.52669   0.00000  Uiso   1.00
C992   C     0.50018   0.74663   0.97322   0.00000  Uiso   1.00
C993   C     0.40067   0.75275   0.73794   0.00000  Uiso   1.00
C994   C     0.59940   0.74949   0.76214   0.00000  Uiso   1.00
C995   C     0.34655   0.76251   0.73419   0.00000  Uiso   1.00
C996   C     0.65367   0.74274   0.76650   0.00000  Uiso   1.00
C997   C     0.48596   0.54585   0.78280   0.00000  Uiso   1.00
C998   C     0.50268   0.95401   0.71031   0.00000  Uiso   1.00
C999   C     0.47995   0.59158   0.78134   0.00000  Uiso   1.00
C1000  C     0.49633   0.90811   0.70924   0.00000  Uiso   1.00
C1001  C     0.50491   0.61626   0.74983   0.00000  Uiso   1.00
C1002  C     0.50552   0.88443   0.75157   0.00000  Uiso   1.00
C1003  C     0.53682   0.59567   0.72039   0.00000  Uiso   1.00
C1004  C     0.52193   0.90672   0.79487   0.00000  Uiso   1.00
C1005  C     0.54479   0.54978   0.72280   0.00000  Uiso   1.00
C1006  C     0.53012   0.95273   0.79627   0.00000  Uiso   1.00
C1007  C     0.51836   0.52483   0.75393   0.00000  Uiso   1.00
C1008  C     0.51933   0.97643   0.75352   0.00000  Uiso   1.00
H1009  H     0.45518   0.60760   0.80412   0.00000  Uiso   1.00
H1010  H     0.48332   0.89129   0.67548   0.00000  Uiso   1.00
H1011  H     0.41975   0.72947   0.52265   0.00000  Uiso   1.00
H1012  H     0.54114   0.80904   0.97561   0.00000  Uiso   1.00
N1013  N     0.50000   0.74999   0.62624   0.00000  Uiso   1.00
N1014  N     0.50000   0.75001   0.87377   0.00000  Uiso   1.00
O1015  O     0.50000   0.68453   0.78974   0.00000  Uiso   1.00
O1016  O     0.50000   0.81546   0.71026   0.00000  Uiso   1.00
O1017  O     0.50000   0.68453   0.71026   0.00000  Uiso   1.00
O1018  O     0.50000   0.81547   0.78974   0.00000  Uiso   1.00
O1019  O     0.42392   0.75000   0.78045   0.00000  Uiso   1.00
O1020  O     0.57608   0.75000   0.71956   0.00000  Uiso   1.00
O1021  O     0.42392   0.74999   0.70097   0.00000  Uiso   1.00
O1022  O     0.57608   0.75000   0.79904   0.00000  Uiso   1.00
Zn1023 Zn    0.50000   0.75000   0.80307   0.00000  Uiso   1.00
Zn1024 Zn    0.50000   0.74999   0.69693   0.00000  Uiso   1.00
N1025  N     0.65747   0.79864   0.70491   0.00000  Uiso   1.00
H1026  H     0.63182   0.81851   0.72028   0.00000  Uiso   1.00
C1027  C     0.35640   0.82449   0.67737   0.00000  Uiso   1.00
H1028  H     0.66597   0.85144   0.65868   0.00000  Uiso   1.00
H1029  H     0.37038   0.80314   0.64975   0.00000  Uiso   1.00
H1030  H     0.38990   0.84025   0.70101   0.00000  Uiso   1.00
N1031  N     0.34238   0.70880   0.79824   0.00000  Uiso   1.00
H1032  H     0.66139   0.70879   0.83027   0.00000  Uiso   1.00
C1033  C     0.34166   0.66440   0.77703   0.00000  Uiso   1.00
H1034  H     0.36159   0.64083   0.80338   0.00000  Uiso   1.00
H1035  H     0.36270   0.66429   0.74562   0.00000  Uiso   1.00
H1036  H     0.63392   0.65264   0.76605   0.00000  Uiso   1.00
H1037  H     0.46452   0.52667   0.80583   0.00000  Uiso   1.00
H1038  H     0.49307   0.97224   0.67760   0.00000  Uiso   1.00
H1039  H     0.55682   0.61546   0.69673   0.00000  Uiso   1.00
H1040  H     0.52913   0.88841   0.82755   0.00000  Uiso   1.00
N1041  N     0.57804   0.52902   0.69320   0.00000  Uiso   1.00
H1042  H     0.58174   0.54657   0.66287   0.00000  Uiso   1.00
C1043  C     0.62826   0.51507   0.71773   0.00000  Uiso   1.00
H1044  H     0.65164   0.50022   0.69172   0.00000  Uiso   1.00
H1045  H     0.62307   0.98917   0.74422   0.00000  Uiso   1.00
H1046  H     0.65026   0.54427   0.73571   0.00000  Uiso   1.00
N1047  N     0.54692   0.97492   0.84075   0.00000  Uiso   1.00
H1048  H     0.53848   0.95756   0.86986   0.00000  Uiso   1.00
C1049  C     0.60044   0.99144   0.84726   0.00000  Uiso   1.00
H1050  H     0.61008   0.50724   0.88312   0.00000  Uiso   1.00
H1051  H     0.60567   0.51725   0.82069   0.00000  Uiso   1.00
H1052  H     0.62789   0.96344   0.84424   0.00000  Uiso   1.00
N1053  N     0.41005   0.72349   0.61323   0.00000  Uiso   1.00
H1054  H     0.37683   0.73900   0.59697   0.00000  Uiso   1.00
C1055  C     0.40310   0.67545   0.61425   0.00000  Uiso   1.00
H1056  H     0.43845   0.65962   0.63379   0.00000  Uiso   1.00
H1057  H     0.36912   0.66743   0.63265   0.00000  Uiso   1.00
H1058  H     0.39548   0.66134   0.57746   0.00000  Uiso   1.00
N1059  N     0.55345   0.81772   0.88286   0.00000  Uiso   1.00
H1060  H     0.57304   0.80707   0.85597   0.00000  Uiso   1.00
C1061  C     0.58256   0.85155   0.91327   0.00000  Uiso   1.00
H1062  H     0.60200   0.87506   0.89129   0.00000  Uiso   1.00
H1063  H     0.61342   0.83575   0.93888   0.00000  Uiso   1.00
H1064  H     0.55562   0.87132   0.93231   0.00000  Uiso   1.00
H1065  H     0.58019   0.76800   0.63285   0.00000  Uiso   1.00
H1066  H     0.45593   0.68977   0.86923   0.00000  Uiso   1.00
N1067  N     0.59675   0.76363   0.54272   0.00000  Uiso   1.00
H1068  H     0.62333   0.78255   0.56564   0.00000  Uiso   1.00
C1069  C     0.61984   0.72338   0.52636   0.00000  Uiso   1.00
H1070  H     0.65697   0.73209   0.51313   0.00000  Uiso   1.00
H1071  H     0.59343   0.70702   0.99665   0.00000  Uiso   1.00
H1072  H     0.62824   0.69945   0.55597   0.00000  Uiso   1.00
N1073  N     0.45177   0.67452   0.96069   0.00000  Uiso   1.00
H1074  H     0.42164   0.66025   0.93720   0.00000  Uiso   1.00
C1075  C     0.48830   0.64145   0.98172   0.00000  Uiso   1.00
H1076  H     0.51056   0.62724   0.95446   0.00000  Uiso   1.00
H1077  H     0.46641   0.61395   0.99621   0.00000  Uiso   1.00
H1078  H     0.51608   0.65639   0.51143   0.00000  Uiso   1.00
C1079  C     0.83362   0.66395   0.74972   0.00000  Uiso   1.00
C1080  C     0.83397   0.83626   0.75038   0.00000  Uiso   1.00
C1081  C     0.78913   0.73741   0.54596   0.00000  Uiso   1.00
C1082  C     0.85694   0.78228   0.95248   0.00000  Uiso   1.00
C1083  C     0.78932   0.73744   0.59550   0.00000  Uiso   1.00
C1084  C     0.85859   0.78313   0.90294   0.00000  Uiso   1.00
C1085  C     0.87850   0.75957   0.60850   0.00000  Uiso   1.00
C1086  C     0.80851   0.71565   0.89275   0.00000  Uiso   1.00
C1087  C     0.88102   0.75680   0.55907   0.00000  Uiso   1.00
C1088  C     0.80896   0.71239   0.94243   0.00000  Uiso   1.00
C1089  C     0.83492   0.74657   0.52669   0.00000  Uiso   1.00
C1090  C     0.83351   0.74663   0.97322   0.00000  Uiso   1.00
C1091  C     0.73400   0.75275   0.73794   0.00000  Uiso   1.00
C1092  C     0.93273   0.74949   0.76214   0.00000  Uiso   1.00
C1093  C     0.67988   0.76251   0.73419   0.00000  Uiso   1.00
C1094  C     0.98700   0.74274   0.76650   0.00000  Uiso   1.00
C1095  C     0.81930   0.54585   0.78280   0.00000  Uiso   1.00
C1096  C     0.83602   0.95401   0.71031   0.00000  Uiso   1.00
C1097  C     0.81329   0.59158   0.78134   0.00000  Uiso   1.00
C1098  C     0.82966   0.90811   0.70924   0.00000  Uiso   1.00
C1099  C     0.83824   0.61626   0.74983   0.00000  Uiso   1.00
C1100  C     0.83886   0.88443   0.75157   0.00000  Uiso   1.00
C1101  C     0.87016   0.59567   0.72039   0.00000  Uiso   1.00
C1102  C     0.85526   0.90672   0.79487   0.00000  Uiso   1.00
C1103  C     0.87813   0.54978   0.72280   0.00000  Uiso   1.00
C1104  C     0.86345   0.95273   0.79627   0.00000  Uiso   1.00
C1105  C     0.85169   0.52483   0.75393   0.00000  Uiso   1.00
C1106  C     0.85267   0.97643   0.75352   0.00000  Uiso   1.00
H1107  H     0.78852   0.60760   0.80412   0.00000  Uiso   1.00
H1108  H     0.81665   0.89129   0.67548   0.00000  Uiso   1.00
H1109  H     0.75308   0.72947   0.52265   0.00000  Uiso   1.00
H1110  H     0.87448   0.80904   0.97561   0.00000  Uiso   1.00
N1111  N     0.83333   0.74999   0.62624   0.00000  Uiso   1.00
N1112  N     0.83333   0.75001   0.87377   0.00000  Uiso   1.00
O1113  O     0.83334   0.68453   0.78974   0.00000  Uiso   1.00
O1114  O     0.83333   0.81546   0.71026   0.00000  Uiso   1.00
O1115  O     0.83334   0.68453   0.71026   0.00000  Uiso   1.00
O1116  O     0.83333   0.81547   0.78974   0.00000  Uiso   1.00
O1117  O     0.75725   0.75000   0.78045   0.00000  Uiso   1.00
O1118  O     0.90942   0.75000   0.71956   0.00000  Uiso   1.00
O1119  O     0.75725   0.74999   0.70097   0.00000  Uiso   1.00
O1120  O     0.90942   0.75000   0.79904   0.00000  Uiso   1.00
Zn1121 Zn    0.83333   0.75000   0.80307   0.00000  Uiso   1.00
Zn1122 Zn    0.83333   0.74999   0.69693   0.00000  Uiso   1.00
N1123  N     0.99080   0.79864   0.70491   0.00000  Uiso   1.00
H1124  H     0.96515   0.81851   0.72028   0.00000  Uiso   1.00
C1125  C     0.68973   0.82449   0.67737   0.00000  Uiso   1.00
H1126  H     0.99930   0.85144   0.65868   0.00000  Uiso   1.00
H1127  H     0.70371   0.80314   0.64975   0.00000  Uiso   1.00
H1128  H     0.72323   0.84025   0.70101   0.00000  Uiso   1.00
N1129  N     0.67571   0.70880   0.79824   0.00000  Uiso   1.00
H1130  H     0.99472   0.70879   0.83027   0.00000  Uiso   1.00
C1131  C     0.67499   0.66440   0.77703   0.00000  Uiso   1.00
H1132  H     0.69493   0.64083   0.80338   0.00000  Uiso   1.00
H1133  H     0.69604   0.66429   0.74562   0.00000  Uiso   1.00
H1134  H     0.96726   0.65264   0.76605   0.00000  Uiso   1.00
H1135  H     0.79785   0.52667   0.80583   0.00000  Uiso   1.00
H1136  H     0.82640   0.97224   0.67760   0.00000  Uiso   1.00
H1137  H     0.89015   0.61546   0.69673   0.00000  Uiso   1.00
H1138  H     0.86246   0.88841   0.82755   0.00000  Uiso   1.00
N1139  N     0.91137   0.52902   0.69320   0.00000  Uiso   1.00
H1140  H     0.91507   0.54657   0.66287   0.00000  Uiso   1.00
C1141  C     0.96160   0.51507   0.71773   0.00000  Uiso   1.00
H1142  H     0.98498   0.50022   0.69172   0.00000  Uiso   1.00
H1143  H     0.95640   0.98917   0.74422   0.00000  Uiso   1.00
H1144  H     0.98359   0.54427   0.73571   0.00000  Uiso   1.00
N1145  N     0.88026   0.97492   0.84075   0.00000  Uiso   1.00
H1146  H     0.87181   0.95756   0.86986   0.00000  Uiso   1.00
C1147  C     0.93377   0.99144   0.84726   0.00000  Uiso   1.00
H1148  H     0.94342   0.50724   0.88312   0.00000  Uiso   1.00
H1149  H     0.93901   0.51725   0.82069   0.00000  Uiso   1.00
H1150  H     0.96122   0.96344   0.84424   0.00000  Uiso   1.00
N1151  N     0.74339   0.72349   0.61323   0.00000  Uiso   1.00
H1152  H     0.71016   0.73900   0.59697   0.00000  Uiso   1.00
C1153  C     0.73643   0.67545   0.61425   0.00000  Uiso   1.00
H1154  H     0.77178   0.65962   0.63379   0.00000  Uiso   1.00
H1155  H     0.70245   0.66743   0.63265   0.00000  Uiso   1.00
H1156  H     0.72881   0.66134   0.57746   0.00000  Uiso   1.00
N1157  N     0.88678   0.81772   0.88286   0.00000  Uiso   1.00
H1158  H     0.90638   0.80707   0.85597   0.00000  Uiso   1.00
C1159  C     0.91589   0.85155   0.91327   0.00000  Uiso   1.00
H1160  H     0.93533   0.87506   0.89129   0.00000  Uiso   1.00
H1161  H     0.94675   0.83575   0.93888   0.00000  Uiso   1.00
H1162  H     0.88895   0.87132   0.93231   0.00000  Uiso   1.00
H1163  H     0.91352   0.76800   0.63285   0.00000  Uiso   1.00
H1164  H     0.78927   0.68977   0.86923   0.00000  Uiso   1.00
N1165  N     0.93008   0.76363   0.54272   0.00000  Uiso   1.00
H1166  H     0.95666   0.78255   0.56564   0.00000  Uiso   1.00
C1167  C     0.95317   0.72338   0.52636   0.00000  Uiso   1.00
H1168  H     0.99031   0.73209   0.51313   0.00000  Uiso   1.00
H1169  H     0.92677   0.70702   0.99665   0.00000  Uiso   1.00
H1170  H     0.96158   0.69945   0.55597   0.00000  Uiso   1.00
N1171  N     0.78510   0.67452   0.96069   0.00000  Uiso   1.00
H1172  H     0.75498   0.66025   0.93720   0.00000  Uiso   1.00
C1173  C     0.82163   0.64145   0.98172   0.00000  Uiso   1.00
H1174  H     0.84389   0.62724   0.95446   0.00000  Uiso   1.00
H1175  H     0.79975   0.61395   0.99621   0.00000  Uiso   1.00
H1176  H     0.84942   0.65639   0.51143   0.00000  Uiso   1.00
loop_
_geom_bond_atom_site_label_1
_geom_bond_atom_site_label_2
_geom_bond_distance
_geom_bond_site_symmetry_2
_ccdc_geom_bond_type
C1     C21     1.431   .     S
C1     O37     1.287   .     A
C1     O35     1.286   .     A
C2     C22     1.443   .     S
C2     O38     1.290   .     A
C2     O36     1.289   .     A
C3     H31     1.082   .     S
C3     C5      1.408   .     A
C3     C11     1.399   .     A
C4     C6      1.416   .     A
C4     H32     1.080   .     S
C4     C12     1.399   .     A
C5     N33     1.373   .     A
C5     N73     1.415   .     S
C6     N34     1.377   .     A
C6     N79     1.431   .     S
C7     N33     1.365   .     A
C7     C9      1.418   .     A
C7     H85     1.080   .     S
C8     N34     1.364   .     A
C8     H86     1.082   .     S
C8     C10     1.416   .     A
C9     C11     1.421   .     A
C9     N87     1.424   .     S
C10    N93     1.423   .     S
C10    C12     1.419   .     A
C11    C600    1.515   1_554 S
C12    C599    1.515   .     S
C13    O41     1.286   .     A
C13    C15     1.418   .     S
C13    O39     1.272   .     A
C14    O42     1.283   .     A
C14    C16     1.404   .     S
C14    O40     1.271   .     A
C15    C212    1.357   1_455 S
C15    N241    1.446   1_455 S
C16    C113    1.357   .     S
C16    N149    1.434   .     S
C17    C27     1.401   .     A
C17    C19     1.377   .     A
C17    H57     1.084   .     S
C18    H58     1.084   .     S
C18    C20     1.379   .     A
C18    C28     1.399   .     A
C19    C21     1.393   .     A
C19    H29     1.084   .     S
C20    H30     1.083   .     S
C20    C22     1.397   .     A
C21    C23     1.397   .     A
C22    C24     1.398   .     A
C23    H59     1.084   .     S
C23    C25     1.390   .     A
C24    C26     1.388   .     A
C24    H60     1.079   .     S
C25    N61     1.426   .     S
C25    C27     1.411   .     A
C26    N67     1.427   .     S
C26    C28     1.410   .     A
C27    C322    1.447   1_545 S
C28    C321    1.447   .     S
N33    Zn44    2.010   .     S
N34    Zn43    2.010   .     S
O35    Zn43    1.987   .     S
O36    Zn44    1.987   .     S
O37    Zn44    1.998   .     S
O38    Zn43    1.998   .     S
O39    Zn43    1.974   .     S
O40    Zn44    1.974   .     S
O41    Zn44    1.982   .     S
O42    Zn43    1.982   .     S
N45    H46     1.032   .     S
N45    C113    1.446   .     S
N45    C145    1.449   .     S
C47    H49     1.107   .     S
C47    H50     1.110   .     S
C47    N241    1.449   1_455 S
C47    H244    1.111   1_455 S
H48    C145    1.111   .     S
N51    C53     1.448   .     S
N51    C212    1.434   1_455 S
N51    H248    1.032   1_455 S
H52    N149    1.032   .     S
C53    H55     1.111   .     S
C53    H54     1.110   .     S
C53    H252    1.112   1_455 S
H56    C151    1.112   .     S
N61    C63     1.447   .     S
N61    H62     1.032   .     S
C63    H66     1.112   .     S
C63    H64     1.111   .     S
C63    H359    1.109   1_545 S
H65    C357    1.109   .     S
N67    H68     1.032   .     S
N67    C69     1.447   .     S
C69    H72     1.112   .     S
C69    H364    1.110   .     S
C69    H365    1.109   .     S
H70    C363    1.110   1_545 S
H71    C363    1.109   1_545 S
N73    C75     1.446   .     S
N73    H74     1.030   .     S
C75    H76     1.110   .     S
C75    H77     1.110   .     S
C75    H78     1.112   .     S
N79    H80     1.025   .     S
N79    C81     1.450   .     S
C81    H82     1.111   .     S
C81    H83     1.111   .     S
C81    H84     1.111   .     S
N87    H88     1.032   .     S
N87    C89     1.448   .     S
C89    H92     1.111   .     S
C89    H90     1.109   .     S
C89    H679    1.109   1_554 S
H91    C677    1.109   .     S
N93    H94     1.032   .     S
N93    C95     1.447   .     S
C95    H96     1.112   .     S
C95    H97     1.110   .     S
C95    H686    1.110   .     S
H98    C683    1.110   1_554 S
C99    C119    1.431   .     S
C99    O135    1.287   .     A
C99    O133    1.286   .     A
C100   C120    1.443   .     S
C100   O136    1.290   .     A
C100   O134    1.289   .     A
C101   H129    1.082   .     S
C101   C103    1.408   .     A
C101   C109    1.399   .     A
C102   C104    1.416   .     A
C102   H130    1.080   .     S
C102   C110    1.399   .     A
C103   N131    1.373   .     A
C103   N171    1.415   .     S
C104   N132    1.377   .     A
C104   N177    1.431   .     S
C105   N131    1.365   .     A
C105   C107    1.418   .     A
C105   H183    1.080   .     S
C106   N132    1.364   .     A
C106   H184    1.082   .     S
C106   C108    1.416   .     A
C107   C109    1.421   .     A
C107   N185    1.424   .     S
C108   N191    1.423   .     S
C108   C110    1.419   .     A
C109   C698    1.515   1_554 S
C110   C697    1.515   .     S
C111   O139    1.286   .     A
C111   C113    1.418   .     S
C111   O137    1.272   .     A
C112   O140    1.283   .     A
C112   C114    1.404   .     S
C112   O138    1.271   .     A
C114   C211    1.357   .     S
C114   N247    1.434   .     S
C115   C125    1.401   .     A
C115   C117    1.377   .     A
C115   H155    1.084   .     S
C116   H156    1.084   .     S
C116   C118    1.379   .     A
C116   C126    1.399   .     A
C117   C119    1.393   .     A
C117   H127    1.084   .     S
C118   H128    1.083   .     S
C118   C120    1.397   .     A
C119   C121    1.397   .     A
C120   C122    1.398   .     A
C121   H157    1.084   .     S
C121   C123    1.390   .     A
C122   C124    1.388   .     A
C122   H158    1.079   .     S
C123   N159    1.426   .     S
C123   C125    1.411   .     A
C124   N165    1.427   .     S
C124   C126    1.410   .     A
C125   C420    1.447   1_545 S
C126   C419    1.447   .     S
N131   Zn142   2.010   .     S
N132   Zn141   2.010   .     S
O133   Zn141   1.987   .     S
O134   Zn142   1.987   .     S
O135   Zn142   1.998   .     S
O136   Zn141   1.998   .     S
O137   Zn141   1.974   .     S
O138   Zn142   1.974   .     S
O139   Zn142   1.982   .     S
O140   Zn141   1.982   .     S
N143   H144    1.032   .     S
N143   C211    1.446   .     S
N143   C243    1.449   .     S
C145   H147    1.107   .     S
C145   H148    1.110   .     S
H146   C243    1.111   .     S
N149   C151    1.448   .     S
H150   N247    1.032   .     S
C151   H153    1.111   .     S
C151   H152    1.110   .     S
H154   C249    1.112   .     S
N159   C161    1.447   .     S
N159   H160    1.032   .     S
C161   H164    1.112   .     S
C161   H162    1.111   .     S
C161   H457    1.109   1_545 S
H163   C455    1.109   .     S
N165   H166    1.032   .     S
N165   C167    1.447   .     S
C167   H170    1.112   .     S
C167   H462    1.110   .     S
C167   H463    1.109   .     S
H168   C461    1.110   1_545 S
H169   C461    1.109   1_545 S
N171   C173    1.446   .     S
N171   H172    1.030   .     S
C173   H174    1.110   .     S
C173   H175    1.110   .     S
C173   H176    1.112   .     S
N177   H178    1.025   .     S
N177   C179    1.450   .     S
C179   H180    1.111   .     S
C179   H181    1.111   .     S
C179   H182    1.111   .     S
N185   H186    1.032   .     S
N185   C187    1.448   .     S
C187   H190    1.111   .     S
C187   H188    1.109   .     S
C187   H777    1.109   1_554 S
H189   C775    1.109   .     S
N191   H192    1.032   .     S
N191   C193    1.447   .     S
C193   H194    1.112   .     S
C193   H195    1.110   .     S
C193   H784    1.110   .     S
H196   C781    1.110   1_554 S
C197   C217    1.431   .     S
C197   O233    1.287   .     A
C197   O231    1.286   .     A
C198   C218    1.443   .     S
C198   O234    1.290   .     A
C198   O232    1.289   .     A
C199   H227    1.082   .     S
C199   C201    1.408   .     A
C199   C207    1.399   .     A
C200   C202    1.416   .     A
C200   H228    1.080   .     S
C200   C208    1.399   .     A
C201   N229    1.373   .     A
C201   N269    1.415   .     S
C202   N230    1.377   .     A
C202   N275    1.431   .     S
C203   N229    1.365   .     A
C203   C205    1.418   .     A
C203   H281    1.080   .     S
C204   N230    1.364   .     A
C204   H282    1.082   .     S
C204   C206    1.416   .     A
C205   C207    1.421   .     A
C205   N283    1.424   .     S
C206   N289    1.423   .     S
C206   C208    1.419   .     A
C207   C796    1.515   1_554 S
C208   C795    1.515   .     S
C209   O237    1.286   .     A
C209   C211    1.418   .     S
C209   O235    1.272   .     A
C210   O238    1.283   .     A
C210   C212    1.404   .     S
C210   O236    1.271   .     A
C212   C15     1.357   1_655 S
C212   N51     1.434   1_655 S
C213   C223    1.401   .     A
C213   C215    1.377   .     A
C213   H253    1.084   .     S
C214   H254    1.084   .     S
C214   C216    1.379   .     A
C214   C224    1.399   .     A
C215   C217    1.393   .     A
C215   H225    1.084   .     S
C216   H226    1.083   .     S
C216   C218    1.397   .     A
C217   C219    1.397   .     A
C218   C220    1.398   .     A
C219   H255    1.084   .     S
C219   C221    1.390   .     A
C220   C222    1.388   .     A
C220   H256    1.079   .     S
C221   N257    1.426   .     S
C221   C223    1.411   .     A
C222   N263    1.427   .     S
C222   C224    1.410   .     A
C223   C518    1.447   1_545 S
C224   C517    1.447   .     S
N229   Zn240   2.010   .     S
N230   Zn239   2.010   .     S
O231   Zn239   1.987   .     S
O232   Zn240   1.987   .     S
O233   Zn240   1.998   .     S
O234   Zn239   1.998   .     S
O235   Zn239   1.974   .     S
O236   Zn240   1.974   .     S
O237   Zn240   1.982   .     S
O238   Zn239   1.982   .     S
N241   H242    1.032   .     S
N241   C15     1.446   1_655 S
N241   C47     1.449   1_655 S
C243   H245    1.107   .     S
C243   H246    1.110   .     S
H244   C47     1.111   1_655 S
N247   C249    1.448   .     S
H248   N51     1.032   1_655 S
C249   H251    1.111   .     S
C249   H250    1.110   .     S
H252   C53     1.112   1_655 S
N257   C259    1.447   .     S
N257   H258    1.032   .     S
C259   H262    1.112   .     S
C259   H260    1.111   .     S
C259   H555    1.109   1_545 S
H261   C553    1.109   .     S
N263   H264    1.032   .     S
N263   C265    1.447   .     S
C265   H268    1.112   .     S
C265   H560    1.110   .     S
C265   H561    1.109   .     S
H266   C559    1.110   1_545 S
H267   C559    1.109   1_545 S
N269   C271    1.446   .     S
N269   H270    1.030   .     S
C271   H272    1.110   .     S
C271   H273    1.110   .     S
C271   H274    1.112   .     S
N275   H276    1.025   .     S
N275   C277    1.450   .     S
C277   H278    1.111   .     S
C277   H279    1.111   .     S
C277   H280    1.111   .     S
N283   H284    1.032   .     S
N283   C285    1.448   .     S
C285   H288    1.111   .     S
C285   H286    1.109   .     S
C285   H875    1.109   1_554 S
H287   C873    1.109   .     S
N289   H290    1.032   .     S
N289   C291    1.447   .     S
C291   H292    1.112   .     S
C291   H293    1.110   .     S
C291   H882    1.110   .     S
H294   C879    1.110   1_554 S
C295   C315    1.431   .     S
C295   O331    1.287   .     A
C295   O329    1.286   .     A
C296   C316    1.443   .     S
C296   O332    1.290   .     A
C296   O330    1.289   .     A
C297   H325    1.082   .     S
C297   C299    1.408   .     A
C297   C305    1.399   .     A
C298   C300    1.416   .     A
C298   H326    1.080   .     S
C298   C306    1.399   .     A
C299   N327    1.373   .     A
C299   N367    1.415   .     S
C300   N328    1.377   .     A
C300   N373    1.431   .     S
C301   N327    1.365   .     A
C301   C303    1.418   .     A
C301   H379    1.080   .     S
C302   N328    1.364   .     A
C302   H380    1.082   .     S
C302   C304    1.416   .     A
C303   C305    1.421   .     A
C303   N381    1.424   .     S
C304   N387    1.423   .     S
C304   C306    1.419   .     A
C305   C894    1.515   1_554 S
C306   C893    1.515   .     S
C307   O335    1.286   .     A
C307   C309    1.418   .     S
C307   O333    1.272   .     A
C308   O336    1.283   .     A
C308   C310    1.404   .     S
C308   O334    1.271   .     A
C309   C506    1.357   1_455 S
C309   N535    1.446   1_455 S
C310   C407    1.357   .     S
C310   N443    1.434   .     S
C311   C321    1.401   .     A
C311   C313    1.377   .     A
C311   H351    1.084   .     S
C312   H352    1.084   .     S
C312   C314    1.379   .     A
C312   C322    1.399   .     A
C313   C315    1.393   .     A
C313   H323    1.084   .     S
C314   H324    1.083   .     S
C314   C316    1.397   .     A
C315   C317    1.397   .     A
C316   C318    1.398   .     A
C317   H353    1.084   .     S
C317   C319    1.390   .     A
C318   C320    1.388   .     A
C318   H354    1.079   .     S
C319   N355    1.426   .     S
C319   C321    1.411   .     A
C320   N361    1.427   .     S
C320   C322    1.410   .     A
C322   C27     1.447   1_565 S
N327   Zn338   2.010   .     S
N328   Zn337   2.010   .     S
O329   Zn337   1.987   .     S
O330   Zn338   1.987   .     S
O331   Zn338   1.998   .     S
O332   Zn337   1.998   .     S
O333   Zn337   1.974   .     S
O334   Zn338   1.974   .     S
O335   Zn338   1.982   .     S
O336   Zn337   1.982   .     S
N339   H340    1.032   .     S
N339   C407    1.446   .     S
N339   C439    1.449   .     S
C341   H343    1.107   .     S
C341   H344    1.110   .     S
C341   N535    1.449   1_455 S
C341   H538    1.111   1_455 S
H342   C439    1.111   .     S
N345   C347    1.448   .     S
N345   C506    1.434   1_455 S
N345   H542    1.032   1_455 S
H346   N443    1.032   .     S
C347   H349    1.111   .     S
C347   H348    1.110   .     S
C347   H546    1.112   1_455 S
H350   C445    1.112   .     S
N355   C357    1.447   .     S
N355   H356    1.032   .     S
C357   H360    1.112   .     S
C357   H358    1.111   .     S
H359   C63     1.109   1_565 S
N361   H362    1.032   .     S
N361   C363    1.447   .     S
C363   H366    1.112   .     S
C363   H70     1.110   1_565 S
C363   H71     1.109   1_565 S
N367   C369    1.446   .     S
N367   H368    1.030   .     S
C369   H370    1.110   .     S
C369   H371    1.110   .     S
C369   H372    1.112   .     S
N373   H374    1.025   .     S
N373   C375    1.450   .     S
C375   H376    1.111   .     S
C375   H377    1.111   .     S
C375   H378    1.111   .     S
N381   H382    1.032   .     S
N381   C383    1.448   .     S
C383   H386    1.111   .     S
C383   H384    1.109   .     S
C383   H973    1.109   1_554 S
H385   C971    1.109   .     S
N387   H388    1.032   .     S
N387   C389    1.447   .     S
C389   H390    1.112   .     S
C389   H391    1.110   .     S
C389   H980    1.110   .     S
H392   C977    1.110   1_554 S
C393   C413    1.431   .     S
C393   O429    1.287   .     A
C393   O427    1.286   .     A
C394   C414    1.443   .     S
C394   O430    1.290   .     A
C394   O428    1.289   .     A
C395   H423    1.082   .     S
C395   C397    1.408   .     A
C395   C403    1.399   .     A
C396   C398    1.416   .     A
C396   H424    1.080   .     S
C396   C404    1.399   .     A
C397   N425    1.373   .     A
C397   N465    1.415   .     S
C398   N426    1.377   .     A
C398   N471    1.431   .     S
C399   N425    1.365   .     A
C399   C401    1.418   .     A
C399   H477    1.080   .     S
C400   N426    1.364   .     A
C400   H478    1.082   .     S
C400   C402    1.416   .     A
C401   C403    1.421   .     A
C401   N479    1.424   .     S
C402   N485    1.423   .     S
C402   C404    1.419   .     A
C403   C992    1.515   1_554 S
C404   C991    1.515   .     S
C405   O433    1.286   .     A
C405   C407    1.418   .     S
C405   O431    1.272   .     A
C406   O434    1.283   .     A
C406   C408    1.404   .     S
C406   O432    1.271   .     A
C408   C505    1.357   .     S
C408   N541    1.434   .     S
C409   C419    1.401   .     A
C409   C411    1.377   .     A
C409   H449    1.084   .     S
C410   H450    1.084   .     S
C410   C412    1.379   .     A
C410   C420    1.399   .     A
C411   C413    1.393   .     A
C411   H421    1.084   .     S
C412   H422    1.083   .     S
C412   C414    1.397   .     A
C413   C415    1.397   .     A
C414   C416    1.398   .     A
C415   H451    1.084   .     S
C415   C417    1.390   .     A
C416   C418    1.388   .     A
C416   H452    1.079   .     S
C417   N453    1.426   .     S
C417   C419    1.411   .     A
C418   N459    1.427   .     S
C418   C420    1.410   .     A
C420   C125    1.447   1_565 S
N425   Zn436   2.010   .     S
N426   Zn435   2.010   .     S
O427   Zn435   1.987   .     S
O428   Zn436   1.987   .     S
O429   Zn436   1.998   .     S
O430   Zn435   1.998   .     S
O431   Zn435   1.974   .     S
O432   Zn436   1.974   .     S
O433   Zn436   1.982   .     S
O434   Zn435   1.982   .     S
N437   H438    1.032   .     S
N437   C505    1.446   .     S
N437   C537    1.449   .     S
C439   H441    1.107   .     S
C439   H442    1.110   .     S
H440   C537    1.111   .     S
N443   C445    1.448   .     S
H444   N541    1.032   .     S
C445   H447    1.111   .     S
C445   H446    1.110   .     S
H448   C543    1.112   .     S
N453   C455    1.447   .     S
N453   H454    1.032   .     S
C455   H458    1.112   .     S
C455   H456    1.111   .     S
H457   C161    1.109   1_565 S
N459   H460    1.032   .     S
N459   C461    1.447   .     S
C461   H464    1.112   .     S
C461   H168    1.110   1_565 S
C461   H169    1.109   1_565 S
N465   C467    1.446   .     S
N465   H466    1.030   .     S
C467   H468    1.110   .     S
C467   H469    1.110   .     S
C467   H470    1.112   .     S
N471   H472    1.025   .     S
N471   C473    1.450   .     S
C473   H474    1.111   .     S
C473   H475    1.111   .     S
C473   H476    1.111   .     S
N479   H480    1.032   .     S
N479   C481    1.448   .     S
C481   H484    1.111   .     S
C481   H482    1.109   .     S
C481   H1071   1.109   1_554 S
H483   C1069   1.109   .     S
N485   H486    1.032   .     S
N485   C487    1.447   .     S
C487   H488    1.112   .     S
C487   H489    1.110   .     S
C487   H1078   1.110   .     S
H490   C1075   1.110   1_554 S
C491   C511    1.431   .     S
C491   O527    1.287   .     A
C491   O525    1.286   .     A
C492   C512    1.443   .     S
C492   O528    1.290   .     A
C492   O526    1.289   .     A
C493   H521    1.082   .     S
C493   C495    1.408   .     A
C493   C501    1.399   .     A
C494   C496    1.416   .     A
C494   H522    1.080   .     S
C494   C502    1.399   .     A
C495   N523    1.373   .     A
C495   N563    1.415   .     S
C496   N524    1.377   .     A
C496   N569    1.431   .     S
C497   N523    1.365   .     A
C497   C499    1.418   .     A
C497   H575    1.080   .     S
C498   N524    1.364   .     A
C498   H576    1.082   .     S
C498   C500    1.416   .     A
C499   C501    1.421   .     A
C499   N577    1.424   .     S
C500   N583    1.423   .     S
C500   C502    1.419   .     A
C501   C1090   1.515   1_554 S
C502   C1089   1.515   .     S
C503   O531    1.286   .     A
C503   C505    1.418   .     S
C503   O529    1.272   .     A
C504   O532    1.283   .     A
C504   C506    1.404   .     S
C504   O530    1.271   .     A
C506   C309    1.357   1_655 S
C506   N345    1.434   1_655 S
C507   C517    1.401   .     A
C507   C509    1.377   .     A
C507   H547    1.084   .     S
C508   H548    1.084   .     S
C508   C510    1.379   .     A
C508   C518    1.399   .     A
C509   C511    1.393   .     A
C509   H519    1.084   .     S
C510   H520    1.083   .     S
C510   C512    1.397   .     A
C511   C513    1.397   .     A
C512   C514    1.398   .     A
C513   H549    1.084   .     S
C513   C515    1.390   .     A
C514   C516    1.388   .     A
C514   H550    1.079   .     S
C515   N551    1.426   .     S
C515   C517    1.411   .     A
C516   N557    1.427   .     S
C516   C518    1.410   .     A
C518   C223    1.447   1_565 S
N523   Zn534   2.010   .     S
N524   Zn533   2.010   .     S
O525   Zn533   1.987   .     S
O526   Zn534   1.987   .     S
O527   Zn534   1.998   .     S
O528   Zn533   1.998   .     S
O529   Zn533   1.974   .     S
O530   Zn534   1.974   .     S
O531   Zn534   1.982   .     S
O532   Zn533   1.982   .     S
N535   H536    1.032   .     S
N535   C309    1.446   1_655 S
N535   C341    1.449   1_655 S
C537   H539    1.107   .     S
C537   H540    1.110   .     S
H538   C341    1.111   1_655 S
N541   C543    1.448   .     S
H542   N345    1.032   1_655 S
C543   H545    1.111   .     S
C543   H544    1.110   .     S
H546   C347    1.112   1_655 S
N551   C553    1.447   .     S
N551   H552    1.032   .     S
C553   H556    1.112   .     S
C553   H554    1.111   .     S
H555   C259    1.109   1_565 S
N557   H558    1.032   .     S
N557   C559    1.447   .     S
C559   H562    1.112   .     S
C559   H266    1.110   1_565 S
C559   H267    1.109   1_565 S
N563   C565    1.446   .     S
N563   H564    1.030   .     S
C565   H566    1.110   .     S
C565   H567    1.110   .     S
C565   H568    1.112   .     S
N569   H570    1.025   .     S
N569   C571    1.450   .     S
C571   H572    1.111   .     S
C571   H573    1.111   .     S
C571   H574    1.111   .     S
N577   H578    1.032   .     S
N577   C579    1.448   .     S
C579   H582    1.111   .     S
C579   H580    1.109   .     S
C579   H1169   1.109   1_554 S
H581   C1167   1.109   .     S
N583   H584    1.032   .     S
N583   C585    1.447   .     S
C585   H586    1.112   .     S
C585   H587    1.110   .     S
C585   H1176   1.110   .     S
H588   C1173   1.110   1_554 S
C589   C609    1.431   .     S
C589   O625    1.287   .     A
C589   O623    1.286   .     A
C590   C610    1.443   .     S
C590   O626    1.290   .     A
C590   O624    1.289   .     A
C591   H619    1.082   .     S
C591   C593    1.408   .     A
C591   C599    1.399   .     A
C592   C594    1.416   .     A
C592   H620    1.080   .     S
C592   C600    1.399   .     A
C593   N621    1.373   .     A
C593   N661    1.415   .     S
C594   N622    1.377   .     A
C594   N667    1.431   .     S
C595   N621    1.365   .     A
C595   C597    1.418   .     A
C595   H673    1.080   .     S
C596   N622    1.364   .     A
C596   H674    1.082   .     S
C596   C598    1.416   .     A
C597   C599    1.421   .     A
C597   N675    1.424   .     S
C598   N681    1.423   .     S
C598   C600    1.419   .     A
C600   C11     1.515   1_556 S
C601   O629    1.286   .     A
C601   C603    1.418   .     S
C601   O627    1.272   .     A
C602   O630    1.283   .     A
C602   C604    1.404   .     S
C602   O628    1.271   .     A
C603   C800    1.357   1_455 S
C603   N829    1.446   1_455 S
C604   C701    1.357   .     S
C604   N737    1.434   .     S
C605   C615    1.401   .     A
C605   C607    1.377   .     A
C605   H645    1.084   .     S
C606   H646    1.084   .     S
C606   C608    1.379   .     A
C606   C616    1.399   .     A
C607   C609    1.393   .     A
C607   H617    1.084   .     S
C608   H618    1.083   .     S
C608   C610    1.397   .     A
C609   C611    1.397   .     A
C610   C612    1.398   .     A
C611   H647    1.084   .     S
C611   C613    1.390   .     A
C612   C614    1.388   .     A
C612   H648    1.079   .     S
C613   N649    1.426   .     S
C613   C615    1.411   .     A
C614   N655    1.427   .     S
C614   C616    1.410   .     A
C615   C910    1.447   1_545 S
C616   C909    1.447   .     S
N621   Zn632   2.010   .     S
N622   Zn631   2.010   .     S
O623   Zn631   1.987   .     S
O624   Zn632   1.987   .     S
O625   Zn632   1.998   .     S
O626   Zn631   1.998   .     S
O627   Zn631   1.974   .     S
O628   Zn632   1.974   .     S
O629   Zn632   1.982   .     S
O630   Zn631   1.982   .     S
N633   H634    1.032   .     S
N633   C701    1.446   .     S
N633   C733    1.449   .     S
C635   H637    1.107   .     S
C635   H638    1.110   .     S
C635   N829    1.449   1_455 S
C635   H832    1.111   1_455 S
H636   C733    1.111   .     S
N639   C641    1.448   .     S
N639   C800    1.434   1_455 S
N639   H836    1.032   1_455 S
H640   N737    1.032   .     S
C641   H643    1.111   .     S
C641   H642    1.110   .     S
C641   H840    1.112   1_455 S
H644   C739    1.112   .     S
N649   C651    1.447   .     S
N649   H650    1.032   .     S
C651   H654    1.112   .     S
C651   H652    1.111   .     S
C651   H947    1.109   1_545 S
H653   C945    1.109   .     S
N655   H656    1.032   .     S
N655   C657    1.447   .     S
C657   H660    1.112   .     S
C657   H952    1.110   .     S
C657   H953    1.109   .     S
H658   C951    1.110   1_545 S
H659   C951    1.109   1_545 S
N661   C663    1.446   .     S
N661   H662    1.030   .     S
C663   H664    1.110   .     S
C663   H665    1.110   .     S
C663   H666    1.112   .     S
N667   H668    1.025   .     S
N667   C669    1.450   .     S
C669   H670    1.111   .     S
C669   H671    1.111   .     S
C669   H672    1.111   .     S
N675   H676    1.032   .     S
N675   C677    1.448   .     S
C677   H680    1.111   .     S
C677   H678    1.109   .     S
H679   C89     1.109   1_556 S
N681   H682    1.032   .     S
N681   C683    1.447   .     S
C683   H684    1.112   .     S
C683   H685    1.110   .     S
C683   H98     1.110   1_556 S
C687   C707    1.431   .     S
C687   O723    1.287   .     A
C687   O721    1.286   .     A
C688   C708    1.443   .     S
C688   O724    1.290   .     A
C688   O722    1.289   .     A
C689   H717    1.082   .     S
C689   C691    1.408   .     A
C689   C697    1.399   .     A
C690   C692    1.416   .     A
C690   H718    1.080   .     S
C690   C698    1.399   .     A
C691   N719    1.373   .     A
C691   N759    1.415   .     S
C692   N720    1.377   .     A
C692   N765    1.431   .     S
C693   N719    1.365   .     A
C693   C695    1.418   .     A
C693   H771    1.080   .     S
C694   N720    1.364   .     A
C694   H772    1.082   .     S
C694   C696    1.416   .     A
C695   C697    1.421   .     A
C695   N773    1.424   .     S
C696   N779    1.423   .     S
C696   C698    1.419   .     A
C698   C109    1.515   1_556 S
C699   O727    1.286   .     A
C699   C701    1.418   .     S
C699   O725    1.272   .     A
C700   O728    1.283   .     A
C700   C702    1.404   .     S
C700   O726    1.271   .     A
C702   C799    1.357   .     S
C702   N835    1.434   .     S
C703   C713    1.401   .     A
C703   C705    1.377   .     A
C703   H743    1.084   .     S
C704   H744    1.084   .     S
C704   C706    1.379   .     A
C704   C714    1.399   .     A
C705   C707    1.393   .     A
C705   H715    1.084   .     S
C706   H716    1.083   .     S
C706   C708    1.397   .     A
C707   C709    1.397   .     A
C708   C710    1.398   .     A
C709   H745    1.084   .     S
C709   C711    1.390   .     A
C710   C712    1.388   .     A
C710   H746    1.079   .     S
C711   N747    1.426   .     S
C711   C713    1.411   .     A
C712   N753    1.427   .     S
C712   C714    1.410   .     A
C713   C1008   1.447   1_545 S
C714   C1007   1.447   .     S
N719   Zn730   2.010   .     S
N720   Zn729   2.010   .     S
O721   Zn729   1.987   .     S
O722   Zn730   1.987   .     S
O723   Zn730   1.998   .     S
O724   Zn729   1.998   .     S
O725   Zn729   1.974   .     S
O726   Zn730   1.974   .     S
O727   Zn730   1.982   .     S
O728   Zn729   1.982   .     S
N731   H732    1.032   .     S
N731   C799    1.446   .     S
N731   C831    1.449   .     S
C733   H735    1.107   .     S
C733   H736    1.110   .     S
H734   C831    1.111   .     S
N737   C739    1.448   .     S
H738   N835    1.032   .     S
C739   H741    1.111   .     S
C739   H740    1.110   .     S
H742   C837    1.112   .     S
N747   C749    1.447   .     S
N747   H748    1.032   .     S
C749   H752    1.112   .     S
C749   H750    1.111   .     S
C749   H1045   1.109   1_545 S
H751   C1043   1.109   .     S
N753   H754    1.032   .     S
N753   C755    1.447   .     S
C755   H758    1.112   .     S
C755   H1050   1.110   .     S
C755   H1051   1.109   .     S
H756   C1049   1.110   1_545 S
H757   C1049   1.109   1_545 S
N759   C761    1.446   .     S
N759   H760    1.030   .     S
C761   H762    1.110   .     S
C761   H763    1.110   .     S
C761   H764    1.112   .     S
N765   H766    1.025   .     S
N765   C767    1.450   .     S
C767   H768    1.111   .     S
C767   H769    1.111   .     S
C767   H770    1.111   .     S
N773   H774    1.032   .     S
N773   C775    1.448   .     S
C775   H778    1.111   .     S
C775   H776    1.109   .     S
H777   C187    1.109   1_556 S
N779   H780    1.032   .     S
N779   C781    1.447   .     S
C781   H782    1.112   .     S
C781   H783    1.110   .     S
C781   H196    1.110   1_556 S
C785   C805    1.431   .     S
C785   O821    1.287   .     A
C785   O819    1.286   .     A
C786   C806    1.443   .     S
C786   O822    1.290   .     A
C786   O820    1.289   .     A
C787   H815    1.082   .     S
C787   C789    1.408   .     A
C787   C795    1.399   .     A
C788   C790    1.416   .     A
C788   H816    1.080   .     S
C788   C796    1.399   .     A
C789   N817    1.373   .     A
C789   N857    1.415   .     S
C790   N818    1.377   .     A
C790   N863    1.431   .     S
C791   N817    1.365   .     A
C791   C793    1.418   .     A
C791   H869    1.080   .     S
C792   N818    1.364   .     A
C792   H870    1.082   .     S
C792   C794    1.416   .     A
C793   C795    1.421   .     A
C793   N871    1.424   .     S
C794   N877    1.423   .     S
C794   C796    1.419   .     A
C796   C207    1.515   1_556 S
C797   O825    1.286   .     A
C797   C799    1.418   .     S
C797   O823    1.272   .     A
C798   O826    1.283   .     A
C798   C800    1.404   .     S
C798   O824    1.271   .     A
C800   C603    1.357   1_655 S
C800   N639    1.434   1_655 S
C801   C811    1.401   .     A
C801   C803    1.377   .     A
C801   H841    1.084   .     S
C802   H842    1.084   .     S
C802   C804    1.379   .     A
C802   C812    1.399   .     A
C803   C805    1.393   .     A
C803   H813    1.084   .     S
C804   H814    1.083   .     S
C804   C806    1.397   .     A
C805   C807    1.397   .     A
C806   C808    1.398   .     A
C807   H843    1.084   .     S
C807   C809    1.390   .     A
C808   C810    1.388   .     A
C808   H844    1.079   .     S
C809   N845    1.426   .     S
C809   C811    1.411   .     A
C810   N851    1.427   .     S
C810   C812    1.410   .     A
C811   C1106   1.447   1_545 S
C812   C1105   1.447   .     S
N817   Zn828   2.010   .     S
N818   Zn827   2.010   .     S
O819   Zn827   1.987   .     S
O820   Zn828   1.987   .     S
O821   Zn828   1.998   .     S
O822   Zn827   1.998   .     S
O823   Zn827   1.974   .     S
O824   Zn828   1.974   .     S
O825   Zn828   1.982   .     S
O826   Zn827   1.982   .     S
N829   H830    1.032   .     S
N829   C603    1.446   1_655 S
N829   C635    1.449   1_655 S
C831   H833    1.107   .     S
C831   H834    1.110   .     S
H832   C635    1.111   1_655 S
N835   C837    1.448   .     S
H836   N639    1.032   1_655 S
C837   H839    1.111   .     S
C837   H838    1.110   .     S
H840   C641    1.112   1_655 S
N845   C847    1.447   .     S
N845   H846    1.032   .     S
C847   H850    1.112   .     S
C847   H848    1.111   .     S
C847   H1143   1.109   1_545 S
H849   C1141   1.109   .     S
N851   H852    1.032   .     S
N851   C853    1.447   .     S
C853   H856    1.112   .     S
C853   H1148   1.110   .     S
C853   H1149   1.109   .     S
H854   C1147   1.110   1_545 S
H855   C1147   1.109   1_545 S
N857   C859    1.446   .     S
N857   H858    1.030   .     S
C859   H860    1.110   .     S
C859   H861    1.110   .     S
C859   H862    1.112   .     S
N863   H864    1.025   .     S
N863   C865    1.450   .     S
C865   H866    1.111   .     S
C865   H867    1.111   .     S
C865   H868    1.111   .     S
N871   H872    1.032   .     S
N871   C873    1.448   .     S
C873   H876    1.111   .     S
C873   H874    1.109   .     S
H875   C285    1.109   1_556 S
N877   H878    1.032   .     S
N877   C879    1.447   .     S
C879   H880    1.112   .     S
C879   H881    1.110   .     S
C879   H294    1.110   1_556 S
C883   C903    1.431   .     S
C883   O919    1.287   .     A
C883   O917    1.286   .     A
C884   C904    1.443   .     S
C884   O920    1.290   .     A
C884   O918    1.289   .     A
C885   H913    1.082   .     S
C885   C887    1.408   .     A
C885   C893    1.399   .     A
C886   C888    1.416   .     A
C886   H914    1.080   .     S
C886   C894    1.399   .     A
C887   N915    1.373   .     A
C887   N955    1.415   .     S
C888   N916    1.377   .     A
C888   N961    1.431   .     S
C889   N915    1.365   .     A
C889   C891    1.418   .     A
C889   H967    1.080   .     S
C890   N916    1.364   .     A
C890   H968    1.082   .     S
C890   C892    1.416   .     A
C891   C893    1.421   .     A
C891   N969    1.424   .     S
C892   N975    1.423   .     S
C892   C894    1.419   .     A
C894   C305    1.515   1_556 S
C895   O923    1.286   .     A
C895   C897    1.418   .     S
C895   O921    1.272   .     A
C896   O924    1.283   .     A
C896   C898    1.404   .     S
C896   O922    1.271   .     A
C897   C1094   1.357   1_455 S
C897   N1123   1.446   1_455 S
C898   C995    1.357   .     S
C898   N1031   1.434   .     S
C899   C909    1.401   .     A
C899   C901    1.377   .     A
C899   H939    1.084   .     S
C900   H940    1.084   .     S
C900   C902    1.379   .     A
C900   C910    1.399   .     A
C901   C903    1.393   .     A
C901   H911    1.084   .     S
C902   H912    1.083   .     S
C902   C904    1.397   .     A
C903   C905    1.397   .     A
C904   C906    1.398   .     A
C905   H941    1.084   .     S
C905   C907    1.390   .     A
C906   C908    1.388   .     A
C906   H942    1.079   .     S
C907   N943    1.426   .     S
C907   C909    1.411   .     A
C908   N949    1.427   .     S
C908   C910    1.410   .     A
C910   C615    1.447   1_565 S
N915   Zn926   2.010   .     S
N916   Zn925   2.010   .     S
O917   Zn925   1.987   .     S
O918   Zn926   1.987   .     S
O919   Zn926   1.998   .     S
O920   Zn925   1.998   .     S
O921   Zn925   1.974   .     S
O922   Zn926   1.974   .     S
O923   Zn926   1.982   .     S
O924   Zn925   1.982   .     S
N927   H928    1.032   .     S
N927   C995    1.446   .     S
N927   C1027   1.449   .     S
C929   H931    1.107   .     S
C929   H932    1.110   .     S
C929   N1123   1.449   1_455 S
C929   H1126   1.111   1_455 S
H930   C1027   1.111   .     S
N933   C935    1.448   .     S
N933   C1094   1.434   1_455 S
N933   H1130   1.032   1_455 S
H934   N1031   1.032   .     S
C935   H937    1.111   .     S
C935   H936    1.110   .     S
C935   H1134   1.112   1_455 S
H938   C1033   1.112   .     S
N943   C945    1.447   .     S
N943   H944    1.032   .     S
C945   H948    1.112   .     S
C945   H946    1.111   .     S
H947   C651    1.109   1_565 S
N949   H950    1.032   .     S
N949   C951    1.447   .     S
C951   H954    1.112   .     S
C951   H658    1.110   1_565 S
C951   H659    1.109   1_565 S
N955   C957    1.446   .     S
N955   H956    1.030   .     S
C957   H958    1.110   .     S
C957   H959    1.110   .     S
C957   H960    1.112   .     S
N961   H962    1.025   .     S
N961   C963    1.450   .     S
C963   H964    1.111   .     S
C963   H965    1.111   .     S
C963   H966    1.111   .     S
N969   H970    1.032   .     S
N969   C971    1.448   .     S
C971   H974    1.111   .     S
C971   H972    1.109   .     S
H973   C383    1.109   1_556 S
N975   H976    1.032   .     S
N975   C977    1.447   .     S
C977   H978    1.112   .     S
C977   H979    1.110   .     S
C977   H392    1.110   1_556 S
C981   C1001   1.431   .     S
C981   O1017   1.287   .     A
C981   O1015   1.286   .     A
C982   C1002   1.443   .     S
C982   O1018   1.290   .     A
C982   O1016   1.289   .     A
C983   H1011   1.082   .     S
C983   C985    1.408   .     A
C983   C991    1.399   .     A
C984   C986    1.416   .     A
C984   H1012   1.080   .     S
C984   C992    1.399   .     A
C985   N1013   1.373   .     A
C985   N1053   1.415   .     S
C986   N1014   1.377   .     A
C986   N1059   1.431   .     S
C987   N1013   1.365   .     A
C987   C989    1.418   .     A
C987   H1065   1.080   .     S
C988   N1014   1.364   .     A
C988   H1066   1.082   .     S
C988   C990    1.416   .     A
C989   C991    1.421   .     A
C989   N1067   1.424   .     S
C990   N1073   1.423   .     S
C990   C992    1.419   .     A
C992   C403    1.515   1_556 S
C993   O1021   1.286   .     A
C993   C995    1.418   .     S
C993   O1019   1.272   .     A
C994   O1022   1.283   .     A
C994   C996    1.404   .     S
C994   O1020   1.271   .     A
C996   C1093   1.357   .     S
C996   N1129   1.434   .     S
C997   C1007   1.401   .     A
C997   C999    1.377   .     A
C997   H1037   1.084   .     S
C998   H1038   1.084   .     S
C998   C1000   1.379   .     A
C998   C1008   1.399   .     A
C999   C1001   1.393   .     A
C999   H1009   1.084   .     S
C1000  H1010   1.083   .     S
C1000  C1002   1.397   .     A
C1001  C1003   1.397   .     A
C1002  C1004   1.398   .     A
C1003  H1039   1.084   .     S
C1003  C1005   1.390   .     A
C1004  C1006   1.388   .     A
C1004  H1040   1.079   .     S
C1005  N1041   1.426   .     S
C1005  C1007   1.411   .     A
C1006  N1047   1.427   .     S
C1006  C1008   1.410   .     A
C1008  C713    1.447   1_565 S
N1013  Zn1024  2.010   .     S
N1014  Zn1023  2.010   .     S
O1015  Zn1023  1.987   .     S
O1016  Zn1024  1.987   .     S
O1017  Zn1024  1.998   .     S
O1018  Zn1023  1.998   .     S
O1019  Zn1023  1.974   .     S
O1020  Zn1024  1.974   .     S
O1021  Zn1024  1.982   .     S
O1022  Zn1023  1.982   .     S
N1025  H1026   1.032   .     S
N1025  C1093   1.446   .     S
N1025  C1125   1.449   .     S
C1027  H1029   1.107   .     S
C1027  H1030   1.110   .     S
H1028  C1125   1.111   .     S
N1031  C1033   1.448   .     S
H1032  N1129   1.032   .     S
C1033  H1035   1.111   .     S
C1033  H1034   1.110   .     S
H1036  C1131   1.112   .     S
N1041  C1043   1.447   .     S
N1041  H1042   1.032   .     S
C1043  H1046   1.112   .     S
C1043  H1044   1.111   .     S
H1045  C749    1.109   1_565 S
N1047  H1048   1.032   .     S
N1047  C1049   1.447   .     S
C1049  H1052   1.112   .     S
C1049  H756    1.110   1_565 S
C1049  H757    1.109   1_565 S
N1053  C1055   1.446   .     S
N1053  H1054   1.030   .     S
C1055  H1056   1.110   .     S
C1055  H1057   1.110   .     S
C1055  H1058   1.112   .     S
N1059  H1060   1.025   .     S
N1059  C1061   1.450   .     S
C1061  H1062   1.111   .     S
C1061  H1063   1.111   .     S
C1061  H1064   1.111   .     S
N1067  H1068   1.032   .     S
N1067  C1069   1.448   .     S
C1069  H1072   1.111   .     S
C1069  H1070   1.109   .     S
H1071  C481    1.109   1_556 S
N1073  H1074   1.032   .     S
N1073  C1075   1.447   .     S
C1075  H1076   1.112   .     S
C1075  H1077   1.110   .     S
C1075  H490    1.110   1_556 S
C1079  C1099   1.431   .     S
C1079  O1115   1.287   .     A
C1079  O1113   1.286   .     A
C1080  C1100   1.443   .     S
C1080  O1116   1.290   .     A
C1080  O1114   1.289   .     A
C1081  H1109   1.082   .     S
C1081  C1083   1.408   .     A
C1081  C1089   1.399   .     A
C1082  C1084   1.416   .     A
C1082  H1110   1.080   .     S
C1082  C1090   1.399   .     A
C1083  N1111   1.373   .     A
C1083  N1151   1.415   .     S
C1084  N1112   1.377   .     A
C1084  N1157   1.431   .     S
C1085  N1111   1.365   .     A
C1085  C1087   1.418   .     A
C1085  H1163   1.080   .     S
C1086  N1112   1.364   .     A
C1086  H1164   1.082   .     S
C1086  C1088   1.416   .     A
C1087  C1089   1.421   .     A
C1087  N1165   1.424   .     S
C1088  N1171   1.423   .     S
C1088  C1090   1.419   .     A
C1090  C501    1.515   1_556 S
C1091  O1119   1.286   .     A
C1091  C1093   1.418   .     S
C1091  O1117   1.272   .     A
C1092  O1120   1.283   .     A
C1092  C1094   1.404   .     S
C1092  O1118   1.271   .     A
C1094  C897    1.357   1_655 S
C1094  N933    1.434   1_655 S
C1095  C1105   1.401   .     A
C1095  C1097   1.377   .     A
C1095  H1135   1.084   .     S
C1096  H1136   1.084   .     S
C1096  C1098   1.379   .     A
C1096  C1106   1.399   .     A
C1097  C1099   1.393   .     A
C1097  H1107   1.084   .     S
C1098  H1108   1.083   .     S
C1098  C1100   1.397   .     A
C1099  C1101   1.397   .     A
C1100  C1102   1.398   .     A
C1101  H1137   1.084   .     S
C1101  C1103   1.390   .     A
C1102  C1104   1.388   .     A
C1102  H1138   1.079   .     S
C1103  N1139   1.426   .     S
C1103  C1105   1.411   .     A
C1104  N1145   1.427   .     S
C1104  C1106   1.410   .     A
C1106  C811    1.447   1_565 S
N1111  Zn1122  2.010   .     S
N1112  Zn1121  2.010   .     S
O1113  Zn1121  1.987   .     S
O1114  Zn1122  1.987   .     S
O1115  Zn1122  1.998   .     S
O1116  Zn1121  1.998   .     S
O1117  Zn1121  1.974   .     S
O1118  Zn1122  1.974   .     S
O1119  Zn1122  1.982   .     S
O1120  Zn1121  1.982   .     S
N1123  H1124   1.032   .     S
N1123  C897    1.446   1_655 S
N1123  C929    1.449   1_655 S
C1125  H1127   1.107   .     S
C1125  H1128   1.110   .     S
H1126  C929    1.111   1_655 S
N1129  C1131   1.448   .     S
H1130  N933    1.032   1_655 S
C1131  H1133   1.111   .     S
C1131  H1132   1.110   .     S
H1134  C935    1.112   1_655 S
N1139  C1141   1.447   .     S
N1139  H1140   1.032   .     S
C1141  H1144   1.112   .     S
C1141  H1142   1.111   .     S
H1143  C847    1.109   1_565 S
N1145  H1146   1.032   .     S
N1145  C1147   1.447   .     S
C1147  H1150   1.112   .     S
C1147  H854    1.110   1_565 S
C1147  H855    1.109   1_565 S
N1151  C1153   1.446   .     S
N1151  H1152   1.030   .     S
C1153  H1154   1.110   .     S
C1153  H1155   1.110   .     S
C1153  H1156   1.112   .     S
N1157  H1158   1.025   .     S
N1157  C1159   1.450   .     S
C1159  H1160   1.111   .     S
C1159  H1161   1.111   .     S
C1159  H1162   1.111   .     S
N1165  H1166   1.032   .     S
N1165  C1167   1.448   .     S
C1167  H1170   1.111   .     S
C1167  H1168   1.109   .     S
H1169  C579    1.109   1_556 S
N1171  H1172   1.032   .     S
N1171  C1173   1.447   .     S
C1173  H1174   1.112   .     S
C1173  H1175   1.110   .     S
C1173  H588    1.110   1_556 S
