data_str_m3_o2_o10_pcu_sym.131
_audit_creation_date              2020-01-03
_audit_creation_method            'Materials Studio'
_symmetry_space_group_name_H-M    'P1'
_symmetry_Int_Tables_number       1
_symmetry_cell_setting            triclinic
loop_
_symmetry_equiv_pos_as_xyz
  x,y,z
_cell_length_a                    25.0838
_cell_length_b                    29.8371
_cell_length_c                    28.2507
_cell_angle_alpha                 91.0872
_cell_angle_beta                  99.0112
_cell_angle_gamma                 89.1415
loop_
_atom_site_label
_atom_site_type_symbol
_atom_site_fract_x
_atom_site_fract_y
_atom_site_fract_z
_atom_site_U_iso_or_equiv
_atom_site_adp_type
_atom_site_occupancy
C1     C     0.16803   0.16396   0.24973   0.00000  Uiso   1.00
C2     C     0.16692   0.33626   0.25050   0.00000  Uiso   1.00
C3     C     0.12402   0.27296   0.04734   0.00000  Uiso   1.00
C4     C     0.20898   0.27250   0.45348   0.00000  Uiso   1.00
C5     C     0.12602   0.27174   0.09763   0.00000  Uiso   1.00
C6     C     0.20703   0.27126   0.40319   0.00000  Uiso   1.00
C7     C     0.20632   0.22823   0.10679   0.00000  Uiso   1.00
C8     C     0.12735   0.22861   0.39238   0.00000  Uiso   1.00
C9     C     0.20644   0.22825   0.05714   0.00000  Uiso   1.00
C10    C     0.12725   0.22859   0.44203   0.00000  Uiso   1.00
C11    C     0.16583   0.25118   0.02653   0.00000  Uiso   1.00
C12    C     0.16752   0.25114   0.47350   0.00000  Uiso   1.00
C13    C     0.06775   0.25899   0.23800   0.00000  Uiso   1.00
C14    C     0.26574   0.25790   0.26254   0.00000  Uiso   1.00
C15    C     0.01329   0.27705   0.23231   0.00000  Uiso   1.00
C16    C     0.31965   0.27573   0.27008   0.00000  Uiso   1.00
C17    C     0.13605   0.04534   0.21945   0.00000  Uiso   1.00
C18    C     0.21899   0.44851   0.22835   0.00000  Uiso   1.00
C19    C     0.13349   0.09184   0.22093   0.00000  Uiso   1.00
C20    C     0.21205   0.40238   0.22887   0.00000  Uiso   1.00
C21    C     0.17401   0.11624   0.24906   0.00000  Uiso   1.00
C22    C     0.17236   0.38418   0.25232   0.00000  Uiso   1.00
C23    C     0.21958   0.09505   0.27518   0.00000  Uiso   1.00
C24    C     0.14075   0.41174   0.27833   0.00000  Uiso   1.00
C25    C     0.22258   0.04859   0.27355   0.00000  Uiso   1.00
C26    C     0.14750   0.45764   0.27761   0.00000  Uiso   1.00
C27    C     0.18165   0.02397   0.24603   0.00000  Uiso   1.00
C28    C     0.18372   0.47593   0.25077   0.00000  Uiso   1.00
H29    H     0.25634   0.03141   0.29470   0.00000  Uiso   1.00
H30    H     0.12252   0.47959   0.29630   0.00000  Uiso   1.00
H31    H     0.23810   0.21012   0.04261   0.00000  Uiso   1.00
H32    H     0.09589   0.21073   0.45587   0.00000  Uiso   1.00
N33    N     0.16667   0.24999   0.12623   0.00000  Uiso   1.00
N34    N     0.16667   0.25001   0.37376   0.00000  Uiso   1.00
O35    O     0.16667   0.18453   0.28974   0.00000  Uiso   1.00
O36    O     0.16666   0.31546   0.21026   0.00000  Uiso   1.00
O37    O     0.16667   0.18453   0.21026   0.00000  Uiso   1.00
O38    O     0.16666   0.31547   0.28974   0.00000  Uiso   1.00
O39    O     0.09058   0.25000   0.28044   0.00000  Uiso   1.00
O40    O     0.24275   0.25000   0.21955   0.00000  Uiso   1.00
O41    O     0.09058   0.25000   0.20096   0.00000  Uiso   1.00
O42    O     0.24275   0.25000   0.29903   0.00000  Uiso   1.00
Zn43   Zn    0.16667   0.25000   0.30307   0.00000  Uiso   1.00
Zn44   Zn    0.16667   0.24999   0.19693   0.00000  Uiso   1.00
C45    C     0.32263   0.29798   0.18470   0.00000  Uiso   1.00
C46    C     0.01948   0.34044   0.17605   0.00000  Uiso   1.00
H47    H     0.01670   0.36547   0.20522   0.00000  Uiso   1.00
H48    H     0.06260   0.33307   0.17461   0.00000  Uiso   1.00
H49    H     0.00110   0.35523   0.14143   0.00000  Uiso   1.00
H50    H     0.32424   0.27342   0.15488   0.00000  Uiso   1.00
H51    H     0.28003   0.30879   0.18386   0.00000  Uiso   1.00
C52    C     0.00884   0.29361   0.32017   0.00000  Uiso   1.00
C53    C     0.31195   0.33634   0.33181   0.00000  Uiso   1.00
H54    H     0.31781   0.36313   0.30643   0.00000  Uiso   1.00
H55    H     0.26812   0.33059   0.32925   0.00000  Uiso   1.00
H56    H     0.32750   0.34802   0.36888   0.00000  Uiso   1.00
H57    H     0.00521   0.26771   0.34721   0.00000  Uiso   1.00
H58    H     0.05182   0.30273   0.32436   0.00000  Uiso   1.00
C59    C     0.08832   0.02014   0.19184   0.00000  Uiso   1.00
C60    C     0.10225   0.49589   0.14729   0.00000  Uiso   1.00
H61    H     0.12073   0.01938   0.12470   0.00000  Uiso   1.00
H62    H     0.13007   0.46726   0.15730   0.00000  Uiso   1.00
H63    H     0.06480   0.48239   0.12592   0.00000  Uiso   1.00
H64    H     0.07229   0.49592   0.21519   0.00000  Uiso   1.00
H65    H     0.05432   0.04371   0.17990   0.00000  Uiso   1.00
C66    C     0.26448   0.46686   0.20500   0.00000  Uiso   1.00
C67    C     0.24444   0.48677   0.15603   0.00000  Uiso   1.00
H68    H     0.22090   0.46161   0.13224   0.00000  Uiso   1.00
H69    H     0.21921   0.01710   0.15953   0.00000  Uiso   1.00
H70    H     0.27959   0.49670   0.13927   0.00000  Uiso   1.00
H71    H     0.28732   0.49239   0.22869   0.00000  Uiso   1.00
H72    H     0.29409   0.43973   0.20004   0.00000  Uiso   1.00
H73    H     0.09905   0.10935   0.20117   0.00000  Uiso   1.00
H74    H     0.23776   0.38038   0.21106   0.00000  Uiso   1.00
C75    C     0.26584   0.12063   0.30394   0.00000  Uiso   1.00
C76    C     0.26109   0.12199   0.35714   0.00000  Uiso   1.00
H77    H     0.22262   0.13854   0.36289   0.00000  Uiso   1.00
H78    H     0.26260   0.08748   0.37142   0.00000  Uiso   1.00
H79    H     0.29514   0.14127   0.37723   0.00000  Uiso   1.00
H80    H     0.30482   0.10430   0.29916   0.00000  Uiso   1.00
H81    H     0.26771   0.15541   0.29109   0.00000  Uiso   1.00
C82    C     0.09761   0.39412   0.30460   0.00000  Uiso   1.00
C83    C     0.11921   0.38869   0.35786   0.00000  Uiso   1.00
H84    H     0.08730   0.37505   0.37639   0.00000  Uiso   1.00
H85    H     0.15444   0.36536   0.36308   0.00000  Uiso   1.00
H86    H     0.13164   0.42168   0.37453   0.00000  Uiso   1.00
H87    H     0.06244   0.41764   0.30070   0.00000  Uiso   1.00
H88    H     0.08182   0.36198   0.28844   0.00000  Uiso   1.00
C89    C     0.07668   0.29689   0.01777   0.00000  Uiso   1.00
C90    C     0.09308   0.34050   0.49697   0.00000  Uiso   1.00
H91    H     0.11419   0.36249   0.02591   0.00000  Uiso   1.00
H92    H     0.11953   0.33379   0.46963   0.00000  Uiso   1.00
H93    H     0.05639   0.35842   0.47930   0.00000  Uiso   1.00
H94    H     0.05697   0.27464   0.48855   0.00000  Uiso   1.00
H95    H     0.04518   0.30533   0.04027   0.00000  Uiso   1.00
C96    C     0.25573   0.29629   0.48385   0.00000  Uiso   1.00
C97    C     0.23829   0.34042   0.00530   0.00000  Uiso   1.00
H98    H     0.21689   0.36207   0.47665   0.00000  Uiso   1.00
H99    H     0.21172   0.33435   0.03232   0.00000  Uiso   1.00
H100   H     0.27453   0.35834   0.02347   0.00000  Uiso   1.00
H101   H     0.27556   0.27430   0.01275   0.00000  Uiso   1.00
H102   H     0.28735   0.30404   0.46178   0.00000  Uiso   1.00
H103   H     0.09480   0.28824   0.11412   0.00000  Uiso   1.00
H104   H     0.23801   0.28742   0.38737   0.00000  Uiso   1.00
H105   H     0.23798   0.21060   0.12985   0.00000  Uiso   1.00
H106   H     0.09597   0.21128   0.36867   0.00000  Uiso   1.00
C107   C     0.50137   0.16396   0.24973   0.00000  Uiso   1.00
C108   C     0.50025   0.33626   0.25050   0.00000  Uiso   1.00
C109   C     0.45735   0.27296   0.04734   0.00000  Uiso   1.00
C110   C     0.54231   0.27250   0.45348   0.00000  Uiso   1.00
C111   C     0.45935   0.27174   0.09763   0.00000  Uiso   1.00
C112   C     0.54036   0.27126   0.40319   0.00000  Uiso   1.00
C113   C     0.53965   0.22823   0.10679   0.00000  Uiso   1.00
C114   C     0.46068   0.22861   0.39238   0.00000  Uiso   1.00
C115   C     0.53978   0.22825   0.05714   0.00000  Uiso   1.00
C116   C     0.46059   0.22859   0.44203   0.00000  Uiso   1.00
C117   C     0.49916   0.25118   0.02653   0.00000  Uiso   1.00
C118   C     0.50085   0.25114   0.47350   0.00000  Uiso   1.00
C119   C     0.40108   0.25899   0.23800   0.00000  Uiso   1.00
C120   C     0.59908   0.25790   0.26254   0.00000  Uiso   1.00
C121   C     0.34662   0.27705   0.23231   0.00000  Uiso   1.00
C122   C     0.65298   0.27573   0.27008   0.00000  Uiso   1.00
C123   C     0.46938   0.04534   0.21945   0.00000  Uiso   1.00
C124   C     0.55233   0.44851   0.22835   0.00000  Uiso   1.00
C125   C     0.46683   0.09184   0.22093   0.00000  Uiso   1.00
C126   C     0.54539   0.40238   0.22887   0.00000  Uiso   1.00
C127   C     0.50734   0.11624   0.24906   0.00000  Uiso   1.00
C128   C     0.50569   0.38418   0.25232   0.00000  Uiso   1.00
C129   C     0.55292   0.09505   0.27518   0.00000  Uiso   1.00
C130   C     0.47408   0.41174   0.27833   0.00000  Uiso   1.00
C131   C     0.55591   0.04859   0.27355   0.00000  Uiso   1.00
C132   C     0.48083   0.45764   0.27761   0.00000  Uiso   1.00
C133   C     0.51498   0.02397   0.24603   0.00000  Uiso   1.00
C134   C     0.51705   0.47593   0.25077   0.00000  Uiso   1.00
H135   H     0.58967   0.03141   0.29470   0.00000  Uiso   1.00
H136   H     0.45585   0.47959   0.29630   0.00000  Uiso   1.00
H137   H     0.57144   0.21012   0.04261   0.00000  Uiso   1.00
H138   H     0.42922   0.21073   0.45587   0.00000  Uiso   1.00
N139   N     0.50000   0.24999   0.12623   0.00000  Uiso   1.00
N140   N     0.50000   0.25001   0.37376   0.00000  Uiso   1.00
O141   O     0.50000   0.18453   0.28974   0.00000  Uiso   1.00
O142   O     0.50000   0.31546   0.21026   0.00000  Uiso   1.00
O143   O     0.50000   0.18453   0.21026   0.00000  Uiso   1.00
O144   O     0.50000   0.31547   0.28974   0.00000  Uiso   1.00
O145   O     0.42392   0.25000   0.28044   0.00000  Uiso   1.00
O146   O     0.57608   0.25000   0.21955   0.00000  Uiso   1.00
O147   O     0.42392   0.25000   0.20096   0.00000  Uiso   1.00
O148   O     0.57608   0.25000   0.29903   0.00000  Uiso   1.00
Zn149  Zn    0.50000   0.25000   0.30307   0.00000  Uiso   1.00
Zn150  Zn    0.50000   0.24999   0.19693   0.00000  Uiso   1.00
C151   C     0.65596   0.29798   0.18470   0.00000  Uiso   1.00
C152   C     0.35281   0.34044   0.17605   0.00000  Uiso   1.00
H153   H     0.35004   0.36547   0.20522   0.00000  Uiso   1.00
H154   H     0.39593   0.33307   0.17461   0.00000  Uiso   1.00
H155   H     0.33444   0.35523   0.14143   0.00000  Uiso   1.00
H156   H     0.65758   0.27342   0.15488   0.00000  Uiso   1.00
H157   H     0.61336   0.30879   0.18386   0.00000  Uiso   1.00
C158   C     0.34217   0.29361   0.32017   0.00000  Uiso   1.00
C159   C     0.64529   0.33634   0.33181   0.00000  Uiso   1.00
H160   H     0.65114   0.36313   0.30643   0.00000  Uiso   1.00
H161   H     0.60146   0.33059   0.32925   0.00000  Uiso   1.00
H162   H     0.66084   0.34802   0.36888   0.00000  Uiso   1.00
H163   H     0.33854   0.26771   0.34721   0.00000  Uiso   1.00
H164   H     0.38516   0.30273   0.32436   0.00000  Uiso   1.00
C165   C     0.42166   0.02014   0.19184   0.00000  Uiso   1.00
C166   C     0.43558   0.49589   0.14729   0.00000  Uiso   1.00
H167   H     0.45407   0.01938   0.12470   0.00000  Uiso   1.00
H168   H     0.46341   0.46726   0.15730   0.00000  Uiso   1.00
H169   H     0.39814   0.48239   0.12592   0.00000  Uiso   1.00
H170   H     0.40563   0.49592   0.21519   0.00000  Uiso   1.00
H171   H     0.38765   0.04371   0.17990   0.00000  Uiso   1.00
C172   C     0.59782   0.46686   0.20500   0.00000  Uiso   1.00
C173   C     0.57777   0.48677   0.15603   0.00000  Uiso   1.00
H174   H     0.55424   0.46161   0.13224   0.00000  Uiso   1.00
H175   H     0.55254   0.01710   0.15953   0.00000  Uiso   1.00
H176   H     0.61292   0.49670   0.13927   0.00000  Uiso   1.00
H177   H     0.62065   0.49239   0.22869   0.00000  Uiso   1.00
H178   H     0.62742   0.43973   0.20004   0.00000  Uiso   1.00
H179   H     0.43238   0.10935   0.20117   0.00000  Uiso   1.00
H180   H     0.57109   0.38038   0.21106   0.00000  Uiso   1.00
C181   C     0.59917   0.12063   0.30394   0.00000  Uiso   1.00
C182   C     0.59442   0.12199   0.35714   0.00000  Uiso   1.00
H183   H     0.55595   0.13854   0.36289   0.00000  Uiso   1.00
H184   H     0.59593   0.08748   0.37142   0.00000  Uiso   1.00
H185   H     0.62847   0.14127   0.37723   0.00000  Uiso   1.00
H186   H     0.63816   0.10430   0.29916   0.00000  Uiso   1.00
H187   H     0.60105   0.15541   0.29109   0.00000  Uiso   1.00
C188   C     0.43095   0.39412   0.30460   0.00000  Uiso   1.00
C189   C     0.45254   0.38869   0.35786   0.00000  Uiso   1.00
H190   H     0.42063   0.37505   0.37639   0.00000  Uiso   1.00
H191   H     0.48778   0.36536   0.36308   0.00000  Uiso   1.00
H192   H     0.46497   0.42168   0.37453   0.00000  Uiso   1.00
H193   H     0.39578   0.41764   0.30070   0.00000  Uiso   1.00
H194   H     0.41515   0.36198   0.28844   0.00000  Uiso   1.00
C195   C     0.41001   0.29689   0.01777   0.00000  Uiso   1.00
C196   C     0.42641   0.34050   0.49697   0.00000  Uiso   1.00
H197   H     0.44753   0.36249   0.02591   0.00000  Uiso   1.00
H198   H     0.45287   0.33379   0.46963   0.00000  Uiso   1.00
H199   H     0.38972   0.35842   0.47930   0.00000  Uiso   1.00
H200   H     0.39030   0.27464   0.48855   0.00000  Uiso   1.00
H201   H     0.37852   0.30533   0.04027   0.00000  Uiso   1.00
C202   C     0.58907   0.29629   0.48385   0.00000  Uiso   1.00
C203   C     0.57163   0.34042   0.00530   0.00000  Uiso   1.00
H204   H     0.55023   0.36207   0.47665   0.00000  Uiso   1.00
H205   H     0.54506   0.33435   0.03232   0.00000  Uiso   1.00
H206   H     0.60786   0.35834   0.02347   0.00000  Uiso   1.00
H207   H     0.60889   0.27430   0.01275   0.00000  Uiso   1.00
H208   H     0.62068   0.30404   0.46178   0.00000  Uiso   1.00
H209   H     0.42813   0.28824   0.11412   0.00000  Uiso   1.00
H210   H     0.57135   0.28742   0.38737   0.00000  Uiso   1.00
H211   H     0.57131   0.21060   0.12985   0.00000  Uiso   1.00
H212   H     0.42930   0.21128   0.36867   0.00000  Uiso   1.00
C213   C     0.83470   0.16396   0.24973   0.00000  Uiso   1.00
C214   C     0.83358   0.33626   0.25050   0.00000  Uiso   1.00
C215   C     0.79069   0.27296   0.04734   0.00000  Uiso   1.00
C216   C     0.87565   0.27250   0.45348   0.00000  Uiso   1.00
C217   C     0.79269   0.27174   0.09763   0.00000  Uiso   1.00
C218   C     0.87370   0.27126   0.40319   0.00000  Uiso   1.00
C219   C     0.87299   0.22823   0.10679   0.00000  Uiso   1.00
C220   C     0.79402   0.22861   0.39238   0.00000  Uiso   1.00
C221   C     0.87311   0.22825   0.05714   0.00000  Uiso   1.00
C222   C     0.79392   0.22859   0.44203   0.00000  Uiso   1.00
C223   C     0.83250   0.25118   0.02653   0.00000  Uiso   1.00
C224   C     0.83419   0.25114   0.47350   0.00000  Uiso   1.00
C225   C     0.73442   0.25899   0.23800   0.00000  Uiso   1.00
C226   C     0.93241   0.25790   0.26254   0.00000  Uiso   1.00
C227   C     0.67996   0.27705   0.23231   0.00000  Uiso   1.00
C228   C     0.98631   0.27573   0.27008   0.00000  Uiso   1.00
C229   C     0.80271   0.04534   0.21945   0.00000  Uiso   1.00
C230   C     0.88566   0.44851   0.22835   0.00000  Uiso   1.00
C231   C     0.80016   0.09184   0.22093   0.00000  Uiso   1.00
C232   C     0.87872   0.40238   0.22887   0.00000  Uiso   1.00
C233   C     0.84067   0.11624   0.24906   0.00000  Uiso   1.00
C234   C     0.83902   0.38418   0.25232   0.00000  Uiso   1.00
C235   C     0.88625   0.09505   0.27518   0.00000  Uiso   1.00
C236   C     0.80742   0.41174   0.27833   0.00000  Uiso   1.00
C237   C     0.88924   0.04859   0.27355   0.00000  Uiso   1.00
C238   C     0.81416   0.45764   0.27761   0.00000  Uiso   1.00
C239   C     0.84832   0.02397   0.24603   0.00000  Uiso   1.00
C240   C     0.85038   0.47593   0.25077   0.00000  Uiso   1.00
H241   H     0.92300   0.03141   0.29470   0.00000  Uiso   1.00
H242   H     0.78918   0.47959   0.29630   0.00000  Uiso   1.00
H243   H     0.90477   0.21012   0.04261   0.00000  Uiso   1.00
H244   H     0.76255   0.21073   0.45587   0.00000  Uiso   1.00
N245   N     0.83333   0.24999   0.12623   0.00000  Uiso   1.00
N246   N     0.83333   0.25001   0.37376   0.00000  Uiso   1.00
O247   O     0.83334   0.18453   0.28974   0.00000  Uiso   1.00
O248   O     0.83333   0.31546   0.21026   0.00000  Uiso   1.00
O249   O     0.83334   0.18453   0.21026   0.00000  Uiso   1.00
O250   O     0.83333   0.31547   0.28974   0.00000  Uiso   1.00
O251   O     0.75725   0.25000   0.28044   0.00000  Uiso   1.00
O252   O     0.90942   0.25000   0.21955   0.00000  Uiso   1.00
O253   O     0.75725   0.25000   0.20096   0.00000  Uiso   1.00
O254   O     0.90942   0.25000   0.29903   0.00000  Uiso   1.00
Zn255  Zn    0.83333   0.25000   0.30307   0.00000  Uiso   1.00
Zn256  Zn    0.83333   0.24999   0.19693   0.00000  Uiso   1.00
C257   C     0.98929   0.29798   0.18470   0.00000  Uiso   1.00
C258   C     0.68615   0.34044   0.17605   0.00000  Uiso   1.00
H259   H     0.68337   0.36547   0.20522   0.00000  Uiso   1.00
H260   H     0.72926   0.33307   0.17461   0.00000  Uiso   1.00
H261   H     0.66777   0.35523   0.14143   0.00000  Uiso   1.00
H262   H     0.99091   0.27342   0.15488   0.00000  Uiso   1.00
H263   H     0.94669   0.30879   0.18386   0.00000  Uiso   1.00
C264   C     0.67550   0.29361   0.32017   0.00000  Uiso   1.00
C265   C     0.97862   0.33634   0.33181   0.00000  Uiso   1.00
H266   H     0.98448   0.36313   0.30643   0.00000  Uiso   1.00
H267   H     0.93479   0.33059   0.32925   0.00000  Uiso   1.00
H268   H     0.99417   0.34802   0.36888   0.00000  Uiso   1.00
H269   H     0.67187   0.26771   0.34721   0.00000  Uiso   1.00
H270   H     0.71849   0.30273   0.32436   0.00000  Uiso   1.00
C271   C     0.75499   0.02014   0.19184   0.00000  Uiso   1.00
C272   C     0.76892   0.49589   0.14729   0.00000  Uiso   1.00
H273   H     0.78740   0.01938   0.12470   0.00000  Uiso   1.00
H274   H     0.79674   0.46726   0.15730   0.00000  Uiso   1.00
H275   H     0.73147   0.48239   0.12592   0.00000  Uiso   1.00
H276   H     0.73896   0.49592   0.21519   0.00000  Uiso   1.00
H277   H     0.72098   0.04371   0.17990   0.00000  Uiso   1.00
C278   C     0.93115   0.46686   0.20500   0.00000  Uiso   1.00
C279   C     0.91110   0.48677   0.15603   0.00000  Uiso   1.00
H280   H     0.88757   0.46161   0.13224   0.00000  Uiso   1.00
H281   H     0.88587   0.01710   0.15953   0.00000  Uiso   1.00
H282   H     0.94625   0.49670   0.13927   0.00000  Uiso   1.00
H283   H     0.95399   0.49239   0.22869   0.00000  Uiso   1.00
H284   H     0.96076   0.43973   0.20004   0.00000  Uiso   1.00
H285   H     0.76572   0.10935   0.20117   0.00000  Uiso   1.00
H286   H     0.90442   0.38038   0.21106   0.00000  Uiso   1.00
C287   C     0.93251   0.12063   0.30394   0.00000  Uiso   1.00
C288   C     0.92775   0.12199   0.35714   0.00000  Uiso   1.00
H289   H     0.88928   0.13854   0.36289   0.00000  Uiso   1.00
H290   H     0.92927   0.08748   0.37142   0.00000  Uiso   1.00
H291   H     0.96180   0.14127   0.37723   0.00000  Uiso   1.00
H292   H     0.97149   0.10430   0.29916   0.00000  Uiso   1.00
H293   H     0.93438   0.15541   0.29109   0.00000  Uiso   1.00
C294   C     0.76428   0.39412   0.30460   0.00000  Uiso   1.00
C295   C     0.78588   0.38869   0.35786   0.00000  Uiso   1.00
H296   H     0.75396   0.37505   0.37639   0.00000  Uiso   1.00
H297   H     0.82111   0.36536   0.36308   0.00000  Uiso   1.00
H298   H     0.79830   0.42168   0.37453   0.00000  Uiso   1.00
H299   H     0.72911   0.41764   0.30070   0.00000  Uiso   1.00
H300   H     0.74849   0.36198   0.28844   0.00000  Uiso   1.00
C301   C     0.74334   0.29689   0.01777   0.00000  Uiso   1.00
C302   C     0.75974   0.34050   0.49697   0.00000  Uiso   1.00
H303   H     0.78086   0.36249   0.02591   0.00000  Uiso   1.00
H304   H     0.78620   0.33379   0.46963   0.00000  Uiso   1.00
H305   H     0.72305   0.35842   0.47930   0.00000  Uiso   1.00
H306   H     0.72363   0.27464   0.48855   0.00000  Uiso   1.00
H307   H     0.71185   0.30533   0.04027   0.00000  Uiso   1.00
C308   C     0.92240   0.29629   0.48385   0.00000  Uiso   1.00
C309   C     0.90496   0.34042   0.00530   0.00000  Uiso   1.00
H310   H     0.88356   0.36207   0.47665   0.00000  Uiso   1.00
H311   H     0.87839   0.33435   0.03232   0.00000  Uiso   1.00
H312   H     0.94119   0.35834   0.02347   0.00000  Uiso   1.00
H313   H     0.94222   0.27430   0.01275   0.00000  Uiso   1.00
H314   H     0.95402   0.30404   0.46178   0.00000  Uiso   1.00
H315   H     0.76146   0.28824   0.11412   0.00000  Uiso   1.00
H316   H     0.90468   0.28742   0.38737   0.00000  Uiso   1.00
H317   H     0.90464   0.21060   0.12985   0.00000  Uiso   1.00
H318   H     0.76263   0.21128   0.36867   0.00000  Uiso   1.00
C319   C     0.16803   0.66396   0.24973   0.00000  Uiso   1.00
C320   C     0.16692   0.83626   0.25050   0.00000  Uiso   1.00
C321   C     0.12402   0.77296   0.04734   0.00000  Uiso   1.00
C322   C     0.20898   0.77250   0.45348   0.00000  Uiso   1.00
C323   C     0.12602   0.77174   0.09763   0.00000  Uiso   1.00
C324   C     0.20703   0.77126   0.40319   0.00000  Uiso   1.00
C325   C     0.20632   0.72823   0.10679   0.00000  Uiso   1.00
C326   C     0.12735   0.72861   0.39238   0.00000  Uiso   1.00
C327   C     0.20644   0.72825   0.05714   0.00000  Uiso   1.00
C328   C     0.12725   0.72859   0.44203   0.00000  Uiso   1.00
C329   C     0.16583   0.75118   0.02653   0.00000  Uiso   1.00
C330   C     0.16752   0.75114   0.47350   0.00000  Uiso   1.00
C331   C     0.06775   0.75899   0.23800   0.00000  Uiso   1.00
C332   C     0.26574   0.75790   0.26254   0.00000  Uiso   1.00
C333   C     0.01329   0.77705   0.23231   0.00000  Uiso   1.00
C334   C     0.31965   0.77573   0.27008   0.00000  Uiso   1.00
C335   C     0.13605   0.54534   0.21945   0.00000  Uiso   1.00
C336   C     0.21899   0.94851   0.22835   0.00000  Uiso   1.00
C337   C     0.13349   0.59184   0.22093   0.00000  Uiso   1.00
C338   C     0.21205   0.90238   0.22887   0.00000  Uiso   1.00
C339   C     0.17401   0.61624   0.24906   0.00000  Uiso   1.00
C340   C     0.17236   0.88418   0.25232   0.00000  Uiso   1.00
C341   C     0.21958   0.59505   0.27518   0.00000  Uiso   1.00
C342   C     0.14075   0.91174   0.27833   0.00000  Uiso   1.00
C343   C     0.22258   0.54859   0.27355   0.00000  Uiso   1.00
C344   C     0.14750   0.95764   0.27761   0.00000  Uiso   1.00
C345   C     0.18165   0.52397   0.24603   0.00000  Uiso   1.00
C346   C     0.18372   0.97593   0.25077   0.00000  Uiso   1.00
H347   H     0.25634   0.53141   0.29470   0.00000  Uiso   1.00
H348   H     0.12252   0.97959   0.29630   0.00000  Uiso   1.00
H349   H     0.23810   0.71012   0.04261   0.00000  Uiso   1.00
H350   H     0.09589   0.71073   0.45587   0.00000  Uiso   1.00
N351   N     0.16667   0.74999   0.12623   0.00000  Uiso   1.00
N352   N     0.16667   0.75001   0.37376   0.00000  Uiso   1.00
O353   O     0.16667   0.68453   0.28974   0.00000  Uiso   1.00
O354   O     0.16666   0.81546   0.21026   0.00000  Uiso   1.00
O355   O     0.16667   0.68453   0.21026   0.00000  Uiso   1.00
O356   O     0.16666   0.81547   0.28974   0.00000  Uiso   1.00
O357   O     0.09058   0.75000   0.28044   0.00000  Uiso   1.00
O358   O     0.24275   0.75000   0.21955   0.00000  Uiso   1.00
O359   O     0.09058   0.75000   0.20096   0.00000  Uiso   1.00
O360   O     0.24275   0.75000   0.29903   0.00000  Uiso   1.00
Zn361  Zn    0.16667   0.75000   0.30307   0.00000  Uiso   1.00
Zn362  Zn    0.16667   0.74999   0.19693   0.00000  Uiso   1.00
C363   C     0.32263   0.79798   0.18470   0.00000  Uiso   1.00
C364   C     0.01948   0.84044   0.17605   0.00000  Uiso   1.00
H365   H     0.01670   0.86547   0.20522   0.00000  Uiso   1.00
H366   H     0.06260   0.83307   0.17461   0.00000  Uiso   1.00
H367   H     0.00110   0.85523   0.14143   0.00000  Uiso   1.00
H368   H     0.32424   0.77342   0.15488   0.00000  Uiso   1.00
H369   H     0.28003   0.80879   0.18386   0.00000  Uiso   1.00
C370   C     0.00884   0.79361   0.32017   0.00000  Uiso   1.00
C371   C     0.31195   0.83634   0.33181   0.00000  Uiso   1.00
H372   H     0.31781   0.86313   0.30643   0.00000  Uiso   1.00
H373   H     0.26812   0.83059   0.32925   0.00000  Uiso   1.00
H374   H     0.32750   0.84802   0.36888   0.00000  Uiso   1.00
H375   H     0.00521   0.76771   0.34721   0.00000  Uiso   1.00
H376   H     0.05182   0.80273   0.32436   0.00000  Uiso   1.00
C377   C     0.08832   0.52014   0.19184   0.00000  Uiso   1.00
C378   C     0.10225   0.99589   0.14729   0.00000  Uiso   1.00
H379   H     0.12073   0.51938   0.12470   0.00000  Uiso   1.00
H380   H     0.13007   0.96726   0.15730   0.00000  Uiso   1.00
H381   H     0.06480   0.98239   0.12592   0.00000  Uiso   1.00
H382   H     0.07229   0.99592   0.21519   0.00000  Uiso   1.00
H383   H     0.05432   0.54371   0.17990   0.00000  Uiso   1.00
C384   C     0.26448   0.96686   0.20500   0.00000  Uiso   1.00
C385   C     0.24444   0.98677   0.15603   0.00000  Uiso   1.00
H386   H     0.22090   0.96161   0.13224   0.00000  Uiso   1.00
H387   H     0.21921   0.51710   0.15953   0.00000  Uiso   1.00
H388   H     0.27959   0.99670   0.13927   0.00000  Uiso   1.00
H389   H     0.28732   0.99239   0.22869   0.00000  Uiso   1.00
H390   H     0.29409   0.93973   0.20004   0.00000  Uiso   1.00
H391   H     0.09905   0.60935   0.20117   0.00000  Uiso   1.00
H392   H     0.23776   0.88038   0.21106   0.00000  Uiso   1.00
C393   C     0.26584   0.62063   0.30394   0.00000  Uiso   1.00
C394   C     0.26109   0.62199   0.35714   0.00000  Uiso   1.00
H395   H     0.22262   0.63854   0.36289   0.00000  Uiso   1.00
H396   H     0.26260   0.58748   0.37142   0.00000  Uiso   1.00
H397   H     0.29514   0.64127   0.37723   0.00000  Uiso   1.00
H398   H     0.30482   0.60430   0.29916   0.00000  Uiso   1.00
H399   H     0.26771   0.65541   0.29109   0.00000  Uiso   1.00
C400   C     0.09761   0.89412   0.30460   0.00000  Uiso   1.00
C401   C     0.11921   0.88869   0.35786   0.00000  Uiso   1.00
H402   H     0.08730   0.87505   0.37639   0.00000  Uiso   1.00
H403   H     0.15444   0.86536   0.36308   0.00000  Uiso   1.00
H404   H     0.13164   0.92168   0.37453   0.00000  Uiso   1.00
H405   H     0.06244   0.91764   0.30070   0.00000  Uiso   1.00
H406   H     0.08182   0.86198   0.28844   0.00000  Uiso   1.00
C407   C     0.07668   0.79689   0.01777   0.00000  Uiso   1.00
C408   C     0.09308   0.84050   0.49697   0.00000  Uiso   1.00
H409   H     0.11419   0.86249   0.02591   0.00000  Uiso   1.00
H410   H     0.11953   0.83379   0.46963   0.00000  Uiso   1.00
H411   H     0.05639   0.85842   0.47930   0.00000  Uiso   1.00
H412   H     0.05697   0.77464   0.48855   0.00000  Uiso   1.00
H413   H     0.04518   0.80533   0.04027   0.00000  Uiso   1.00
C414   C     0.25573   0.79629   0.48385   0.00000  Uiso   1.00
C415   C     0.23829   0.84042   0.00530   0.00000  Uiso   1.00
H416   H     0.21689   0.86207   0.47665   0.00000  Uiso   1.00
H417   H     0.21172   0.83435   0.03232   0.00000  Uiso   1.00
H418   H     0.27453   0.85834   0.02347   0.00000  Uiso   1.00
H419   H     0.27556   0.77430   0.01275   0.00000  Uiso   1.00
H420   H     0.28735   0.80404   0.46178   0.00000  Uiso   1.00
H421   H     0.09480   0.78824   0.11412   0.00000  Uiso   1.00
H422   H     0.23801   0.78742   0.38737   0.00000  Uiso   1.00
H423   H     0.23798   0.71060   0.12985   0.00000  Uiso   1.00
H424   H     0.09597   0.71128   0.36867   0.00000  Uiso   1.00
C425   C     0.50137   0.66396   0.24973   0.00000  Uiso   1.00
C426   C     0.50025   0.83626   0.25050   0.00000  Uiso   1.00
C427   C     0.45735   0.77296   0.04734   0.00000  Uiso   1.00
C428   C     0.54231   0.77250   0.45348   0.00000  Uiso   1.00
C429   C     0.45935   0.77174   0.09763   0.00000  Uiso   1.00
C430   C     0.54036   0.77126   0.40319   0.00000  Uiso   1.00
C431   C     0.53965   0.72823   0.10679   0.00000  Uiso   1.00
C432   C     0.46068   0.72861   0.39238   0.00000  Uiso   1.00
C433   C     0.53978   0.72825   0.05714   0.00000  Uiso   1.00
C434   C     0.46059   0.72859   0.44203   0.00000  Uiso   1.00
C435   C     0.49916   0.75118   0.02653   0.00000  Uiso   1.00
C436   C     0.50085   0.75114   0.47350   0.00000  Uiso   1.00
C437   C     0.40108   0.75899   0.23800   0.00000  Uiso   1.00
C438   C     0.59908   0.75790   0.26254   0.00000  Uiso   1.00
C439   C     0.34662   0.77705   0.23231   0.00000  Uiso   1.00
C440   C     0.65298   0.77573   0.27008   0.00000  Uiso   1.00
C441   C     0.46938   0.54534   0.21945   0.00000  Uiso   1.00
C442   C     0.55233   0.94851   0.22835   0.00000  Uiso   1.00
C443   C     0.46683   0.59184   0.22093   0.00000  Uiso   1.00
C444   C     0.54539   0.90238   0.22887   0.00000  Uiso   1.00
C445   C     0.50734   0.61624   0.24906   0.00000  Uiso   1.00
C446   C     0.50569   0.88418   0.25232   0.00000  Uiso   1.00
C447   C     0.55292   0.59505   0.27518   0.00000  Uiso   1.00
C448   C     0.47408   0.91174   0.27833   0.00000  Uiso   1.00
C449   C     0.55591   0.54859   0.27355   0.00000  Uiso   1.00
C450   C     0.48083   0.95764   0.27761   0.00000  Uiso   1.00
C451   C     0.51498   0.52397   0.24603   0.00000  Uiso   1.00
C452   C     0.51705   0.97593   0.25077   0.00000  Uiso   1.00
H453   H     0.58967   0.53141   0.29470   0.00000  Uiso   1.00
H454   H     0.45585   0.97959   0.29630   0.00000  Uiso   1.00
H455   H     0.57144   0.71012   0.04261   0.00000  Uiso   1.00
H456   H     0.42922   0.71073   0.45587   0.00000  Uiso   1.00
N457   N     0.50000   0.74999   0.12623   0.00000  Uiso   1.00
N458   N     0.50000   0.75001   0.37376   0.00000  Uiso   1.00
O459   O     0.50000   0.68453   0.28974   0.00000  Uiso   1.00
O460   O     0.50000   0.81546   0.21026   0.00000  Uiso   1.00
O461   O     0.50000   0.68453   0.21026   0.00000  Uiso   1.00
O462   O     0.50000   0.81547   0.28974   0.00000  Uiso   1.00
O463   O     0.42392   0.75000   0.28044   0.00000  Uiso   1.00
O464   O     0.57608   0.75000   0.21955   0.00000  Uiso   1.00
O465   O     0.42392   0.75000   0.20096   0.00000  Uiso   1.00
O466   O     0.57608   0.75000   0.29903   0.00000  Uiso   1.00
Zn467  Zn    0.50000   0.75000   0.30307   0.00000  Uiso   1.00
Zn468  Zn    0.50000   0.74999   0.19693   0.00000  Uiso   1.00
C469   C     0.65596   0.79798   0.18470   0.00000  Uiso   1.00
C470   C     0.35281   0.84044   0.17605   0.00000  Uiso   1.00
H471   H     0.35004   0.86547   0.20522   0.00000  Uiso   1.00
H472   H     0.39593   0.83307   0.17461   0.00000  Uiso   1.00
H473   H     0.33444   0.85523   0.14143   0.00000  Uiso   1.00
H474   H     0.65758   0.77342   0.15488   0.00000  Uiso   1.00
H475   H     0.61336   0.80879   0.18386   0.00000  Uiso   1.00
C476   C     0.34217   0.79361   0.32017   0.00000  Uiso   1.00
C477   C     0.64529   0.83634   0.33181   0.00000  Uiso   1.00
H478   H     0.65114   0.86313   0.30643   0.00000  Uiso   1.00
H479   H     0.60146   0.83059   0.32925   0.00000  Uiso   1.00
H480   H     0.66084   0.84802   0.36888   0.00000  Uiso   1.00
H481   H     0.33854   0.76771   0.34721   0.00000  Uiso   1.00
H482   H     0.38516   0.80273   0.32436   0.00000  Uiso   1.00
C483   C     0.42166   0.52014   0.19184   0.00000  Uiso   1.00
C484   C     0.43558   0.99589   0.14729   0.00000  Uiso   1.00
H485   H     0.45407   0.51938   0.12470   0.00000  Uiso   1.00
H486   H     0.46341   0.96726   0.15730   0.00000  Uiso   1.00
H487   H     0.39814   0.98239   0.12592   0.00000  Uiso   1.00
H488   H     0.40563   0.99592   0.21519   0.00000  Uiso   1.00
H489   H     0.38765   0.54371   0.17990   0.00000  Uiso   1.00
C490   C     0.59782   0.96686   0.20500   0.00000  Uiso   1.00
C491   C     0.57777   0.98677   0.15603   0.00000  Uiso   1.00
H492   H     0.55424   0.96161   0.13224   0.00000  Uiso   1.00
H493   H     0.55254   0.51710   0.15953   0.00000  Uiso   1.00
H494   H     0.61292   0.99670   0.13927   0.00000  Uiso   1.00
H495   H     0.62065   0.99239   0.22869   0.00000  Uiso   1.00
H496   H     0.62742   0.93973   0.20004   0.00000  Uiso   1.00
H497   H     0.43238   0.60935   0.20117   0.00000  Uiso   1.00
H498   H     0.57109   0.88038   0.21106   0.00000  Uiso   1.00
C499   C     0.59917   0.62063   0.30394   0.00000  Uiso   1.00
C500   C     0.59442   0.62199   0.35714   0.00000  Uiso   1.00
H501   H     0.55595   0.63854   0.36289   0.00000  Uiso   1.00
H502   H     0.59593   0.58748   0.37142   0.00000  Uiso   1.00
H503   H     0.62847   0.64127   0.37723   0.00000  Uiso   1.00
H504   H     0.63816   0.60430   0.29916   0.00000  Uiso   1.00
H505   H     0.60105   0.65541   0.29109   0.00000  Uiso   1.00
C506   C     0.43095   0.89412   0.30460   0.00000  Uiso   1.00
C507   C     0.45254   0.88869   0.35786   0.00000  Uiso   1.00
H508   H     0.42063   0.87505   0.37639   0.00000  Uiso   1.00
H509   H     0.48778   0.86536   0.36308   0.00000  Uiso   1.00
H510   H     0.46497   0.92168   0.37453   0.00000  Uiso   1.00
H511   H     0.39578   0.91764   0.30070   0.00000  Uiso   1.00
H512   H     0.41515   0.86198   0.28844   0.00000  Uiso   1.00
C513   C     0.41001   0.79689   0.01777   0.00000  Uiso   1.00
C514   C     0.42641   0.84050   0.49697   0.00000  Uiso   1.00
H515   H     0.44753   0.86249   0.02591   0.00000  Uiso   1.00
H516   H     0.45287   0.83379   0.46963   0.00000  Uiso   1.00
H517   H     0.38972   0.85842   0.47930   0.00000  Uiso   1.00
H518   H     0.39030   0.77464   0.48855   0.00000  Uiso   1.00
H519   H     0.37852   0.80533   0.04027   0.00000  Uiso   1.00
C520   C     0.58907   0.79629   0.48385   0.00000  Uiso   1.00
C521   C     0.57163   0.84042   0.00530   0.00000  Uiso   1.00
H522   H     0.55023   0.86207   0.47665   0.00000  Uiso   1.00
H523   H     0.54506   0.83435   0.03232   0.00000  Uiso   1.00
H524   H     0.60786   0.85834   0.02347   0.00000  Uiso   1.00
H525   H     0.60889   0.77430   0.01275   0.00000  Uiso   1.00
H526   H     0.62068   0.80404   0.46178   0.00000  Uiso   1.00
H527   H     0.42813   0.78824   0.11412   0.00000  Uiso   1.00
H528   H     0.57135   0.78742   0.38737   0.00000  Uiso   1.00
H529   H     0.57131   0.71060   0.12985   0.00000  Uiso   1.00
H530   H     0.42930   0.71128   0.36867   0.00000  Uiso   1.00
C531   C     0.83470   0.66396   0.24973   0.00000  Uiso   1.00
C532   C     0.83358   0.83626   0.25050   0.00000  Uiso   1.00
C533   C     0.79069   0.77296   0.04734   0.00000  Uiso   1.00
C534   C     0.87565   0.77250   0.45348   0.00000  Uiso   1.00
C535   C     0.79269   0.77174   0.09763   0.00000  Uiso   1.00
C536   C     0.87370   0.77126   0.40319   0.00000  Uiso   1.00
C537   C     0.87299   0.72823   0.10679   0.00000  Uiso   1.00
C538   C     0.79402   0.72861   0.39238   0.00000  Uiso   1.00
C539   C     0.87311   0.72825   0.05714   0.00000  Uiso   1.00
C540   C     0.79392   0.72859   0.44203   0.00000  Uiso   1.00
C541   C     0.83250   0.75118   0.02653   0.00000  Uiso   1.00
C542   C     0.83419   0.75114   0.47350   0.00000  Uiso   1.00
C543   C     0.73442   0.75899   0.23800   0.00000  Uiso   1.00
C544   C     0.93241   0.75790   0.26254   0.00000  Uiso   1.00
C545   C     0.67996   0.77705   0.23231   0.00000  Uiso   1.00
C546   C     0.98631   0.77573   0.27008   0.00000  Uiso   1.00
C547   C     0.80271   0.54534   0.21945   0.00000  Uiso   1.00
C548   C     0.88566   0.94851   0.22835   0.00000  Uiso   1.00
C549   C     0.80016   0.59184   0.22093   0.00000  Uiso   1.00
C550   C     0.87872   0.90238   0.22887   0.00000  Uiso   1.00
C551   C     0.84067   0.61624   0.24906   0.00000  Uiso   1.00
C552   C     0.83902   0.88418   0.25232   0.00000  Uiso   1.00
C553   C     0.88625   0.59505   0.27518   0.00000  Uiso   1.00
C554   C     0.80742   0.91174   0.27833   0.00000  Uiso   1.00
C555   C     0.88924   0.54859   0.27355   0.00000  Uiso   1.00
C556   C     0.81416   0.95764   0.27761   0.00000  Uiso   1.00
C557   C     0.84832   0.52397   0.24603   0.00000  Uiso   1.00
C558   C     0.85038   0.97593   0.25077   0.00000  Uiso   1.00
H559   H     0.92300   0.53141   0.29470   0.00000  Uiso   1.00
H560   H     0.78918   0.97959   0.29630   0.00000  Uiso   1.00
H561   H     0.90477   0.71012   0.04261   0.00000  Uiso   1.00
H562   H     0.76255   0.71073   0.45587   0.00000  Uiso   1.00
N563   N     0.83333   0.74999   0.12623   0.00000  Uiso   1.00
N564   N     0.83333   0.75001   0.37376   0.00000  Uiso   1.00
O565   O     0.83334   0.68453   0.28974   0.00000  Uiso   1.00
O566   O     0.83333   0.81546   0.21026   0.00000  Uiso   1.00
O567   O     0.83334   0.68453   0.21026   0.00000  Uiso   1.00
O568   O     0.83333   0.81547   0.28974   0.00000  Uiso   1.00
O569   O     0.75725   0.75000   0.28044   0.00000  Uiso   1.00
O570   O     0.90942   0.75000   0.21955   0.00000  Uiso   1.00
O571   O     0.75725   0.75000   0.20096   0.00000  Uiso   1.00
O572   O     0.90942   0.75000   0.29903   0.00000  Uiso   1.00
Zn573  Zn    0.83333   0.75000   0.30307   0.00000  Uiso   1.00
Zn574  Zn    0.83333   0.74999   0.19693   0.00000  Uiso   1.00
C575   C     0.98929   0.79798   0.18470   0.00000  Uiso   1.00
C576   C     0.68615   0.84044   0.17605   0.00000  Uiso   1.00
H577   H     0.68337   0.86547   0.20522   0.00000  Uiso   1.00
H578   H     0.72926   0.83307   0.17461   0.00000  Uiso   1.00
H579   H     0.66777   0.85523   0.14143   0.00000  Uiso   1.00
H580   H     0.99091   0.77342   0.15488   0.00000  Uiso   1.00
H581   H     0.94669   0.80879   0.18386   0.00000  Uiso   1.00
C582   C     0.67550   0.79361   0.32017   0.00000  Uiso   1.00
C583   C     0.97862   0.83634   0.33181   0.00000  Uiso   1.00
H584   H     0.98448   0.86313   0.30643   0.00000  Uiso   1.00
H585   H     0.93479   0.83059   0.32925   0.00000  Uiso   1.00
H586   H     0.99417   0.84802   0.36888   0.00000  Uiso   1.00
H587   H     0.67187   0.76771   0.34721   0.00000  Uiso   1.00
H588   H     0.71849   0.80273   0.32436   0.00000  Uiso   1.00
C589   C     0.75499   0.52014   0.19184   0.00000  Uiso   1.00
C590   C     0.76892   0.99589   0.14729   0.00000  Uiso   1.00
H591   H     0.78740   0.51938   0.12470   0.00000  Uiso   1.00
H592   H     0.79674   0.96726   0.15730   0.00000  Uiso   1.00
H593   H     0.73147   0.98239   0.12592   0.00000  Uiso   1.00
H594   H     0.73896   0.99592   0.21519   0.00000  Uiso   1.00
H595   H     0.72098   0.54371   0.17990   0.00000  Uiso   1.00
C596   C     0.93115   0.96686   0.20500   0.00000  Uiso   1.00
C597   C     0.91110   0.98677   0.15603   0.00000  Uiso   1.00
H598   H     0.88757   0.96161   0.13224   0.00000  Uiso   1.00
H599   H     0.88587   0.51710   0.15953   0.00000  Uiso   1.00
H600   H     0.94625   0.99670   0.13927   0.00000  Uiso   1.00
H601   H     0.95399   0.99239   0.22869   0.00000  Uiso   1.00
H602   H     0.96076   0.93973   0.20004   0.00000  Uiso   1.00
H603   H     0.76572   0.60935   0.20117   0.00000  Uiso   1.00
H604   H     0.90442   0.88038   0.21106   0.00000  Uiso   1.00
C605   C     0.93251   0.62063   0.30394   0.00000  Uiso   1.00
C606   C     0.92775   0.62199   0.35714   0.00000  Uiso   1.00
H607   H     0.88928   0.63854   0.36289   0.00000  Uiso   1.00
H608   H     0.92927   0.58748   0.37142   0.00000  Uiso   1.00
H609   H     0.96180   0.64127   0.37723   0.00000  Uiso   1.00
H610   H     0.97149   0.60430   0.29916   0.00000  Uiso   1.00
H611   H     0.93438   0.65541   0.29109   0.00000  Uiso   1.00
C612   C     0.76428   0.89412   0.30460   0.00000  Uiso   1.00
C613   C     0.78588   0.88869   0.35786   0.00000  Uiso   1.00
H614   H     0.75396   0.87505   0.37639   0.00000  Uiso   1.00
H615   H     0.82111   0.86536   0.36308   0.00000  Uiso   1.00
H616   H     0.79830   0.92168   0.37453   0.00000  Uiso   1.00
H617   H     0.72911   0.91764   0.30070   0.00000  Uiso   1.00
H618   H     0.74849   0.86198   0.28844   0.00000  Uiso   1.00
C619   C     0.74334   0.79689   0.01777   0.00000  Uiso   1.00
C620   C     0.75974   0.84050   0.49697   0.00000  Uiso   1.00
H621   H     0.78086   0.86249   0.02591   0.00000  Uiso   1.00
H622   H     0.78620   0.83379   0.46963   0.00000  Uiso   1.00
H623   H     0.72305   0.85842   0.47930   0.00000  Uiso   1.00
H624   H     0.72363   0.77464   0.48855   0.00000  Uiso   1.00
H625   H     0.71185   0.80533   0.04027   0.00000  Uiso   1.00
C626   C     0.92240   0.79629   0.48385   0.00000  Uiso   1.00
C627   C     0.90496   0.84042   0.00530   0.00000  Uiso   1.00
H628   H     0.88356   0.86207   0.47665   0.00000  Uiso   1.00
H629   H     0.87839   0.83435   0.03232   0.00000  Uiso   1.00
H630   H     0.94119   0.85834   0.02347   0.00000  Uiso   1.00
H631   H     0.94222   0.77430   0.01275   0.00000  Uiso   1.00
H632   H     0.95402   0.80404   0.46178   0.00000  Uiso   1.00
H633   H     0.76146   0.78824   0.11412   0.00000  Uiso   1.00
H634   H     0.90468   0.78742   0.38737   0.00000  Uiso   1.00
H635   H     0.90464   0.71060   0.12985   0.00000  Uiso   1.00
H636   H     0.76263   0.71128   0.36867   0.00000  Uiso   1.00
C637   C     0.16803   0.16396   0.74973   0.00000  Uiso   1.00
C638   C     0.16692   0.33626   0.75050   0.00000  Uiso   1.00
C639   C     0.12402   0.27296   0.54734   0.00000  Uiso   1.00
C640   C     0.20898   0.27250   0.95348   0.00000  Uiso   1.00
C641   C     0.12602   0.27174   0.59763   0.00000  Uiso   1.00
C642   C     0.20703   0.27126   0.90319   0.00000  Uiso   1.00
C643   C     0.20632   0.22823   0.60679   0.00000  Uiso   1.00
C644   C     0.12735   0.22861   0.89238   0.00000  Uiso   1.00
C645   C     0.20644   0.22825   0.55714   0.00000  Uiso   1.00
C646   C     0.12725   0.22859   0.94203   0.00000  Uiso   1.00
C647   C     0.16583   0.25118   0.52653   0.00000  Uiso   1.00
C648   C     0.16752   0.25114   0.97350   0.00000  Uiso   1.00
C649   C     0.06775   0.25899   0.73800   0.00000  Uiso   1.00
C650   C     0.26574   0.25790   0.76254   0.00000  Uiso   1.00
C651   C     0.01329   0.27705   0.73231   0.00000  Uiso   1.00
C652   C     0.31965   0.27573   0.77008   0.00000  Uiso   1.00
C653   C     0.13605   0.04534   0.71945   0.00000  Uiso   1.00
C654   C     0.21899   0.44851   0.72835   0.00000  Uiso   1.00
C655   C     0.13349   0.09184   0.72093   0.00000  Uiso   1.00
C656   C     0.21205   0.40238   0.72887   0.00000  Uiso   1.00
C657   C     0.17401   0.11624   0.74906   0.00000  Uiso   1.00
C658   C     0.17236   0.38418   0.75232   0.00000  Uiso   1.00
C659   C     0.21958   0.09505   0.77518   0.00000  Uiso   1.00
C660   C     0.14075   0.41174   0.77833   0.00000  Uiso   1.00
C661   C     0.22258   0.04859   0.77355   0.00000  Uiso   1.00
C662   C     0.14750   0.45764   0.77761   0.00000  Uiso   1.00
C663   C     0.18165   0.02397   0.74603   0.00000  Uiso   1.00
C664   C     0.18372   0.47593   0.75077   0.00000  Uiso   1.00
H665   H     0.25634   0.03141   0.79470   0.00000  Uiso   1.00
H666   H     0.12252   0.47959   0.79630   0.00000  Uiso   1.00
H667   H     0.23810   0.21012   0.54261   0.00000  Uiso   1.00
H668   H     0.09589   0.21073   0.95587   0.00000  Uiso   1.00
N669   N     0.16667   0.24999   0.62623   0.00000  Uiso   1.00
N670   N     0.16667   0.25001   0.87376   0.00000  Uiso   1.00
O671   O     0.16667   0.18453   0.78974   0.00000  Uiso   1.00
O672   O     0.16666   0.31546   0.71026   0.00000  Uiso   1.00
O673   O     0.16667   0.18453   0.71026   0.00000  Uiso   1.00
O674   O     0.16666   0.31547   0.78974   0.00000  Uiso   1.00
O675   O     0.09058   0.25000   0.78044   0.00000  Uiso   1.00
O676   O     0.24275   0.25000   0.71955   0.00000  Uiso   1.00
O677   O     0.09058   0.25000   0.70096   0.00000  Uiso   1.00
O678   O     0.24275   0.25000   0.79903   0.00000  Uiso   1.00
Zn679  Zn    0.16667   0.25000   0.80307   0.00000  Uiso   1.00
Zn680  Zn    0.16667   0.24999   0.69693   0.00000  Uiso   1.00
C681   C     0.32263   0.29798   0.68470   0.00000  Uiso   1.00
C682   C     0.01948   0.34044   0.67605   0.00000  Uiso   1.00
H683   H     0.01670   0.36547   0.70522   0.00000  Uiso   1.00
H684   H     0.06260   0.33307   0.67461   0.00000  Uiso   1.00
H685   H     0.00110   0.35523   0.64143   0.00000  Uiso   1.00
H686   H     0.32424   0.27342   0.65488   0.00000  Uiso   1.00
H687   H     0.28003   0.30879   0.68386   0.00000  Uiso   1.00
C688   C     0.00884   0.29361   0.82017   0.00000  Uiso   1.00
C689   C     0.31195   0.33634   0.83181   0.00000  Uiso   1.00
H690   H     0.31781   0.36313   0.80643   0.00000  Uiso   1.00
H691   H     0.26812   0.33059   0.82925   0.00000  Uiso   1.00
H692   H     0.32750   0.34802   0.86888   0.00000  Uiso   1.00
H693   H     0.00521   0.26771   0.84721   0.00000  Uiso   1.00
H694   H     0.05182   0.30273   0.82436   0.00000  Uiso   1.00
C695   C     0.08832   0.02014   0.69184   0.00000  Uiso   1.00
C696   C     0.10225   0.49589   0.64729   0.00000  Uiso   1.00
H697   H     0.12073   0.01938   0.62470   0.00000  Uiso   1.00
H698   H     0.13007   0.46726   0.65730   0.00000  Uiso   1.00
H699   H     0.06480   0.48239   0.62592   0.00000  Uiso   1.00
H700   H     0.07229   0.49592   0.71519   0.00000  Uiso   1.00
H701   H     0.05432   0.04371   0.67990   0.00000  Uiso   1.00
C702   C     0.26448   0.46686   0.70500   0.00000  Uiso   1.00
C703   C     0.24444   0.48677   0.65603   0.00000  Uiso   1.00
H704   H     0.22090   0.46161   0.63224   0.00000  Uiso   1.00
H705   H     0.21921   0.01710   0.65953   0.00000  Uiso   1.00
H706   H     0.27959   0.49670   0.63927   0.00000  Uiso   1.00
H707   H     0.28732   0.49239   0.72869   0.00000  Uiso   1.00
H708   H     0.29409   0.43973   0.70004   0.00000  Uiso   1.00
H709   H     0.09905   0.10935   0.70117   0.00000  Uiso   1.00
H710   H     0.23776   0.38038   0.71106   0.00000  Uiso   1.00
C711   C     0.26584   0.12063   0.80394   0.00000  Uiso   1.00
C712   C     0.26109   0.12199   0.85714   0.00000  Uiso   1.00
H713   H     0.22262   0.13854   0.86289   0.00000  Uiso   1.00
H714   H     0.26260   0.08748   0.87142   0.00000  Uiso   1.00
H715   H     0.29514   0.14127   0.87723   0.00000  Uiso   1.00
H716   H     0.30482   0.10430   0.79916   0.00000  Uiso   1.00
H717   H     0.26771   0.15541   0.79109   0.00000  Uiso   1.00
C718   C     0.09761   0.39412   0.80460   0.00000  Uiso   1.00
C719   C     0.11921   0.38869   0.85786   0.00000  Uiso   1.00
H720   H     0.08730   0.37505   0.87639   0.00000  Uiso   1.00
H721   H     0.15444   0.36536   0.86308   0.00000  Uiso   1.00
H722   H     0.13164   0.42168   0.87453   0.00000  Uiso   1.00
H723   H     0.06244   0.41764   0.80070   0.00000  Uiso   1.00
H724   H     0.08182   0.36198   0.78844   0.00000  Uiso   1.00
C725   C     0.07668   0.29689   0.51777   0.00000  Uiso   1.00
C726   C     0.09308   0.34050   0.99697   0.00000  Uiso   1.00
H727   H     0.11419   0.36249   0.52591   0.00000  Uiso   1.00
H728   H     0.11953   0.33379   0.96963   0.00000  Uiso   1.00
H729   H     0.05639   0.35842   0.97930   0.00000  Uiso   1.00
H730   H     0.05697   0.27464   0.98855   0.00000  Uiso   1.00
H731   H     0.04518   0.30533   0.54027   0.00000  Uiso   1.00
C732   C     0.25573   0.29629   0.98385   0.00000  Uiso   1.00
C733   C     0.23829   0.34042   0.50530   0.00000  Uiso   1.00
H734   H     0.21689   0.36207   0.97665   0.00000  Uiso   1.00
H735   H     0.21172   0.33435   0.53232   0.00000  Uiso   1.00
H736   H     0.27453   0.35834   0.52347   0.00000  Uiso   1.00
H737   H     0.27556   0.27430   0.51275   0.00000  Uiso   1.00
H738   H     0.28735   0.30404   0.96178   0.00000  Uiso   1.00
H739   H     0.09480   0.28824   0.61412   0.00000  Uiso   1.00
H740   H     0.23801   0.28742   0.88737   0.00000  Uiso   1.00
H741   H     0.23798   0.21060   0.62985   0.00000  Uiso   1.00
H742   H     0.09597   0.21128   0.86867   0.00000  Uiso   1.00
C743   C     0.50137   0.16396   0.74973   0.00000  Uiso   1.00
C744   C     0.50025   0.33626   0.75050   0.00000  Uiso   1.00
C745   C     0.45735   0.27296   0.54734   0.00000  Uiso   1.00
C746   C     0.54231   0.27250   0.95348   0.00000  Uiso   1.00
C747   C     0.45935   0.27174   0.59763   0.00000  Uiso   1.00
C748   C     0.54036   0.27126   0.90319   0.00000  Uiso   1.00
C749   C     0.53965   0.22823   0.60679   0.00000  Uiso   1.00
C750   C     0.46068   0.22861   0.89238   0.00000  Uiso   1.00
C751   C     0.53978   0.22825   0.55714   0.00000  Uiso   1.00
C752   C     0.46059   0.22859   0.94203   0.00000  Uiso   1.00
C753   C     0.49916   0.25118   0.52653   0.00000  Uiso   1.00
C754   C     0.50085   0.25114   0.97350   0.00000  Uiso   1.00
C755   C     0.40108   0.25899   0.73800   0.00000  Uiso   1.00
C756   C     0.59908   0.25790   0.76254   0.00000  Uiso   1.00
C757   C     0.34662   0.27705   0.73231   0.00000  Uiso   1.00
C758   C     0.65298   0.27573   0.77008   0.00000  Uiso   1.00
C759   C     0.46938   0.04534   0.71945   0.00000  Uiso   1.00
C760   C     0.55233   0.44851   0.72835   0.00000  Uiso   1.00
C761   C     0.46683   0.09184   0.72093   0.00000  Uiso   1.00
C762   C     0.54539   0.40238   0.72887   0.00000  Uiso   1.00
C763   C     0.50734   0.11624   0.74906   0.00000  Uiso   1.00
C764   C     0.50569   0.38418   0.75232   0.00000  Uiso   1.00
C765   C     0.55292   0.09505   0.77518   0.00000  Uiso   1.00
C766   C     0.47408   0.41174   0.77833   0.00000  Uiso   1.00
C767   C     0.55591   0.04859   0.77355   0.00000  Uiso   1.00
C768   C     0.48083   0.45764   0.77761   0.00000  Uiso   1.00
C769   C     0.51498   0.02397   0.74603   0.00000  Uiso   1.00
C770   C     0.51705   0.47593   0.75077   0.00000  Uiso   1.00
H771   H     0.58967   0.03141   0.79470   0.00000  Uiso   1.00
H772   H     0.45585   0.47959   0.79630   0.00000  Uiso   1.00
H773   H     0.57144   0.21012   0.54261   0.00000  Uiso   1.00
H774   H     0.42922   0.21073   0.95587   0.00000  Uiso   1.00
N775   N     0.50000   0.24999   0.62623   0.00000  Uiso   1.00
N776   N     0.50000   0.25001   0.87376   0.00000  Uiso   1.00
O777   O     0.50000   0.18453   0.78974   0.00000  Uiso   1.00
O778   O     0.50000   0.31546   0.71026   0.00000  Uiso   1.00
O779   O     0.50000   0.18453   0.71026   0.00000  Uiso   1.00
O780   O     0.50000   0.31547   0.78974   0.00000  Uiso   1.00
O781   O     0.42392   0.25000   0.78044   0.00000  Uiso   1.00
O782   O     0.57608   0.25000   0.71955   0.00000  Uiso   1.00
O783   O     0.42392   0.25000   0.70096   0.00000  Uiso   1.00
O784   O     0.57608   0.25000   0.79903   0.00000  Uiso   1.00
Zn785  Zn    0.50000   0.25000   0.80307   0.00000  Uiso   1.00
Zn786  Zn    0.50000   0.24999   0.69693   0.00000  Uiso   1.00
C787   C     0.65596   0.29798   0.68470   0.00000  Uiso   1.00
C788   C     0.35281   0.34044   0.67605   0.00000  Uiso   1.00
H789   H     0.35004   0.36547   0.70522   0.00000  Uiso   1.00
H790   H     0.39593   0.33307   0.67461   0.00000  Uiso   1.00
H791   H     0.33444   0.35523   0.64143   0.00000  Uiso   1.00
H792   H     0.65758   0.27342   0.65488   0.00000  Uiso   1.00
H793   H     0.61336   0.30879   0.68386   0.00000  Uiso   1.00
C794   C     0.34217   0.29361   0.82017   0.00000  Uiso   1.00
C795   C     0.64529   0.33634   0.83181   0.00000  Uiso   1.00
H796   H     0.65114   0.36313   0.80643   0.00000  Uiso   1.00
H797   H     0.60146   0.33059   0.82925   0.00000  Uiso   1.00
H798   H     0.66084   0.34802   0.86888   0.00000  Uiso   1.00
H799   H     0.33854   0.26771   0.84721   0.00000  Uiso   1.00
H800   H     0.38516   0.30273   0.82436   0.00000  Uiso   1.00
C801   C     0.42166   0.02014   0.69184   0.00000  Uiso   1.00
C802   C     0.43558   0.49589   0.64729   0.00000  Uiso   1.00
H803   H     0.45407   0.01938   0.62470   0.00000  Uiso   1.00
H804   H     0.46341   0.46726   0.65730   0.00000  Uiso   1.00
H805   H     0.39814   0.48239   0.62592   0.00000  Uiso   1.00
H806   H     0.40563   0.49592   0.71519   0.00000  Uiso   1.00
H807   H     0.38765   0.04371   0.67990   0.00000  Uiso   1.00
C808   C     0.59782   0.46686   0.70500   0.00000  Uiso   1.00
C809   C     0.57777   0.48677   0.65603   0.00000  Uiso   1.00
H810   H     0.55424   0.46161   0.63224   0.00000  Uiso   1.00
H811   H     0.55254   0.01710   0.65953   0.00000  Uiso   1.00
H812   H     0.61292   0.49670   0.63927   0.00000  Uiso   1.00
H813   H     0.62065   0.49239   0.72869   0.00000  Uiso   1.00
H814   H     0.62742   0.43973   0.70004   0.00000  Uiso   1.00
H815   H     0.43238   0.10935   0.70117   0.00000  Uiso   1.00
H816   H     0.57109   0.38038   0.71106   0.00000  Uiso   1.00
C817   C     0.59917   0.12063   0.80394   0.00000  Uiso   1.00
C818   C     0.59442   0.12199   0.85714   0.00000  Uiso   1.00
H819   H     0.55595   0.13854   0.86289   0.00000  Uiso   1.00
H820   H     0.59593   0.08748   0.87142   0.00000  Uiso   1.00
H821   H     0.62847   0.14127   0.87723   0.00000  Uiso   1.00
H822   H     0.63816   0.10430   0.79916   0.00000  Uiso   1.00
H823   H     0.60105   0.15541   0.79109   0.00000  Uiso   1.00
C824   C     0.43095   0.39412   0.80460   0.00000  Uiso   1.00
C825   C     0.45254   0.38869   0.85786   0.00000  Uiso   1.00
H826   H     0.42063   0.37505   0.87639   0.00000  Uiso   1.00
H827   H     0.48778   0.36536   0.86308   0.00000  Uiso   1.00
H828   H     0.46497   0.42168   0.87453   0.00000  Uiso   1.00
H829   H     0.39578   0.41764   0.80070   0.00000  Uiso   1.00
H830   H     0.41515   0.36198   0.78844   0.00000  Uiso   1.00
C831   C     0.41001   0.29689   0.51777   0.00000  Uiso   1.00
C832   C     0.42641   0.34050   0.99697   0.00000  Uiso   1.00
H833   H     0.44753   0.36249   0.52591   0.00000  Uiso   1.00
H834   H     0.45287   0.33379   0.96963   0.00000  Uiso   1.00
H835   H     0.38972   0.35842   0.97930   0.00000  Uiso   1.00
H836   H     0.39030   0.27464   0.98855   0.00000  Uiso   1.00
H837   H     0.37852   0.30533   0.54027   0.00000  Uiso   1.00
C838   C     0.58907   0.29629   0.98385   0.00000  Uiso   1.00
C839   C     0.57163   0.34042   0.50530   0.00000  Uiso   1.00
H840   H     0.55023   0.36207   0.97665   0.00000  Uiso   1.00
H841   H     0.54506   0.33435   0.53232   0.00000  Uiso   1.00
H842   H     0.60786   0.35834   0.52347   0.00000  Uiso   1.00
H843   H     0.60889   0.27430   0.51275   0.00000  Uiso   1.00
H844   H     0.62068   0.30404   0.96178   0.00000  Uiso   1.00
H845   H     0.42813   0.28824   0.61412   0.00000  Uiso   1.00
H846   H     0.57135   0.28742   0.88737   0.00000  Uiso   1.00
H847   H     0.57131   0.21060   0.62985   0.00000  Uiso   1.00
H848   H     0.42930   0.21128   0.86867   0.00000  Uiso   1.00
C849   C     0.83470   0.16396   0.74973   0.00000  Uiso   1.00
C850   C     0.83358   0.33626   0.75050   0.00000  Uiso   1.00
C851   C     0.79069   0.27296   0.54734   0.00000  Uiso   1.00
C852   C     0.87565   0.27250   0.95348   0.00000  Uiso   1.00
C853   C     0.79269   0.27174   0.59763   0.00000  Uiso   1.00
C854   C     0.87370   0.27126   0.90319   0.00000  Uiso   1.00
C855   C     0.87299   0.22823   0.60679   0.00000  Uiso   1.00
C856   C     0.79402   0.22861   0.89238   0.00000  Uiso   1.00
C857   C     0.87311   0.22825   0.55714   0.00000  Uiso   1.00
C858   C     0.79392   0.22859   0.94203   0.00000  Uiso   1.00
C859   C     0.83250   0.25118   0.52653   0.00000  Uiso   1.00
C860   C     0.83419   0.25114   0.97350   0.00000  Uiso   1.00
C861   C     0.73442   0.25899   0.73800   0.00000  Uiso   1.00
C862   C     0.93241   0.25790   0.76254   0.00000  Uiso   1.00
C863   C     0.67996   0.27705   0.73231   0.00000  Uiso   1.00
C864   C     0.98631   0.27573   0.77008   0.00000  Uiso   1.00
C865   C     0.80271   0.04534   0.71945   0.00000  Uiso   1.00
C866   C     0.88566   0.44851   0.72835   0.00000  Uiso   1.00
C867   C     0.80016   0.09184   0.72093   0.00000  Uiso   1.00
C868   C     0.87872   0.40238   0.72887   0.00000  Uiso   1.00
C869   C     0.84067   0.11624   0.74906   0.00000  Uiso   1.00
C870   C     0.83902   0.38418   0.75232   0.00000  Uiso   1.00
C871   C     0.88625   0.09505   0.77518   0.00000  Uiso   1.00
C872   C     0.80742   0.41174   0.77833   0.00000  Uiso   1.00
C873   C     0.88924   0.04859   0.77355   0.00000  Uiso   1.00
C874   C     0.81416   0.45764   0.77761   0.00000  Uiso   1.00
C875   C     0.84832   0.02397   0.74603   0.00000  Uiso   1.00
C876   C     0.85038   0.47593   0.75077   0.00000  Uiso   1.00
H877   H     0.92300   0.03141   0.79470   0.00000  Uiso   1.00
H878   H     0.78918   0.47959   0.79630   0.00000  Uiso   1.00
H879   H     0.90477   0.21012   0.54261   0.00000  Uiso   1.00
H880   H     0.76255   0.21073   0.95587   0.00000  Uiso   1.00
N881   N     0.83333   0.24999   0.62623   0.00000  Uiso   1.00
N882   N     0.83333   0.25001   0.87376   0.00000  Uiso   1.00
O883   O     0.83334   0.18453   0.78974   0.00000  Uiso   1.00
O884   O     0.83333   0.31546   0.71026   0.00000  Uiso   1.00
O885   O     0.83334   0.18453   0.71026   0.00000  Uiso   1.00
O886   O     0.83333   0.31547   0.78974   0.00000  Uiso   1.00
O887   O     0.75725   0.25000   0.78044   0.00000  Uiso   1.00
O888   O     0.90942   0.25000   0.71955   0.00000  Uiso   1.00
O889   O     0.75725   0.25000   0.70096   0.00000  Uiso   1.00
O890   O     0.90942   0.25000   0.79903   0.00000  Uiso   1.00
Zn891  Zn    0.83333   0.25000   0.80307   0.00000  Uiso   1.00
Zn892  Zn    0.83333   0.24999   0.69693   0.00000  Uiso   1.00
C893   C     0.98929   0.29798   0.68470   0.00000  Uiso   1.00
C894   C     0.68615   0.34044   0.67605   0.00000  Uiso   1.00
H895   H     0.68337   0.36547   0.70522   0.00000  Uiso   1.00
H896   H     0.72926   0.33307   0.67461   0.00000  Uiso   1.00
H897   H     0.66777   0.35523   0.64143   0.00000  Uiso   1.00
H898   H     0.99091   0.27342   0.65488   0.00000  Uiso   1.00
H899   H     0.94669   0.30879   0.68386   0.00000  Uiso   1.00
C900   C     0.67550   0.29361   0.82017   0.00000  Uiso   1.00
C901   C     0.97862   0.33634   0.83181   0.00000  Uiso   1.00
H902   H     0.98448   0.36313   0.80643   0.00000  Uiso   1.00
H903   H     0.93479   0.33059   0.82925   0.00000  Uiso   1.00
H904   H     0.99417   0.34802   0.86888   0.00000  Uiso   1.00
H905   H     0.67187   0.26771   0.84721   0.00000  Uiso   1.00
H906   H     0.71849   0.30273   0.82436   0.00000  Uiso   1.00
C907   C     0.75499   0.02014   0.69184   0.00000  Uiso   1.00
C908   C     0.76892   0.49589   0.64729   0.00000  Uiso   1.00
H909   H     0.78740   0.01938   0.62470   0.00000  Uiso   1.00
H910   H     0.79674   0.46726   0.65730   0.00000  Uiso   1.00
H911   H     0.73147   0.48239   0.62592   0.00000  Uiso   1.00
H912   H     0.73896   0.49592   0.71519   0.00000  Uiso   1.00
H913   H     0.72098   0.04371   0.67990   0.00000  Uiso   1.00
C914   C     0.93115   0.46686   0.70500   0.00000  Uiso   1.00
C915   C     0.91110   0.48677   0.65603   0.00000  Uiso   1.00
H916   H     0.88757   0.46161   0.63224   0.00000  Uiso   1.00
H917   H     0.88587   0.01710   0.65953   0.00000  Uiso   1.00
H918   H     0.94625   0.49670   0.63927   0.00000  Uiso   1.00
H919   H     0.95399   0.49239   0.72869   0.00000  Uiso   1.00
H920   H     0.96076   0.43973   0.70004   0.00000  Uiso   1.00
H921   H     0.76572   0.10935   0.70117   0.00000  Uiso   1.00
H922   H     0.90442   0.38038   0.71106   0.00000  Uiso   1.00
C923   C     0.93251   0.12063   0.80394   0.00000  Uiso   1.00
C924   C     0.92775   0.12199   0.85714   0.00000  Uiso   1.00
H925   H     0.88928   0.13854   0.86289   0.00000  Uiso   1.00
H926   H     0.92927   0.08748   0.87142   0.00000  Uiso   1.00
H927   H     0.96180   0.14127   0.87723   0.00000  Uiso   1.00
H928   H     0.97149   0.10430   0.79916   0.00000  Uiso   1.00
H929   H     0.93438   0.15541   0.79109   0.00000  Uiso   1.00
C930   C     0.76428   0.39412   0.80460   0.00000  Uiso   1.00
C931   C     0.78588   0.38869   0.85786   0.00000  Uiso   1.00
H932   H     0.75396   0.37505   0.87639   0.00000  Uiso   1.00
H933   H     0.82111   0.36536   0.86308   0.00000  Uiso   1.00
H934   H     0.79830   0.42168   0.87453   0.00000  Uiso   1.00
H935   H     0.72911   0.41764   0.80070   0.00000  Uiso   1.00
H936   H     0.74849   0.36198   0.78844   0.00000  Uiso   1.00
C937   C     0.74334   0.29689   0.51777   0.00000  Uiso   1.00
C938   C     0.75974   0.34050   0.99697   0.00000  Uiso   1.00
H939   H     0.78086   0.36249   0.52591   0.00000  Uiso   1.00
H940   H     0.78620   0.33379   0.96963   0.00000  Uiso   1.00
H941   H     0.72305   0.35842   0.97930   0.00000  Uiso   1.00
H942   H     0.72363   0.27464   0.98855   0.00000  Uiso   1.00
H943   H     0.71185   0.30533   0.54027   0.00000  Uiso   1.00
C944   C     0.92240   0.29629   0.98385   0.00000  Uiso   1.00
C945   C     0.90496   0.34042   0.50530   0.00000  Uiso   1.00
H946   H     0.88356   0.36207   0.97665   0.00000  Uiso   1.00
H947   H     0.87839   0.33435   0.53232   0.00000  Uiso   1.00
H948   H     0.94119   0.35834   0.52347   0.00000  Uiso   1.00
H949   H     0.94222   0.27430   0.51275   0.00000  Uiso   1.00
H950   H     0.95402   0.30404   0.96178   0.00000  Uiso   1.00
H951   H     0.76146   0.28824   0.61412   0.00000  Uiso   1.00
H952   H     0.90468   0.28742   0.88737   0.00000  Uiso   1.00
H953   H     0.90464   0.21060   0.62985   0.00000  Uiso   1.00
H954   H     0.76263   0.21128   0.86867   0.00000  Uiso   1.00
C955   C     0.16803   0.66396   0.74973   0.00000  Uiso   1.00
C956   C     0.16692   0.83626   0.75050   0.00000  Uiso   1.00
C957   C     0.12402   0.77296   0.54734   0.00000  Uiso   1.00
C958   C     0.20898   0.77250   0.95348   0.00000  Uiso   1.00
C959   C     0.12602   0.77174   0.59763   0.00000  Uiso   1.00
C960   C     0.20703   0.77126   0.90319   0.00000  Uiso   1.00
C961   C     0.20632   0.72823   0.60679   0.00000  Uiso   1.00
C962   C     0.12735   0.72861   0.89238   0.00000  Uiso   1.00
C963   C     0.20644   0.72825   0.55714   0.00000  Uiso   1.00
C964   C     0.12725   0.72859   0.94203   0.00000  Uiso   1.00
C965   C     0.16583   0.75118   0.52653   0.00000  Uiso   1.00
C966   C     0.16752   0.75114   0.97350   0.00000  Uiso   1.00
C967   C     0.06775   0.75899   0.73800   0.00000  Uiso   1.00
C968   C     0.26574   0.75790   0.76254   0.00000  Uiso   1.00
C969   C     0.01329   0.77705   0.73231   0.00000  Uiso   1.00
C970   C     0.31965   0.77573   0.77008   0.00000  Uiso   1.00
C971   C     0.13605   0.54534   0.71945   0.00000  Uiso   1.00
C972   C     0.21899   0.94851   0.72835   0.00000  Uiso   1.00
C973   C     0.13349   0.59184   0.72093   0.00000  Uiso   1.00
C974   C     0.21205   0.90238   0.72887   0.00000  Uiso   1.00
C975   C     0.17401   0.61624   0.74906   0.00000  Uiso   1.00
C976   C     0.17236   0.88418   0.75232   0.00000  Uiso   1.00
C977   C     0.21958   0.59505   0.77518   0.00000  Uiso   1.00
C978   C     0.14075   0.91174   0.77833   0.00000  Uiso   1.00
C979   C     0.22258   0.54859   0.77355   0.00000  Uiso   1.00
C980   C     0.14750   0.95764   0.77761   0.00000  Uiso   1.00
C981   C     0.18165   0.52397   0.74603   0.00000  Uiso   1.00
C982   C     0.18372   0.97593   0.75077   0.00000  Uiso   1.00
H983   H     0.25634   0.53141   0.79470   0.00000  Uiso   1.00
H984   H     0.12252   0.97959   0.79630   0.00000  Uiso   1.00
H985   H     0.23810   0.71012   0.54261   0.00000  Uiso   1.00
H986   H     0.09589   0.71073   0.95587   0.00000  Uiso   1.00
N987   N     0.16667   0.74999   0.62623   0.00000  Uiso   1.00
N988   N     0.16667   0.75001   0.87376   0.00000  Uiso   1.00
O989   O     0.16667   0.68453   0.78974   0.00000  Uiso   1.00
O990   O     0.16666   0.81546   0.71026   0.00000  Uiso   1.00
O991   O     0.16667   0.68453   0.71026   0.00000  Uiso   1.00
O992   O     0.16666   0.81547   0.78974   0.00000  Uiso   1.00
O993   O     0.09058   0.75000   0.78044   0.00000  Uiso   1.00
O994   O     0.24275   0.75000   0.71955   0.00000  Uiso   1.00
O995   O     0.09058   0.75000   0.70096   0.00000  Uiso   1.00
O996   O     0.24275   0.75000   0.79903   0.00000  Uiso   1.00
Zn997  Zn    0.16667   0.75000   0.80307   0.00000  Uiso   1.00
Zn998  Zn    0.16667   0.74999   0.69693   0.00000  Uiso   1.00
C999   C     0.32263   0.79798   0.68470   0.00000  Uiso   1.00
C1000  C     0.01948   0.84044   0.67605   0.00000  Uiso   1.00
H1001  H     0.01670   0.86547   0.70522   0.00000  Uiso   1.00
H1002  H     0.06260   0.83307   0.67461   0.00000  Uiso   1.00
H1003  H     0.00110   0.85523   0.64143   0.00000  Uiso   1.00
H1004  H     0.32424   0.77342   0.65488   0.00000  Uiso   1.00
H1005  H     0.28003   0.80879   0.68386   0.00000  Uiso   1.00
C1006  C     0.00884   0.79361   0.82017   0.00000  Uiso   1.00
C1007  C     0.31195   0.83634   0.83181   0.00000  Uiso   1.00
H1008  H     0.31781   0.86313   0.80643   0.00000  Uiso   1.00
H1009  H     0.26812   0.83059   0.82925   0.00000  Uiso   1.00
H1010  H     0.32750   0.84802   0.86888   0.00000  Uiso   1.00
H1011  H     0.00521   0.76771   0.84721   0.00000  Uiso   1.00
H1012  H     0.05182   0.80273   0.82436   0.00000  Uiso   1.00
C1013  C     0.08832   0.52014   0.69184   0.00000  Uiso   1.00
C1014  C     0.10225   0.99589   0.64729   0.00000  Uiso   1.00
H1015  H     0.12073   0.51938   0.62470   0.00000  Uiso   1.00
H1016  H     0.13007   0.96726   0.65730   0.00000  Uiso   1.00
H1017  H     0.06480   0.98239   0.62592   0.00000  Uiso   1.00
H1018  H     0.07229   0.99592   0.71519   0.00000  Uiso   1.00
H1019  H     0.05432   0.54371   0.67990   0.00000  Uiso   1.00
C1020  C     0.26448   0.96686   0.70500   0.00000  Uiso   1.00
C1021  C     0.24444   0.98677   0.65603   0.00000  Uiso   1.00
H1022  H     0.22090   0.96161   0.63224   0.00000  Uiso   1.00
H1023  H     0.21921   0.51710   0.65953   0.00000  Uiso   1.00
H1024  H     0.27959   0.99670   0.63927   0.00000  Uiso   1.00
H1025  H     0.28732   0.99239   0.72869   0.00000  Uiso   1.00
H1026  H     0.29409   0.93973   0.70004   0.00000  Uiso   1.00
H1027  H     0.09905   0.60935   0.70117   0.00000  Uiso   1.00
H1028  H     0.23776   0.88038   0.71106   0.00000  Uiso   1.00
C1029  C     0.26584   0.62063   0.80394   0.00000  Uiso   1.00
C1030  C     0.26109   0.62199   0.85714   0.00000  Uiso   1.00
H1031  H     0.22262   0.63854   0.86289   0.00000  Uiso   1.00
H1032  H     0.26260   0.58748   0.87142   0.00000  Uiso   1.00
H1033  H     0.29514   0.64127   0.87723   0.00000  Uiso   1.00
H1034  H     0.30482   0.60430   0.79916   0.00000  Uiso   1.00
H1035  H     0.26771   0.65541   0.79109   0.00000  Uiso   1.00
C1036  C     0.09761   0.89412   0.80460   0.00000  Uiso   1.00
C1037  C     0.11921   0.88869   0.85786   0.00000  Uiso   1.00
H1038  H     0.08730   0.87505   0.87639   0.00000  Uiso   1.00
H1039  H     0.15444   0.86536   0.86308   0.00000  Uiso   1.00
H1040  H     0.13164   0.92168   0.87453   0.00000  Uiso   1.00
H1041  H     0.06244   0.91764   0.80070   0.00000  Uiso   1.00
H1042  H     0.08182   0.86198   0.78844   0.00000  Uiso   1.00
C1043  C     0.07668   0.79689   0.51777   0.00000  Uiso   1.00
C1044  C     0.09308   0.84050   0.99697   0.00000  Uiso   1.00
H1045  H     0.11419   0.86249   0.52591   0.00000  Uiso   1.00
H1046  H     0.11953   0.83379   0.96963   0.00000  Uiso   1.00
H1047  H     0.05639   0.85842   0.97930   0.00000  Uiso   1.00
H1048  H     0.05697   0.77464   0.98855   0.00000  Uiso   1.00
H1049  H     0.04518   0.80533   0.54027   0.00000  Uiso   1.00
C1050  C     0.25573   0.79629   0.98385   0.00000  Uiso   1.00
C1051  C     0.23829   0.84042   0.50530   0.00000  Uiso   1.00
H1052  H     0.21689   0.86207   0.97665   0.00000  Uiso   1.00
H1053  H     0.21172   0.83435   0.53232   0.00000  Uiso   1.00
H1054  H     0.27453   0.85834   0.52347   0.00000  Uiso   1.00
H1055  H     0.27556   0.77430   0.51275   0.00000  Uiso   1.00
H1056  H     0.28735   0.80404   0.96178   0.00000  Uiso   1.00
H1057  H     0.09480   0.78824   0.61412   0.00000  Uiso   1.00
H1058  H     0.23801   0.78742   0.88737   0.00000  Uiso   1.00
H1059  H     0.23798   0.71060   0.62985   0.00000  Uiso   1.00
H1060  H     0.09597   0.71128   0.86867   0.00000  Uiso   1.00
C1061  C     0.50137   0.66396   0.74973   0.00000  Uiso   1.00
C1062  C     0.50025   0.83626   0.75050   0.00000  Uiso   1.00
C1063  C     0.45735   0.77296   0.54734   0.00000  Uiso   1.00
C1064  C     0.54231   0.77250   0.95348   0.00000  Uiso   1.00
C1065  C     0.45935   0.77174   0.59763   0.00000  Uiso   1.00
C1066  C     0.54036   0.77126   0.90319   0.00000  Uiso   1.00
C1067  C     0.53965   0.72823   0.60679   0.00000  Uiso   1.00
C1068  C     0.46068   0.72861   0.89238   0.00000  Uiso   1.00
C1069  C     0.53978   0.72825   0.55714   0.00000  Uiso   1.00
C1070  C     0.46059   0.72859   0.94203   0.00000  Uiso   1.00
C1071  C     0.49916   0.75118   0.52653   0.00000  Uiso   1.00
C1072  C     0.50085   0.75114   0.97350   0.00000  Uiso   1.00
C1073  C     0.40108   0.75899   0.73800   0.00000  Uiso   1.00
C1074  C     0.59908   0.75790   0.76254   0.00000  Uiso   1.00
C1075  C     0.34662   0.77705   0.73231   0.00000  Uiso   1.00
C1076  C     0.65298   0.77573   0.77008   0.00000  Uiso   1.00
C1077  C     0.46938   0.54534   0.71945   0.00000  Uiso   1.00
C1078  C     0.55233   0.94851   0.72835   0.00000  Uiso   1.00
C1079  C     0.46683   0.59184   0.72093   0.00000  Uiso   1.00
C1080  C     0.54539   0.90238   0.72887   0.00000  Uiso   1.00
C1081  C     0.50734   0.61624   0.74906   0.00000  Uiso   1.00
C1082  C     0.50569   0.88418   0.75232   0.00000  Uiso   1.00
C1083  C     0.55292   0.59505   0.77518   0.00000  Uiso   1.00
C1084  C     0.47408   0.91174   0.77833   0.00000  Uiso   1.00
C1085  C     0.55591   0.54859   0.77355   0.00000  Uiso   1.00
C1086  C     0.48083   0.95764   0.77761   0.00000  Uiso   1.00
C1087  C     0.51498   0.52397   0.74603   0.00000  Uiso   1.00
C1088  C     0.51705   0.97593   0.75077   0.00000  Uiso   1.00
H1089  H     0.58967   0.53141   0.79470   0.00000  Uiso   1.00
H1090  H     0.45585   0.97959   0.79630   0.00000  Uiso   1.00
H1091  H     0.57144   0.71012   0.54261   0.00000  Uiso   1.00
H1092  H     0.42922   0.71073   0.95587   0.00000  Uiso   1.00
N1093  N     0.50000   0.74999   0.62623   0.00000  Uiso   1.00
N1094  N     0.50000   0.75001   0.87376   0.00000  Uiso   1.00
O1095  O     0.50000   0.68453   0.78974   0.00000  Uiso   1.00
O1096  O     0.50000   0.81546   0.71026   0.00000  Uiso   1.00
O1097  O     0.50000   0.68453   0.71026   0.00000  Uiso   1.00
O1098  O     0.50000   0.81547   0.78974   0.00000  Uiso   1.00
O1099  O     0.42392   0.75000   0.78044   0.00000  Uiso   1.00
O1100  O     0.57608   0.75000   0.71955   0.00000  Uiso   1.00
O1101  O     0.42392   0.75000   0.70096   0.00000  Uiso   1.00
O1102  O     0.57608   0.75000   0.79903   0.00000  Uiso   1.00
Zn1103 Zn    0.50000   0.75000   0.80307   0.00000  Uiso   1.00
Zn1104 Zn    0.50000   0.74999   0.69693   0.00000  Uiso   1.00
C1105  C     0.65596   0.79798   0.68470   0.00000  Uiso   1.00
C1106  C     0.35281   0.84044   0.67605   0.00000  Uiso   1.00
H1107  H     0.35004   0.86547   0.70522   0.00000  Uiso   1.00
H1108  H     0.39593   0.83307   0.67461   0.00000  Uiso   1.00
H1109  H     0.33444   0.85523   0.64143   0.00000  Uiso   1.00
H1110  H     0.65758   0.77342   0.65488   0.00000  Uiso   1.00
H1111  H     0.61336   0.80879   0.68386   0.00000  Uiso   1.00
C1112  C     0.34217   0.79361   0.82017   0.00000  Uiso   1.00
C1113  C     0.64529   0.83634   0.83181   0.00000  Uiso   1.00
H1114  H     0.65114   0.86313   0.80643   0.00000  Uiso   1.00
H1115  H     0.60146   0.83059   0.82925   0.00000  Uiso   1.00
H1116  H     0.66084   0.84802   0.86888   0.00000  Uiso   1.00
H1117  H     0.33854   0.76771   0.84721   0.00000  Uiso   1.00
H1118  H     0.38516   0.80273   0.82436   0.00000  Uiso   1.00
C1119  C     0.42166   0.52014   0.69184   0.00000  Uiso   1.00
C1120  C     0.43558   0.99589   0.64729   0.00000  Uiso   1.00
H1121  H     0.45407   0.51938   0.62470   0.00000  Uiso   1.00
H1122  H     0.46341   0.96726   0.65730   0.00000  Uiso   1.00
H1123  H     0.39814   0.98239   0.62592   0.00000  Uiso   1.00
H1124  H     0.40563   0.99592   0.71519   0.00000  Uiso   1.00
H1125  H     0.38765   0.54371   0.67990   0.00000  Uiso   1.00
C1126  C     0.59782   0.96686   0.70500   0.00000  Uiso   1.00
C1127  C     0.57777   0.98677   0.65603   0.00000  Uiso   1.00
H1128  H     0.55424   0.96161   0.63224   0.00000  Uiso   1.00
H1129  H     0.55254   0.51710   0.65953   0.00000  Uiso   1.00
H1130  H     0.61292   0.99670   0.63927   0.00000  Uiso   1.00
H1131  H     0.62065   0.99239   0.72869   0.00000  Uiso   1.00
H1132  H     0.62742   0.93973   0.70004   0.00000  Uiso   1.00
H1133  H     0.43238   0.60935   0.70117   0.00000  Uiso   1.00
H1134  H     0.57109   0.88038   0.71106   0.00000  Uiso   1.00
C1135  C     0.59917   0.62063   0.80394   0.00000  Uiso   1.00
C1136  C     0.59442   0.62199   0.85714   0.00000  Uiso   1.00
H1137  H     0.55595   0.63854   0.86289   0.00000  Uiso   1.00
H1138  H     0.59593   0.58748   0.87142   0.00000  Uiso   1.00
H1139  H     0.62847   0.64127   0.87723   0.00000  Uiso   1.00
H1140  H     0.63816   0.60430   0.79916   0.00000  Uiso   1.00
H1141  H     0.60105   0.65541   0.79109   0.00000  Uiso   1.00
C1142  C     0.43095   0.89412   0.80460   0.00000  Uiso   1.00
C1143  C     0.45254   0.88869   0.85786   0.00000  Uiso   1.00
H1144  H     0.42063   0.87505   0.87639   0.00000  Uiso   1.00
H1145  H     0.48778   0.86536   0.86308   0.00000  Uiso   1.00
H1146  H     0.46497   0.92168   0.87453   0.00000  Uiso   1.00
H1147  H     0.39578   0.91764   0.80070   0.00000  Uiso   1.00
H1148  H     0.41515   0.86198   0.78844   0.00000  Uiso   1.00
C1149  C     0.41001   0.79689   0.51777   0.00000  Uiso   1.00
C1150  C     0.42641   0.84050   0.99697   0.00000  Uiso   1.00
H1151  H     0.44753   0.86249   0.52591   0.00000  Uiso   1.00
H1152  H     0.45287   0.83379   0.96963   0.00000  Uiso   1.00
H1153  H     0.38972   0.85842   0.97930   0.00000  Uiso   1.00
H1154  H     0.39030   0.77464   0.98855   0.00000  Uiso   1.00
H1155  H     0.37852   0.80533   0.54027   0.00000  Uiso   1.00
C1156  C     0.58907   0.79629   0.98385   0.00000  Uiso   1.00
C1157  C     0.57163   0.84042   0.50530   0.00000  Uiso   1.00
H1158  H     0.55023   0.86207   0.97665   0.00000  Uiso   1.00
H1159  H     0.54506   0.83435   0.53232   0.00000  Uiso   1.00
H1160  H     0.60786   0.85834   0.52347   0.00000  Uiso   1.00
H1161  H     0.60889   0.77430   0.51275   0.00000  Uiso   1.00
H1162  H     0.62068   0.80404   0.96178   0.00000  Uiso   1.00
H1163  H     0.42813   0.78824   0.61412   0.00000  Uiso   1.00
H1164  H     0.57135   0.78742   0.88737   0.00000  Uiso   1.00
H1165  H     0.57131   0.71060   0.62985   0.00000  Uiso   1.00
H1166  H     0.42930   0.71128   0.86867   0.00000  Uiso   1.00
C1167  C     0.83470   0.66396   0.74973   0.00000  Uiso   1.00
C1168  C     0.83358   0.83626   0.75050   0.00000  Uiso   1.00
C1169  C     0.79069   0.77296   0.54734   0.00000  Uiso   1.00
C1170  C     0.87565   0.77250   0.95348   0.00000  Uiso   1.00
C1171  C     0.79269   0.77174   0.59763   0.00000  Uiso   1.00
C1172  C     0.87370   0.77126   0.90319   0.00000  Uiso   1.00
C1173  C     0.87299   0.72823   0.60679   0.00000  Uiso   1.00
C1174  C     0.79402   0.72861   0.89238   0.00000  Uiso   1.00
C1175  C     0.87311   0.72825   0.55714   0.00000  Uiso   1.00
C1176  C     0.79392   0.72859   0.94203   0.00000  Uiso   1.00
C1177  C     0.83250   0.75118   0.52653   0.00000  Uiso   1.00
C1178  C     0.83419   0.75114   0.97350   0.00000  Uiso   1.00
C1179  C     0.73442   0.75899   0.73800   0.00000  Uiso   1.00
C1180  C     0.93241   0.75790   0.76254   0.00000  Uiso   1.00
C1181  C     0.67996   0.77705   0.73231   0.00000  Uiso   1.00
C1182  C     0.98631   0.77573   0.77008   0.00000  Uiso   1.00
C1183  C     0.80271   0.54534   0.71945   0.00000  Uiso   1.00
C1184  C     0.88566   0.94851   0.72835   0.00000  Uiso   1.00
C1185  C     0.80016   0.59184   0.72093   0.00000  Uiso   1.00
C1186  C     0.87872   0.90238   0.72887   0.00000  Uiso   1.00
C1187  C     0.84067   0.61624   0.74906   0.00000  Uiso   1.00
C1188  C     0.83902   0.88418   0.75232   0.00000  Uiso   1.00
C1189  C     0.88625   0.59505   0.77518   0.00000  Uiso   1.00
C1190  C     0.80742   0.91174   0.77833   0.00000  Uiso   1.00
C1191  C     0.88924   0.54859   0.77355   0.00000  Uiso   1.00
C1192  C     0.81416   0.95764   0.77761   0.00000  Uiso   1.00
C1193  C     0.84832   0.52397   0.74603   0.00000  Uiso   1.00
C1194  C     0.85038   0.97593   0.75077   0.00000  Uiso   1.00
H1195  H     0.92300   0.53141   0.79470   0.00000  Uiso   1.00
H1196  H     0.78918   0.97959   0.79630   0.00000  Uiso   1.00
H1197  H     0.90477   0.71012   0.54261   0.00000  Uiso   1.00
H1198  H     0.76255   0.71073   0.95587   0.00000  Uiso   1.00
N1199  N     0.83333   0.74999   0.62623   0.00000  Uiso   1.00
N1200  N     0.83333   0.75001   0.87376   0.00000  Uiso   1.00
O1201  O     0.83334   0.68453   0.78974   0.00000  Uiso   1.00
O1202  O     0.83333   0.81546   0.71026   0.00000  Uiso   1.00
O1203  O     0.83334   0.68453   0.71026   0.00000  Uiso   1.00
O1204  O     0.83333   0.81547   0.78974   0.00000  Uiso   1.00
O1205  O     0.75725   0.75000   0.78044   0.00000  Uiso   1.00
O1206  O     0.90942   0.75000   0.71955   0.00000  Uiso   1.00
O1207  O     0.75725   0.75000   0.70096   0.00000  Uiso   1.00
O1208  O     0.90942   0.75000   0.79903   0.00000  Uiso   1.00
Zn1209 Zn    0.83333   0.75000   0.80307   0.00000  Uiso   1.00
Zn1210 Zn    0.83333   0.74999   0.69693   0.00000  Uiso   1.00
C1211  C     0.98929   0.79798   0.68470   0.00000  Uiso   1.00
C1212  C     0.68615   0.84044   0.67605   0.00000  Uiso   1.00
H1213  H     0.68337   0.86547   0.70522   0.00000  Uiso   1.00
H1214  H     0.72926   0.83307   0.67461   0.00000  Uiso   1.00
H1215  H     0.66777   0.85523   0.64143   0.00000  Uiso   1.00
H1216  H     0.99091   0.77342   0.65488   0.00000  Uiso   1.00
H1217  H     0.94669   0.80879   0.68386   0.00000  Uiso   1.00
C1218  C     0.67550   0.79361   0.82017   0.00000  Uiso   1.00
C1219  C     0.97862   0.83634   0.83181   0.00000  Uiso   1.00
H1220  H     0.98448   0.86313   0.80643   0.00000  Uiso   1.00
H1221  H     0.93479   0.83059   0.82925   0.00000  Uiso   1.00
H1222  H     0.99417   0.84802   0.86888   0.00000  Uiso   1.00
H1223  H     0.67187   0.76771   0.84721   0.00000  Uiso   1.00
H1224  H     0.71849   0.80273   0.82436   0.00000  Uiso   1.00
C1225  C     0.75499   0.52014   0.69184   0.00000  Uiso   1.00
C1226  C     0.76892   0.99589   0.64729   0.00000  Uiso   1.00
H1227  H     0.78740   0.51938   0.62470   0.00000  Uiso   1.00
H1228  H     0.79674   0.96726   0.65730   0.00000  Uiso   1.00
H1229  H     0.73147   0.98239   0.62592   0.00000  Uiso   1.00
H1230  H     0.73896   0.99592   0.71519   0.00000  Uiso   1.00
H1231  H     0.72098   0.54371   0.67990   0.00000  Uiso   1.00
C1232  C     0.93115   0.96686   0.70500   0.00000  Uiso   1.00
C1233  C     0.91110   0.98677   0.65603   0.00000  Uiso   1.00
H1234  H     0.88757   0.96161   0.63224   0.00000  Uiso   1.00
H1235  H     0.88587   0.51710   0.65953   0.00000  Uiso   1.00
H1236  H     0.94625   0.99670   0.63927   0.00000  Uiso   1.00
H1237  H     0.95399   0.99239   0.72869   0.00000  Uiso   1.00
H1238  H     0.96076   0.93973   0.70004   0.00000  Uiso   1.00
H1239  H     0.76572   0.60935   0.70117   0.00000  Uiso   1.00
H1240  H     0.90442   0.88038   0.71106   0.00000  Uiso   1.00
C1241  C     0.93251   0.62063   0.80394   0.00000  Uiso   1.00
C1242  C     0.92775   0.62199   0.85714   0.00000  Uiso   1.00
H1243  H     0.88928   0.63854   0.86289   0.00000  Uiso   1.00
H1244  H     0.92927   0.58748   0.87142   0.00000  Uiso   1.00
H1245  H     0.96180   0.64127   0.87723   0.00000  Uiso   1.00
H1246  H     0.97149   0.60430   0.79916   0.00000  Uiso   1.00
H1247  H     0.93438   0.65541   0.79109   0.00000  Uiso   1.00
C1248  C     0.76428   0.89412   0.80460   0.00000  Uiso   1.00
C1249  C     0.78588   0.88869   0.85786   0.00000  Uiso   1.00
H1250  H     0.75396   0.87505   0.87639   0.00000  Uiso   1.00
H1251  H     0.82111   0.86536   0.86308   0.00000  Uiso   1.00
H1252  H     0.79830   0.92168   0.87453   0.00000  Uiso   1.00
H1253  H     0.72911   0.91764   0.80070   0.00000  Uiso   1.00
H1254  H     0.74849   0.86198   0.78844   0.00000  Uiso   1.00
C1255  C     0.74334   0.79689   0.51777   0.00000  Uiso   1.00
C1256  C     0.75974   0.84050   0.99697   0.00000  Uiso   1.00
H1257  H     0.78086   0.86249   0.52591   0.00000  Uiso   1.00
H1258  H     0.78620   0.83379   0.96963   0.00000  Uiso   1.00
H1259  H     0.72305   0.85842   0.97930   0.00000  Uiso   1.00
H1260  H     0.72363   0.77464   0.98855   0.00000  Uiso   1.00
H1261  H     0.71185   0.80533   0.54027   0.00000  Uiso   1.00
C1262  C     0.92240   0.79629   0.98385   0.00000  Uiso   1.00
C1263  C     0.90496   0.84042   0.50530   0.00000  Uiso   1.00
H1264  H     0.88356   0.86207   0.97665   0.00000  Uiso   1.00
H1265  H     0.87839   0.83435   0.53232   0.00000  Uiso   1.00
H1266  H     0.94119   0.85834   0.52347   0.00000  Uiso   1.00
H1267  H     0.94222   0.77430   0.51275   0.00000  Uiso   1.00
H1268  H     0.95402   0.80404   0.96178   0.00000  Uiso   1.00
H1269  H     0.76146   0.78824   0.61412   0.00000  Uiso   1.00
H1270  H     0.90468   0.78742   0.88737   0.00000  Uiso   1.00
H1271  H     0.90464   0.71060   0.62985   0.00000  Uiso   1.00
H1272  H     0.76263   0.71128   0.86867   0.00000  Uiso   1.00
loop_
_geom_bond_atom_site_label_1
_geom_bond_atom_site_label_2
_geom_bond_distance
_geom_bond_site_symmetry_2
_ccdc_geom_bond_type
C1     C21     1.429   .     S
C1     O37     1.279   .     A
C1     O35     1.281   .     A
C2     C22     1.438   .     S
C2     O38     1.281   .     A
C2     O36     1.284   .     A
C3     C5      1.415   .     A
C3     C89     1.518   .     S
C3     C11     1.423   .     A
C4     C96     1.517   .     S
C4     C12     1.423   .     A
C4     C6      1.414   .     A
C5     H103    1.080   .     S
C5     N33     1.362   .     A
C6     H104    1.079   .     S
C6     N34     1.362   .     A
C7     H105    1.082   .     S
C7     N33     1.360   .     A
C7     C9      1.403   .     A
C8     N34     1.361   .     A
C8     H106    1.082   .     S
C8     C10     1.403   .     A
C9     C11     1.407   .     A
C9     H31     1.083   .     S
C10    C12     1.407   .     A
C10    H32     1.083   .     S
C11    C648    1.505   1_554 S
C12    C647    1.505   .     S
C13    O41     1.291   .     A
C13    C15     1.447   .     S
C13    O39     1.277   .     A
C14    O42     1.285   .     A
C14    C16     1.444   .     S
C14    O40     1.279   .     A
C15    C228    1.352   1_455 S
C15    C257    1.526   1_455 S
C16    C121    1.352   .     S
C16    C158    1.529   .     S
C17    C27     1.416   .     A
C17    C59     1.523   .     S
C17    C19     1.388   .     A
C18    C20     1.391   .     A
C18    C28     1.410   .     A
C18    C66     1.518   .     S
C19    C21     1.393   .     A
C19    H73     1.085   .     S
C20    H74     1.084   .     S
C20    C22     1.401   .     A
C21    C23     1.408   .     A
C22    C24     1.409   .     A
C23    C75     1.515   .     S
C23    C25     1.387   .     A
C24    C26     1.383   .     A
C24    C82     1.510   .     S
C25    H29     1.085   .     S
C25    C27     1.396   .     A
C26    H30     1.086   .     S
C26    C28     1.395   .     A
C27    C346    1.441   1_545 S
C28    C345    1.441   .     S
N33    Zn44    1.997   .     S
N34    Zn43    1.997   .     S
O35    Zn43    1.982   .     S
O36    Zn44    1.982   .     S
O37    Zn44    1.996   .     S
O38    Zn43    1.996   .     S
O39    Zn43    1.915   .     S
O40    Zn44    1.915   .     S
O41    Zn44    1.930   .     S
O42    Zn43    1.930   .     S
C45    H51     1.108   .     S
C45    H50     1.111   .     S
C45    C121    1.526   .     S
C45    C152    1.528   .     S
C46    H49     1.111   .     S
C46    H48     1.107   .     S
C46    H47     1.111   .     S
C46    C257    1.528   1_455 S
C52    H58     1.104   .     S
C52    H57     1.111   .     S
C52    C228    1.529   1_455 S
C52    C265    1.530   1_455 S
C53    H54     1.110   .     S
C53    H55     1.106   .     S
C53    H56     1.110   .     S
C53    C158    1.530   .     S
C59    H65     1.112   .     S
C59    C378    1.525   1_545 S
C59    H382    1.109   1_545 S
C60    H63     1.111   .     S
C60    H62     1.107   .     S
C60    C377    1.525   .     S
C60    H379    1.111   .     S
H61    C378    1.111   1_545 S
H64    C377    1.109   .     S
C66    H72     1.112   .     S
C66    C67     1.525   .     S
C66    H71     1.109   .     S
C67    H68     1.111   .     S
C67    H70     1.111   .     S
C67    H387    1.108   .     S
H69    C385    1.108   1_545 S
C75    H80     1.112   .     S
C75    H81     1.110   .     S
C75    C76     1.526   .     S
C76    H79     1.110   .     S
C76    H78     1.111   .     S
C76    H77     1.110   .     S
C82    H88     1.106   .     S
C82    C83     1.528   .     S
C82    H87     1.112   .     S
C83    H84     1.109   .     S
C83    H85     1.110   .     S
C83    H86     1.111   .     S
C89    H95     1.112   .     S
C89    C726    1.526   1_554 S
C89    H730    1.108   1_554 S
C90    H92     1.108   .     S
C90    H93     1.111   .     S
C90    C725    1.526   .     S
C90    H727    1.111   .     S
H91    C726    1.111   1_554 S
H94    C725    1.108   .     S
C96    H102    1.112   .     S
C96    C733    1.525   .     S
C96    H737    1.108   .     S
C97    H99     1.108   .     S
C97    H100    1.111   .     S
C97    C732    1.525   1_554 S
C97    H734    1.111   1_554 S
H98    C733    1.111   .     S
H101   C732    1.108   1_554 S
C107   C127    1.429   .     S
C107   O143    1.279   .     A
C107   O141    1.281   .     A
C108   C128    1.438   .     S
C108   O144    1.281   .     A
C108   O142    1.284   .     A
C109   C111    1.415   .     A
C109   C195    1.518   .     S
C109   C117    1.423   .     A
C110   C202    1.517   .     S
C110   C118    1.423   .     A
C110   C112    1.414   .     A
C111   H209    1.080   .     S
C111   N139    1.362   .     A
C112   H210    1.079   .     S
C112   N140    1.362   .     A
C113   H211    1.082   .     S
C113   N139    1.360   .     A
C113   C115    1.403   .     A
C114   N140    1.361   .     A
C114   H212    1.082   .     S
C114   C116    1.403   .     A
C115   C117    1.407   .     A
C115   H137    1.083   .     S
C116   C118    1.407   .     A
C116   H138    1.083   .     S
C117   C754    1.505   1_554 S
C118   C753    1.505   .     S
C119   O147    1.291   .     A
C119   C121    1.447   .     S
C119   O145    1.277   .     A
C120   O148    1.285   .     A
C120   C122    1.444   .     S
C120   O146    1.279   .     A
C122   C227    1.352   .     S
C122   C264    1.529   .     S
C123   C133    1.416   .     A
C123   C165    1.523   .     S
C123   C125    1.388   .     A
C124   C126    1.391   .     A
C124   C134    1.410   .     A
C124   C172    1.518   .     S
C125   C127    1.393   .     A
C125   H179    1.085   .     S
C126   H180    1.084   .     S
C126   C128    1.401   .     A
C127   C129    1.408   .     A
C128   C130    1.409   .     A
C129   C181    1.515   .     S
C129   C131    1.387   .     A
C130   C132    1.383   .     A
C130   C188    1.510   .     S
C131   H135    1.085   .     S
C131   C133    1.396   .     A
C132   H136    1.086   .     S
C132   C134    1.395   .     A
C133   C452    1.441   1_545 S
C134   C451    1.441   .     S
N139   Zn150   1.997   .     S
N140   Zn149   1.997   .     S
O141   Zn149   1.982   .     S
O142   Zn150   1.982   .     S
O143   Zn150   1.996   .     S
O144   Zn149   1.996   .     S
O145   Zn149   1.915   .     S
O146   Zn150   1.915   .     S
O147   Zn150   1.930   .     S
O148   Zn149   1.930   .     S
C151   H157    1.108   .     S
C151   H156    1.111   .     S
C151   C227    1.526   .     S
C151   C258    1.528   .     S
C152   H155    1.111   .     S
C152   H154    1.107   .     S
C152   H153    1.111   .     S
C158   H164    1.104   .     S
C158   H163    1.111   .     S
C159   H160    1.110   .     S
C159   H161    1.106   .     S
C159   H162    1.110   .     S
C159   C264    1.530   .     S
C165   H171    1.112   .     S
C165   C484    1.525   1_545 S
C165   H488    1.109   1_545 S
C166   H169    1.111   .     S
C166   H168    1.107   .     S
C166   C483    1.525   .     S
C166   H485    1.111   .     S
H167   C484    1.111   1_545 S
H170   C483    1.109   .     S
C172   H178    1.112   .     S
C172   C173    1.525   .     S
C172   H177    1.109   .     S
C173   H174    1.111   .     S
C173   H176    1.111   .     S
C173   H493    1.108   .     S
H175   C491    1.108   1_545 S
C181   H186    1.112   .     S
C181   H187    1.110   .     S
C181   C182    1.526   .     S
C182   H185    1.110   .     S
C182   H184    1.111   .     S
C182   H183    1.110   .     S
C188   H194    1.106   .     S
C188   C189    1.528   .     S
C188   H193    1.112   .     S
C189   H190    1.109   .     S
C189   H191    1.110   .     S
C189   H192    1.111   .     S
C195   H201    1.112   .     S
C195   C832    1.526   1_554 S
C195   H836    1.108   1_554 S
C196   H198    1.108   .     S
C196   H199    1.111   .     S
C196   C831    1.526   .     S
C196   H833    1.111   .     S
H197   C832    1.111   1_554 S
H200   C831    1.108   .     S
C202   H208    1.112   .     S
C202   C839    1.525   .     S
C202   H843    1.108   .     S
C203   H205    1.108   .     S
C203   H206    1.111   .     S
C203   C838    1.525   1_554 S
C203   H840    1.111   1_554 S
H204   C839    1.111   .     S
H207   C838    1.108   1_554 S
C213   C233    1.429   .     S
C213   O249    1.279   .     A
C213   O247    1.281   .     A
C214   C234    1.438   .     S
C214   O250    1.281   .     A
C214   O248    1.284   .     A
C215   C217    1.415   .     A
C215   C301    1.518   .     S
C215   C223    1.423   .     A
C216   C308    1.517   .     S
C216   C224    1.423   .     A
C216   C218    1.414   .     A
C217   H315    1.080   .     S
C217   N245    1.362   .     A
C218   H316    1.079   .     S
C218   N246    1.362   .     A
C219   H317    1.082   .     S
C219   N245    1.360   .     A
C219   C221    1.403   .     A
C220   N246    1.361   .     A
C220   H318    1.082   .     S
C220   C222    1.403   .     A
C221   C223    1.407   .     A
C221   H243    1.083   .     S
C222   C224    1.407   .     A
C222   H244    1.083   .     S
C223   C860    1.505   1_554 S
C224   C859    1.505   .     S
C225   O253    1.291   .     A
C225   C227    1.447   .     S
C225   O251    1.277   .     A
C226   O254    1.285   .     A
C226   C228    1.444   .     S
C226   O252    1.279   .     A
C228   C15     1.352   1_655 S
C228   C52     1.529   1_655 S
C229   C239    1.416   .     A
C229   C271    1.523   .     S
C229   C231    1.388   .     A
C230   C232    1.391   .     A
C230   C240    1.410   .     A
C230   C278    1.518   .     S
C231   C233    1.393   .     A
C231   H285    1.085   .     S
C232   H286    1.084   .     S
C232   C234    1.401   .     A
C233   C235    1.408   .     A
C234   C236    1.409   .     A
C235   C287    1.515   .     S
C235   C237    1.387   .     A
C236   C238    1.383   .     A
C236   C294    1.510   .     S
C237   H241    1.085   .     S
C237   C239    1.396   .     A
C238   H242    1.086   .     S
C238   C240    1.395   .     A
C239   C558    1.441   1_545 S
C240   C557    1.441   .     S
N245   Zn256   1.997   .     S
N246   Zn255   1.997   .     S
O247   Zn255   1.982   .     S
O248   Zn256   1.982   .     S
O249   Zn256   1.996   .     S
O250   Zn255   1.996   .     S
O251   Zn255   1.915   .     S
O252   Zn256   1.915   .     S
O253   Zn256   1.930   .     S
O254   Zn255   1.930   .     S
C257   H263    1.108   .     S
C257   H262    1.111   .     S
C257   C15     1.526   1_655 S
C257   C46     1.528   1_655 S
C258   H261    1.111   .     S
C258   H260    1.107   .     S
C258   H259    1.111   .     S
C264   H270    1.104   .     S
C264   H269    1.111   .     S
C265   H266    1.110   .     S
C265   H267    1.106   .     S
C265   H268    1.110   .     S
C265   C52     1.530   1_655 S
C271   H277    1.112   .     S
C271   C590    1.525   1_545 S
C271   H594    1.109   1_545 S
C272   H275    1.111   .     S
C272   H274    1.107   .     S
C272   C589    1.525   .     S
C272   H591    1.111   .     S
H273   C590    1.111   1_545 S
H276   C589    1.109   .     S
C278   H284    1.112   .     S
C278   C279    1.525   .     S
C278   H283    1.109   .     S
C279   H280    1.111   .     S
C279   H282    1.111   .     S
C279   H599    1.108   .     S
H281   C597    1.108   1_545 S
C287   H292    1.112   .     S
C287   H293    1.110   .     S
C287   C288    1.526   .     S
C288   H291    1.110   .     S
C288   H290    1.111   .     S
C288   H289    1.110   .     S
C294   H300    1.106   .     S
C294   C295    1.528   .     S
C294   H299    1.112   .     S
C295   H296    1.109   .     S
C295   H297    1.110   .     S
C295   H298    1.111   .     S
C301   H307    1.112   .     S
C301   C938    1.526   1_554 S
C301   H942    1.108   1_554 S
C302   H304    1.108   .     S
C302   H305    1.111   .     S
C302   C937    1.526   .     S
C302   H939    1.111   .     S
H303   C938    1.111   1_554 S
H306   C937    1.108   .     S
C308   H314    1.112   .     S
C308   C945    1.525   .     S
C308   H949    1.108   .     S
C309   H311    1.108   .     S
C309   H312    1.111   .     S
C309   C944    1.525   1_554 S
C309   H946    1.111   1_554 S
H310   C945    1.111   .     S
H313   C944    1.108   1_554 S
C319   C339    1.429   .     S
C319   O355    1.279   .     A
C319   O353    1.281   .     A
C320   C340    1.438   .     S
C320   O356    1.281   .     A
C320   O354    1.284   .     A
C321   C323    1.415   .     A
C321   C407    1.518   .     S
C321   C329    1.423   .     A
C322   C414    1.517   .     S
C322   C330    1.423   .     A
C322   C324    1.414   .     A
C323   H421    1.080   .     S
C323   N351    1.362   .     A
C324   H422    1.079   .     S
C324   N352    1.362   .     A
C325   H423    1.082   .     S
C325   N351    1.360   .     A
C325   C327    1.403   .     A
C326   N352    1.361   .     A
C326   H424    1.082   .     S
C326   C328    1.403   .     A
C327   C329    1.407   .     A
C327   H349    1.083   .     S
C328   C330    1.407   .     A
C328   H350    1.083   .     S
C329   C966    1.505   1_554 S
C330   C965    1.505   .     S
C331   O359    1.291   .     A
C331   C333    1.447   .     S
C331   O357    1.277   .     A
C332   O360    1.285   .     A
C332   C334    1.444   .     S
C332   O358    1.279   .     A
C333   C546    1.352   1_455 S
C333   C575    1.526   1_455 S
C334   C439    1.352   .     S
C334   C476    1.529   .     S
C335   C345    1.416   .     A
C335   C377    1.523   .     S
C335   C337    1.388   .     A
C336   C338    1.391   .     A
C336   C346    1.410   .     A
C336   C384    1.518   .     S
C337   C339    1.393   .     A
C337   H391    1.085   .     S
C338   H392    1.084   .     S
C338   C340    1.401   .     A
C339   C341    1.408   .     A
C340   C342    1.409   .     A
C341   C393    1.515   .     S
C341   C343    1.387   .     A
C342   C344    1.383   .     A
C342   C400    1.510   .     S
C343   H347    1.085   .     S
C343   C345    1.396   .     A
C344   H348    1.086   .     S
C344   C346    1.395   .     A
C346   C27     1.441   1_565 S
N351   Zn362   1.997   .     S
N352   Zn361   1.997   .     S
O353   Zn361   1.982   .     S
O354   Zn362   1.982   .     S
O355   Zn362   1.996   .     S
O356   Zn361   1.996   .     S
O357   Zn361   1.915   .     S
O358   Zn362   1.915   .     S
O359   Zn362   1.930   .     S
O360   Zn361   1.930   .     S
C363   H369    1.108   .     S
C363   H368    1.111   .     S
C363   C439    1.526   .     S
C363   C470    1.528   .     S
C364   H367    1.111   .     S
C364   H366    1.107   .     S
C364   H365    1.111   .     S
C364   C575    1.528   1_455 S
C370   H376    1.104   .     S
C370   H375    1.111   .     S
C370   C546    1.529   1_455 S
C370   C583    1.530   1_455 S
C371   H372    1.110   .     S
C371   H373    1.106   .     S
C371   H374    1.110   .     S
C371   C476    1.530   .     S
C377   H383    1.112   .     S
C378   H381    1.111   .     S
C378   H380    1.107   .     S
C378   C59     1.525   1_565 S
C378   H61     1.111   1_565 S
H382   C59     1.109   1_565 S
C384   H390    1.112   .     S
C384   C385    1.525   .     S
C384   H389    1.109   .     S
C385   H386    1.111   .     S
C385   H388    1.111   .     S
C385   H69     1.108   1_565 S
C393   H398    1.112   .     S
C393   H399    1.110   .     S
C393   C394    1.526   .     S
C394   H397    1.110   .     S
C394   H396    1.111   .     S
C394   H395    1.110   .     S
C400   H406    1.106   .     S
C400   C401    1.528   .     S
C400   H405    1.112   .     S
C401   H402    1.109   .     S
C401   H403    1.110   .     S
C401   H404    1.111   .     S
C407   H413    1.112   .     S
C407   C1044   1.526   1_554 S
C407   H1048   1.108   1_554 S
C408   H410    1.108   .     S
C408   H411    1.111   .     S
C408   C1043   1.526   .     S
C408   H1045   1.111   .     S
H409   C1044   1.111   1_554 S
H412   C1043   1.108   .     S
C414   H420    1.112   .     S
C414   C1051   1.525   .     S
C414   H1055   1.108   .     S
C415   H417    1.108   .     S
C415   H418    1.111   .     S
C415   C1050   1.525   1_554 S
C415   H1052   1.111   1_554 S
H416   C1051   1.111   .     S
H419   C1050   1.108   1_554 S
C425   C445    1.429   .     S
C425   O461    1.279   .     A
C425   O459    1.281   .     A
C426   C446    1.438   .     S
C426   O462    1.281   .     A
C426   O460    1.284   .     A
C427   C429    1.415   .     A
C427   C513    1.518   .     S
C427   C435    1.423   .     A
C428   C520    1.517   .     S
C428   C436    1.423   .     A
C428   C430    1.414   .     A
C429   H527    1.080   .     S
C429   N457    1.362   .     A
C430   H528    1.079   .     S
C430   N458    1.362   .     A
C431   H529    1.082   .     S
C431   N457    1.360   .     A
C431   C433    1.403   .     A
C432   N458    1.361   .     A
C432   H530    1.082   .     S
C432   C434    1.403   .     A
C433   C435    1.407   .     A
C433   H455    1.083   .     S
C434   C436    1.407   .     A
C434   H456    1.083   .     S
C435   C1072   1.505   1_554 S
C436   C1071   1.505   .     S
C437   O465    1.291   .     A
C437   C439    1.447   .     S
C437   O463    1.277   .     A
C438   O466    1.285   .     A
C438   C440    1.444   .     S
C438   O464    1.279   .     A
C440   C545    1.352   .     S
C440   C582    1.529   .     S
C441   C451    1.416   .     A
C441   C483    1.523   .     S
C441   C443    1.388   .     A
C442   C444    1.391   .     A
C442   C452    1.410   .     A
C442   C490    1.518   .     S
C443   C445    1.393   .     A
C443   H497    1.085   .     S
C444   H498    1.084   .     S
C444   C446    1.401   .     A
C445   C447    1.408   .     A
C446   C448    1.409   .     A
C447   C499    1.515   .     S
C447   C449    1.387   .     A
C448   C450    1.383   .     A
C448   C506    1.510   .     S
C449   H453    1.085   .     S
C449   C451    1.396   .     A
C450   H454    1.086   .     S
C450   C452    1.395   .     A
C452   C133    1.441   1_565 S
N457   Zn468   1.997   .     S
N458   Zn467   1.997   .     S
O459   Zn467   1.982   .     S
O460   Zn468   1.982   .     S
O461   Zn468   1.996   .     S
O462   Zn467   1.996   .     S
O463   Zn467   1.915   .     S
O464   Zn468   1.915   .     S
O465   Zn468   1.930   .     S
O466   Zn467   1.930   .     S
C469   H475    1.108   .     S
C469   H474    1.111   .     S
C469   C545    1.526   .     S
C469   C576    1.528   .     S
C470   H473    1.111   .     S
C470   H472    1.107   .     S
C470   H471    1.111   .     S
C476   H482    1.104   .     S
C476   H481    1.111   .     S
C477   H478    1.110   .     S
C477   H479    1.106   .     S
C477   H480    1.110   .     S
C477   C582    1.530   .     S
C483   H489    1.112   .     S
C484   H487    1.111   .     S
C484   H486    1.107   .     S
C484   C165    1.525   1_565 S
C484   H167    1.111   1_565 S
H488   C165    1.109   1_565 S
C490   H496    1.112   .     S
C490   C491    1.525   .     S
C490   H495    1.109   .     S
C491   H492    1.111   .     S
C491   H494    1.111   .     S
C491   H175    1.108   1_565 S
C499   H504    1.112   .     S
C499   H505    1.110   .     S
C499   C500    1.526   .     S
C500   H503    1.110   .     S
C500   H502    1.111   .     S
C500   H501    1.110   .     S
C506   H512    1.106   .     S
C506   C507    1.528   .     S
C506   H511    1.112   .     S
C507   H508    1.109   .     S
C507   H509    1.110   .     S
C507   H510    1.111   .     S
C513   H519    1.112   .     S
C513   C1150   1.526   1_554 S
C513   H1154   1.108   1_554 S
C514   H516    1.108   .     S
C514   H517    1.111   .     S
C514   C1149   1.526   .     S
C514   H1151   1.111   .     S
H515   C1150   1.111   1_554 S
H518   C1149   1.108   .     S
C520   H526    1.112   .     S
C520   C1157   1.525   .     S
C520   H1161   1.108   .     S
C521   H523    1.108   .     S
C521   H524    1.111   .     S
C521   C1156   1.525   1_554 S
C521   H1158   1.111   1_554 S
H522   C1157   1.111   .     S
H525   C1156   1.108   1_554 S
C531   C551    1.429   .     S
C531   O567    1.279   .     A
C531   O565    1.281   .     A
C532   C552    1.438   .     S
C532   O568    1.281   .     A
C532   O566    1.284   .     A
C533   C535    1.415   .     A
C533   C619    1.518   .     S
C533   C541    1.423   .     A
C534   C626    1.517   .     S
C534   C542    1.423   .     A
C534   C536    1.414   .     A
C535   H633    1.080   .     S
C535   N563    1.362   .     A
C536   H634    1.079   .     S
C536   N564    1.362   .     A
C537   H635    1.082   .     S
C537   N563    1.360   .     A
C537   C539    1.403   .     A
C538   N564    1.361   .     A
C538   H636    1.082   .     S
C538   C540    1.403   .     A
C539   C541    1.407   .     A
C539   H561    1.083   .     S
C540   C542    1.407   .     A
C540   H562    1.083   .     S
C541   C1178   1.505   1_554 S
C542   C1177   1.505   .     S
C543   O571    1.291   .     A
C543   C545    1.447   .     S
C543   O569    1.277   .     A
C544   O572    1.285   .     A
C544   C546    1.444   .     S
C544   O570    1.279   .     A
C546   C333    1.352   1_655 S
C546   C370    1.529   1_655 S
C547   C557    1.416   .     A
C547   C589    1.523   .     S
C547   C549    1.388   .     A
C548   C550    1.391   .     A
C548   C558    1.410   .     A
C548   C596    1.518   .     S
C549   C551    1.393   .     A
C549   H603    1.085   .     S
C550   H604    1.084   .     S
C550   C552    1.401   .     A
C551   C553    1.408   .     A
C552   C554    1.409   .     A
C553   C605    1.515   .     S
C553   C555    1.387   .     A
C554   C556    1.383   .     A
C554   C612    1.510   .     S
C555   H559    1.085   .     S
C555   C557    1.396   .     A
C556   H560    1.086   .     S
C556   C558    1.395   .     A
C558   C239    1.441   1_565 S
N563   Zn574   1.997   .     S
N564   Zn573   1.997   .     S
O565   Zn573   1.982   .     S
O566   Zn574   1.982   .     S
O567   Zn574   1.996   .     S
O568   Zn573   1.996   .     S
O569   Zn573   1.915   .     S
O570   Zn574   1.915   .     S
O571   Zn574   1.930   .     S
O572   Zn573   1.930   .     S
C575   H581    1.108   .     S
C575   H580    1.111   .     S
C575   C333    1.526   1_655 S
C575   C364    1.528   1_655 S
C576   H579    1.111   .     S
C576   H578    1.107   .     S
C576   H577    1.111   .     S
C582   H588    1.104   .     S
C582   H587    1.111   .     S
C583   H584    1.110   .     S
C583   H585    1.106   .     S
C583   H586    1.110   .     S
C583   C370    1.530   1_655 S
C589   H595    1.112   .     S
C590   H593    1.111   .     S
C590   H592    1.107   .     S
C590   C271    1.525   1_565 S
C590   H273    1.111   1_565 S
H594   C271    1.109   1_565 S
C596   H602    1.112   .     S
C596   C597    1.525   .     S
C596   H601    1.109   .     S
C597   H598    1.111   .     S
C597   H600    1.111   .     S
C597   H281    1.108   1_565 S
C605   H610    1.112   .     S
C605   H611    1.110   .     S
C605   C606    1.526   .     S
C606   H609    1.110   .     S
C606   H608    1.111   .     S
C606   H607    1.110   .     S
C612   H618    1.106   .     S
C612   C613    1.528   .     S
C612   H617    1.112   .     S
C613   H614    1.109   .     S
C613   H615    1.110   .     S
C613   H616    1.111   .     S
C619   H625    1.112   .     S
C619   C1256   1.526   1_554 S
C619   H1260   1.108   1_554 S
C620   H622    1.108   .     S
C620   H623    1.111   .     S
C620   C1255   1.526   .     S
C620   H1257   1.111   .     S
H621   C1256   1.111   1_554 S
H624   C1255   1.108   .     S
C626   H632    1.112   .     S
C626   C1263   1.525   .     S
C626   H1267   1.108   .     S
C627   H629    1.108   .     S
C627   H630    1.111   .     S
C627   C1262   1.525   1_554 S
C627   H1264   1.111   1_554 S
H628   C1263   1.111   .     S
H631   C1262   1.108   1_554 S
C637   C657    1.429   .     S
C637   O673    1.279   .     A
C637   O671    1.281   .     A
C638   C658    1.438   .     S
C638   O674    1.281   .     A
C638   O672    1.284   .     A
C639   C641    1.415   .     A
C639   C725    1.518   .     S
C639   C647    1.423   .     A
C640   C732    1.517   .     S
C640   C648    1.423   .     A
C640   C642    1.414   .     A
C641   H739    1.080   .     S
C641   N669    1.362   .     A
C642   H740    1.079   .     S
C642   N670    1.362   .     A
C643   H741    1.082   .     S
C643   N669    1.360   .     A
C643   C645    1.403   .     A
C644   N670    1.361   .     A
C644   H742    1.082   .     S
C644   C646    1.403   .     A
C645   C647    1.407   .     A
C645   H667    1.083   .     S
C646   C648    1.407   .     A
C646   H668    1.083   .     S
C648   C11     1.505   1_556 S
C649   O677    1.291   .     A
C649   C651    1.447   .     S
C649   O675    1.277   .     A
C650   O678    1.285   .     A
C650   C652    1.444   .     S
C650   O676    1.279   .     A
C651   C864    1.352   1_455 S
C651   C893    1.526   1_455 S
C652   C757    1.352   .     S
C652   C794    1.529   .     S
C653   C663    1.416   .     A
C653   C695    1.523   .     S
C653   C655    1.388   .     A
C654   C656    1.391   .     A
C654   C664    1.410   .     A
C654   C702    1.518   .     S
C655   C657    1.393   .     A
C655   H709    1.085   .     S
C656   H710    1.084   .     S
C656   C658    1.401   .     A
C657   C659    1.408   .     A
C658   C660    1.409   .     A
C659   C711    1.515   .     S
C659   C661    1.387   .     A
C660   C662    1.383   .     A
C660   C718    1.510   .     S
C661   H665    1.085   .     S
C661   C663    1.396   .     A
C662   H666    1.086   .     S
C662   C664    1.395   .     A
C663   C982    1.441   1_545 S
C664   C981    1.441   .     S
N669   Zn680   1.997   .     S
N670   Zn679   1.997   .     S
O671   Zn679   1.982   .     S
O672   Zn680   1.982   .     S
O673   Zn680   1.996   .     S
O674   Zn679   1.996   .     S
O675   Zn679   1.915   .     S
O676   Zn680   1.915   .     S
O677   Zn680   1.930   .     S
O678   Zn679   1.930   .     S
C681   H687    1.108   .     S
C681   H686    1.111   .     S
C681   C757    1.526   .     S
C681   C788    1.528   .     S
C682   H685    1.111   .     S
C682   H684    1.107   .     S
C682   H683    1.111   .     S
C682   C893    1.528   1_455 S
C688   H694    1.104   .     S
C688   H693    1.111   .     S
C688   C864    1.529   1_455 S
C688   C901    1.530   1_455 S
C689   H690    1.110   .     S
C689   H691    1.106   .     S
C689   H692    1.110   .     S
C689   C794    1.530   .     S
C695   H701    1.112   .     S
C695   C1014   1.525   1_545 S
C695   H1018   1.109   1_545 S
C696   H699    1.111   .     S
C696   H698    1.107   .     S
C696   C1013   1.525   .     S
C696   H1015   1.111   .     S
H697   C1014   1.111   1_545 S
H700   C1013   1.109   .     S
C702   H708    1.112   .     S
C702   C703    1.525   .     S
C702   H707    1.109   .     S
C703   H704    1.111   .     S
C703   H706    1.111   .     S
C703   H1023   1.108   .     S
H705   C1021   1.108   1_545 S
C711   H716    1.112   .     S
C711   H717    1.110   .     S
C711   C712    1.526   .     S
C712   H715    1.110   .     S
C712   H714    1.111   .     S
C712   H713    1.110   .     S
C718   H724    1.106   .     S
C718   C719    1.528   .     S
C718   H723    1.112   .     S
C719   H720    1.109   .     S
C719   H721    1.110   .     S
C719   H722    1.111   .     S
C725   H731    1.112   .     S
C726   H728    1.108   .     S
C726   H729    1.111   .     S
C726   C89     1.526   1_556 S
C726   H91     1.111   1_556 S
H730   C89     1.108   1_556 S
C732   H738    1.112   .     S
C732   C97     1.525   1_556 S
C732   H101    1.108   1_556 S
C733   H735    1.108   .     S
C733   H736    1.111   .     S
H734   C97     1.111   1_556 S
C743   C763    1.429   .     S
C743   O779    1.279   .     A
C743   O777    1.281   .     A
C744   C764    1.438   .     S
C744   O780    1.281   .     A
C744   O778    1.284   .     A
C745   C747    1.415   .     A
C745   C831    1.518   .     S
C745   C753    1.423   .     A
C746   C838    1.517   .     S
C746   C754    1.423   .     A
C746   C748    1.414   .     A
C747   H845    1.080   .     S
C747   N775    1.362   .     A
C748   H846    1.079   .     S
C748   N776    1.362   .     A
C749   H847    1.082   .     S
C749   N775    1.360   .     A
C749   C751    1.403   .     A
C750   N776    1.361   .     A
C750   H848    1.082   .     S
C750   C752    1.403   .     A
C751   C753    1.407   .     A
C751   H773    1.083   .     S
C752   C754    1.407   .     A
C752   H774    1.083   .     S
C754   C117    1.505   1_556 S
C755   O783    1.291   .     A
C755   C757    1.447   .     S
C755   O781    1.277   .     A
C756   O784    1.285   .     A
C756   C758    1.444   .     S
C756   O782    1.279   .     A
C758   C863    1.352   .     S
C758   C900    1.529   .     S
C759   C769    1.416   .     A
C759   C801    1.523   .     S
C759   C761    1.388   .     A
C760   C762    1.391   .     A
C760   C770    1.410   .     A
C760   C808    1.518   .     S
C761   C763    1.393   .     A
C761   H815    1.085   .     S
C762   H816    1.084   .     S
C762   C764    1.401   .     A
C763   C765    1.408   .     A
C764   C766    1.409   .     A
C765   C817    1.515   .     S
C765   C767    1.387   .     A
C766   C768    1.383   .     A
C766   C824    1.510   .     S
C767   H771    1.085   .     S
C767   C769    1.396   .     A
C768   H772    1.086   .     S
C768   C770    1.395   .     A
C769   C1088   1.441   1_545 S
C770   C1087   1.441   .     S
N775   Zn786   1.997   .     S
N776   Zn785   1.997   .     S
O777   Zn785   1.982   .     S
O778   Zn786   1.982   .     S
O779   Zn786   1.996   .     S
O780   Zn785   1.996   .     S
O781   Zn785   1.915   .     S
O782   Zn786   1.915   .     S
O783   Zn786   1.930   .     S
O784   Zn785   1.930   .     S
C787   H793    1.108   .     S
C787   H792    1.111   .     S
C787   C863    1.526   .     S
C787   C894    1.528   .     S
C788   H791    1.111   .     S
C788   H790    1.107   .     S
C788   H789    1.111   .     S
C794   H800    1.104   .     S
C794   H799    1.111   .     S
C795   H796    1.110   .     S
C795   H797    1.106   .     S
C795   H798    1.110   .     S
C795   C900    1.530   .     S
C801   H807    1.112   .     S
C801   C1120   1.525   1_545 S
C801   H1124   1.109   1_545 S
C802   H805    1.111   .     S
C802   H804    1.107   .     S
C802   C1119   1.525   .     S
C802   H1121   1.111   .     S
H803   C1120   1.111   1_545 S
H806   C1119   1.109   .     S
C808   H814    1.112   .     S
C808   C809    1.525   .     S
C808   H813    1.109   .     S
C809   H810    1.111   .     S
C809   H812    1.111   .     S
C809   H1129   1.108   .     S
H811   C1127   1.108   1_545 S
C817   H822    1.112   .     S
C817   H823    1.110   .     S
C817   C818    1.526   .     S
C818   H821    1.110   .     S
C818   H820    1.111   .     S
C818   H819    1.110   .     S
C824   H830    1.106   .     S
C824   C825    1.528   .     S
C824   H829    1.112   .     S
C825   H826    1.109   .     S
C825   H827    1.110   .     S
C825   H828    1.111   .     S
C831   H837    1.112   .     S
C832   H834    1.108   .     S
C832   H835    1.111   .     S
C832   C195    1.526   1_556 S
C832   H197    1.111   1_556 S
H836   C195    1.108   1_556 S
C838   H844    1.112   .     S
C838   C203    1.525   1_556 S
C838   H207    1.108   1_556 S
C839   H841    1.108   .     S
C839   H842    1.111   .     S
H840   C203    1.111   1_556 S
C849   C869    1.429   .     S
C849   O885    1.279   .     A
C849   O883    1.281   .     A
C850   C870    1.438   .     S
C850   O886    1.281   .     A
C850   O884    1.284   .     A
C851   C853    1.415   .     A
C851   C937    1.518   .     S
C851   C859    1.423   .     A
C852   C944    1.517   .     S
C852   C860    1.423   .     A
C852   C854    1.414   .     A
C853   H951    1.080   .     S
C853   N881    1.362   .     A
C854   H952    1.079   .     S
C854   N882    1.362   .     A
C855   H953    1.082   .     S
C855   N881    1.360   .     A
C855   C857    1.403   .     A
C856   N882    1.361   .     A
C856   H954    1.082   .     S
C856   C858    1.403   .     A
C857   C859    1.407   .     A
C857   H879    1.083   .     S
C858   C860    1.407   .     A
C858   H880    1.083   .     S
C860   C223    1.505   1_556 S
C861   O889    1.291   .     A
C861   C863    1.447   .     S
C861   O887    1.277   .     A
C862   O890    1.285   .     A
C862   C864    1.444   .     S
C862   O888    1.279   .     A
C864   C651    1.352   1_655 S
C864   C688    1.529   1_655 S
C865   C875    1.416   .     A
C865   C907    1.523   .     S
C865   C867    1.388   .     A
C866   C868    1.391   .     A
C866   C876    1.410   .     A
C866   C914    1.518   .     S
C867   C869    1.393   .     A
C867   H921    1.085   .     S
C868   H922    1.084   .     S
C868   C870    1.401   .     A
C869   C871    1.408   .     A
C870   C872    1.409   .     A
C871   C923    1.515   .     S
C871   C873    1.387   .     A
C872   C874    1.383   .     A
C872   C930    1.510   .     S
C873   H877    1.085   .     S
C873   C875    1.396   .     A
C874   H878    1.086   .     S
C874   C876    1.395   .     A
C875   C1194   1.441   1_545 S
C876   C1193   1.441   .     S
N881   Zn892   1.997   .     S
N882   Zn891   1.997   .     S
O883   Zn891   1.982   .     S
O884   Zn892   1.982   .     S
O885   Zn892   1.996   .     S
O886   Zn891   1.996   .     S
O887   Zn891   1.915   .     S
O888   Zn892   1.915   .     S
O889   Zn892   1.930   .     S
O890   Zn891   1.930   .     S
C893   H899    1.108   .     S
C893   H898    1.111   .     S
C893   C651    1.526   1_655 S
C893   C682    1.528   1_655 S
C894   H897    1.111   .     S
C894   H896    1.107   .     S
C894   H895    1.111   .     S
C900   H906    1.104   .     S
C900   H905    1.111   .     S
C901   H902    1.110   .     S
C901   H903    1.106   .     S
C901   H904    1.110   .     S
C901   C688    1.530   1_655 S
C907   H913    1.112   .     S
C907   C1226   1.525   1_545 S
C907   H1230   1.109   1_545 S
C908   H911    1.111   .     S
C908   H910    1.107   .     S
C908   C1225   1.525   .     S
C908   H1227   1.111   .     S
H909   C1226   1.111   1_545 S
H912   C1225   1.109   .     S
C914   H920    1.112   .     S
C914   C915    1.525   .     S
C914   H919    1.109   .     S
C915   H916    1.111   .     S
C915   H918    1.111   .     S
C915   H1235   1.108   .     S
H917   C1233   1.108   1_545 S
C923   H928    1.112   .     S
C923   H929    1.110   .     S
C923   C924    1.526   .     S
C924   H927    1.110   .     S
C924   H926    1.111   .     S
C924   H925    1.110   .     S
C930   H936    1.106   .     S
C930   C931    1.528   .     S
C930   H935    1.112   .     S
C931   H932    1.109   .     S
C931   H933    1.110   .     S
C931   H934    1.111   .     S
C937   H943    1.112   .     S
C938   H940    1.108   .     S
C938   H941    1.111   .     S
C938   C301    1.526   1_556 S
C938   H303    1.111   1_556 S
H942   C301    1.108   1_556 S
C944   H950    1.112   .     S
C944   C309    1.525   1_556 S
C944   H313    1.108   1_556 S
C945   H947    1.108   .     S
C945   H948    1.111   .     S
H946   C309    1.111   1_556 S
C955   C975    1.429   .     S
C955   O991    1.279   .     A
C955   O989    1.281   .     A
C956   C976    1.438   .     S
C956   O992    1.281   .     A
C956   O990    1.284   .     A
C957   C959    1.415   .     A
C957   C1043   1.518   .     S
C957   C965    1.423   .     A
C958   C1050   1.517   .     S
C958   C966    1.423   .     A
C958   C960    1.414   .     A
C959   H1057   1.080   .     S
C959   N987    1.362   .     A
C960   H1058   1.079   .     S
C960   N988    1.362   .     A
C961   H1059   1.082   .     S
C961   N987    1.360   .     A
C961   C963    1.403   .     A
C962   N988    1.361   .     A
C962   H1060   1.082   .     S
C962   C964    1.403   .     A
C963   C965    1.407   .     A
C963   H985    1.083   .     S
C964   C966    1.407   .     A
C964   H986    1.083   .     S
C966   C329    1.505   1_556 S
C967   O995    1.291   .     A
C967   C969    1.447   .     S
C967   O993    1.277   .     A
C968   O996    1.285   .     A
C968   C970    1.444   .     S
C968   O994    1.279   .     A
C969   C1182   1.352   1_455 S
C969   C1211   1.526   1_455 S
C970   C1075   1.352   .     S
C970   C1112   1.529   .     S
C971   C981    1.416   .     A
C971   C1013   1.523   .     S
C971   C973    1.388   .     A
C972   C974    1.391   .     A
C972   C982    1.410   .     A
C972   C1020   1.518   .     S
C973   C975    1.393   .     A
C973   H1027   1.085   .     S
C974   H1028   1.084   .     S
C974   C976    1.401   .     A
C975   C977    1.408   .     A
C976   C978    1.409   .     A
C977   C1029   1.515   .     S
C977   C979    1.387   .     A
C978   C980    1.383   .     A
C978   C1036   1.510   .     S
C979   H983    1.085   .     S
C979   C981    1.396   .     A
C980   H984    1.086   .     S
C980   C982    1.395   .     A
C982   C663    1.441   1_565 S
N987   Zn998   1.997   .     S
N988   Zn997   1.997   .     S
O989   Zn997   1.982   .     S
O990   Zn998   1.982   .     S
O991   Zn998   1.996   .     S
O992   Zn997   1.996   .     S
O993   Zn997   1.915   .     S
O994   Zn998   1.915   .     S
O995   Zn998   1.930   .     S
O996   Zn997   1.930   .     S
C999   H1005   1.108   .     S
C999   H1004   1.111   .     S
C999   C1075   1.526   .     S
C999   C1106   1.528   .     S
C1000  H1003   1.111   .     S
C1000  H1002   1.107   .     S
C1000  H1001   1.111   .     S
C1000  C1211   1.528   1_455 S
C1006  H1012   1.104   .     S
C1006  H1011   1.111   .     S
C1006  C1182   1.529   1_455 S
C1006  C1219   1.530   1_455 S
C1007  H1008   1.110   .     S
C1007  H1009   1.106   .     S
C1007  H1010   1.110   .     S
C1007  C1112   1.530   .     S
C1013  H1019   1.112   .     S
C1014  H1017   1.111   .     S
C1014  H1016   1.107   .     S
C1014  C695    1.525   1_565 S
C1014  H697    1.111   1_565 S
H1018  C695    1.109   1_565 S
C1020  H1026   1.112   .     S
C1020  C1021   1.525   .     S
C1020  H1025   1.109   .     S
C1021  H1022   1.111   .     S
C1021  H1024   1.111   .     S
C1021  H705    1.108   1_565 S
C1029  H1034   1.112   .     S
C1029  H1035   1.110   .     S
C1029  C1030   1.526   .     S
C1030  H1033   1.110   .     S
C1030  H1032   1.111   .     S
C1030  H1031   1.110   .     S
C1036  H1042   1.106   .     S
C1036  C1037   1.528   .     S
C1036  H1041   1.112   .     S
C1037  H1038   1.109   .     S
C1037  H1039   1.110   .     S
C1037  H1040   1.111   .     S
C1043  H1049   1.112   .     S
C1044  H1046   1.108   .     S
C1044  H1047   1.111   .     S
C1044  C407    1.526   1_556 S
C1044  H409    1.111   1_556 S
H1048  C407    1.108   1_556 S
C1050  H1056   1.112   .     S
C1050  C415    1.525   1_556 S
C1050  H419    1.108   1_556 S
C1051  H1053   1.108   .     S
C1051  H1054   1.111   .     S
H1052  C415    1.111   1_556 S
C1061  C1081   1.429   .     S
C1061  O1097   1.279   .     A
C1061  O1095   1.281   .     A
C1062  C1082   1.438   .     S
C1062  O1098   1.281   .     A
C1062  O1096   1.284   .     A
C1063  C1065   1.415   .     A
C1063  C1149   1.518   .     S
C1063  C1071   1.423   .     A
C1064  C1156   1.517   .     S
C1064  C1072   1.423   .     A
C1064  C1066   1.414   .     A
C1065  H1163   1.080   .     S
C1065  N1093   1.362   .     A
C1066  H1164   1.079   .     S
C1066  N1094   1.362   .     A
C1067  H1165   1.082   .     S
C1067  N1093   1.360   .     A
C1067  C1069   1.403   .     A
C1068  N1094   1.361   .     A
C1068  H1166   1.082   .     S
C1068  C1070   1.403   .     A
C1069  C1071   1.407   .     A
C1069  H1091   1.083   .     S
C1070  C1072   1.407   .     A
C1070  H1092   1.083   .     S
C1072  C435    1.505   1_556 S
C1073  O1101   1.291   .     A
C1073  C1075   1.447   .     S
C1073  O1099   1.277   .     A
C1074  O1102   1.285   .     A
C1074  C1076   1.444   .     S
C1074  O1100   1.279   .     A
C1076  C1181   1.352   .     S
C1076  C1218   1.529   .     S
C1077  C1087   1.416   .     A
C1077  C1119   1.523   .     S
C1077  C1079   1.388   .     A
C1078  C1080   1.391   .     A
C1078  C1088   1.410   .     A
C1078  C1126   1.518   .     S
C1079  C1081   1.393   .     A
C1079  H1133   1.085   .     S
C1080  H1134   1.084   .     S
C1080  C1082   1.401   .     A
C1081  C1083   1.408   .     A
C1082  C1084   1.409   .     A
C1083  C1135   1.515   .     S
C1083  C1085   1.387   .     A
C1084  C1086   1.383   .     A
C1084  C1142   1.510   .     S
C1085  H1089   1.085   .     S
C1085  C1087   1.396   .     A
C1086  H1090   1.086   .     S
C1086  C1088   1.395   .     A
C1088  C769    1.441   1_565 S
N1093  Zn1104  1.997   .     S
N1094  Zn1103  1.997   .     S
O1095  Zn1103  1.982   .     S
O1096  Zn1104  1.982   .     S
O1097  Zn1104  1.996   .     S
O1098  Zn1103  1.996   .     S
O1099  Zn1103  1.915   .     S
O1100  Zn1104  1.915   .     S
O1101  Zn1104  1.930   .     S
O1102  Zn1103  1.930   .     S
C1105  H1111   1.108   .     S
C1105  H1110   1.111   .     S
C1105  C1181   1.526   .     S
C1105  C1212   1.528   .     S
C1106  H1109   1.111   .     S
C1106  H1108   1.107   .     S
C1106  H1107   1.111   .     S
C1112  H1118   1.104   .     S
C1112  H1117   1.111   .     S
C1113  H1114   1.110   .     S
C1113  H1115   1.106   .     S
C1113  H1116   1.110   .     S
C1113  C1218   1.530   .     S
C1119  H1125   1.112   .     S
C1120  H1123   1.111   .     S
C1120  H1122   1.107   .     S
C1120  C801    1.525   1_565 S
C1120  H803    1.111   1_565 S
H1124  C801    1.109   1_565 S
C1126  H1132   1.112   .     S
C1126  C1127   1.525   .     S
C1126  H1131   1.109   .     S
C1127  H1128   1.111   .     S
C1127  H1130   1.111   .     S
C1127  H811    1.108   1_565 S
C1135  H1140   1.112   .     S
C1135  H1141   1.110   .     S
C1135  C1136   1.526   .     S
C1136  H1139   1.110   .     S
C1136  H1138   1.111   .     S
C1136  H1137   1.110   .     S
C1142  H1148   1.106   .     S
C1142  C1143   1.528   .     S
C1142  H1147   1.112   .     S
C1143  H1144   1.109   .     S
C1143  H1145   1.110   .     S
C1143  H1146   1.111   .     S
C1149  H1155   1.112   .     S
C1150  H1152   1.108   .     S
C1150  H1153   1.111   .     S
C1150  C513    1.526   1_556 S
C1150  H515    1.111   1_556 S
H1154  C513    1.108   1_556 S
C1156  H1162   1.112   .     S
C1156  C521    1.525   1_556 S
C1156  H525    1.108   1_556 S
C1157  H1159   1.108   .     S
C1157  H1160   1.111   .     S
H1158  C521    1.111   1_556 S
C1167  C1187   1.429   .     S
C1167  O1203   1.279   .     A
C1167  O1201   1.281   .     A
C1168  C1188   1.438   .     S
C1168  O1204   1.281   .     A
C1168  O1202   1.284   .     A
C1169  C1171   1.415   .     A
C1169  C1255   1.518   .     S
C1169  C1177   1.423   .     A
C1170  C1262   1.517   .     S
C1170  C1178   1.423   .     A
C1170  C1172   1.414   .     A
C1171  H1269   1.080   .     S
C1171  N1199   1.362   .     A
C1172  H1270   1.079   .     S
C1172  N1200   1.362   .     A
C1173  H1271   1.082   .     S
C1173  N1199   1.360   .     A
C1173  C1175   1.403   .     A
C1174  N1200   1.361   .     A
C1174  H1272   1.082   .     S
C1174  C1176   1.403   .     A
C1175  C1177   1.407   .     A
C1175  H1197   1.083   .     S
C1176  C1178   1.407   .     A
C1176  H1198   1.083   .     S
C1178  C541    1.505   1_556 S
C1179  O1207   1.291   .     A
C1179  C1181   1.447   .     S
C1179  O1205   1.277   .     A
C1180  O1208   1.285   .     A
C1180  C1182   1.444   .     S
C1180  O1206   1.279   .     A
C1182  C969    1.352   1_655 S
C1182  C1006   1.529   1_655 S
C1183  C1193   1.416   .     A
C1183  C1225   1.523   .     S
C1183  C1185   1.388   .     A
C1184  C1186   1.391   .     A
C1184  C1194   1.410   .     A
C1184  C1232   1.518   .     S
C1185  C1187   1.393   .     A
C1185  H1239   1.085   .     S
C1186  H1240   1.084   .     S
C1186  C1188   1.401   .     A
C1187  C1189   1.408   .     A
C1188  C1190   1.409   .     A
C1189  C1241   1.515   .     S
C1189  C1191   1.387   .     A
C1190  C1192   1.383   .     A
C1190  C1248   1.510   .     S
C1191  H1195   1.085   .     S
C1191  C1193   1.396   .     A
C1192  H1196   1.086   .     S
C1192  C1194   1.395   .     A
C1194  C875    1.441   1_565 S
N1199  Zn1210  1.997   .     S
N1200  Zn1209  1.997   .     S
O1201  Zn1209  1.982   .     S
O1202  Zn1210  1.982   .     S
O1203  Zn1210  1.996   .     S
O1204  Zn1209  1.996   .     S
O1205  Zn1209  1.915   .     S
O1206  Zn1210  1.915   .     S
O1207  Zn1210  1.930   .     S
O1208  Zn1209  1.930   .     S
C1211  H1217   1.108   .     S
C1211  H1216   1.111   .     S
C1211  C969    1.526   1_655 S
C1211  C1000   1.528   1_655 S
C1212  H1215   1.111   .     S
C1212  H1214   1.107   .     S
C1212  H1213   1.111   .     S
C1218  H1224   1.104   .     S
C1218  H1223   1.111   .     S
C1219  H1220   1.110   .     S
C1219  H1221   1.106   .     S
C1219  H1222   1.110   .     S
C1219  C1006   1.530   1_655 S
C1225  H1231   1.112   .     S
C1226  H1229   1.111   .     S
C1226  H1228   1.107   .     S
C1226  C907    1.525   1_565 S
C1226  H909    1.111   1_565 S
H1230  C907    1.109   1_565 S
C1232  H1238   1.112   .     S
C1232  C1233   1.525   .     S
C1232  H1237   1.109   .     S
C1233  H1234   1.111   .     S
C1233  H1236   1.111   .     S
C1233  H917    1.108   1_565 S
C1241  H1246   1.112   .     S
C1241  H1247   1.110   .     S
C1241  C1242   1.526   .     S
C1242  H1245   1.110   .     S
C1242  H1244   1.111   .     S
C1242  H1243   1.110   .     S
C1248  H1254   1.106   .     S
C1248  C1249   1.528   .     S
C1248  H1253   1.112   .     S
C1249  H1250   1.109   .     S
C1249  H1251   1.110   .     S
C1249  H1252   1.111   .     S
C1255  H1261   1.112   .     S
C1256  H1258   1.108   .     S
C1256  H1259   1.111   .     S
C1256  C619    1.526   1_556 S
C1256  H621    1.111   1_556 S
H1260  C619    1.108   1_556 S
C1262  H1268   1.112   .     S
C1262  C627    1.525   1_556 S
C1262  H631    1.108   1_556 S
C1263  H1265   1.108   .     S
C1263  H1266   1.111   .     S
H1264  C627    1.111   1_556 S
