data_str_m3_o1_o10_pcu_sym.4
_audit_creation_date              2020-01-03
_audit_creation_method            'Materials Studio'
_symmetry_space_group_name_H-M    'P1'
_symmetry_Int_Tables_number       1
_symmetry_cell_setting            triclinic
loop_
_symmetry_equiv_pos_as_xyz
  x,y,z
_cell_length_a                    25.9571
_cell_length_b                    31.8229
_cell_length_c                    29.7075
_cell_angle_alpha                 89.5508
_cell_angle_beta                  98.7724
_cell_angle_gamma                 90.5743
loop_
_atom_site_label
_atom_site_type_symbol
_atom_site_fract_x
_atom_site_fract_y
_atom_site_fract_z
_atom_site_U_iso_or_equiv
_atom_site_adp_type
_atom_site_occupancy
C1     C     0.16750   0.08684   0.16688   0.00000  Uiso   1.00
C2     C     0.20701   0.02128   0.19615   0.00000  Uiso   1.00
C3     C     0.16666   0.29068   0.16621   0.00000  Uiso   1.00
C4     C     0.16835   0.04273   0.16699   0.00000  Uiso   1.00
C5     C     0.20146   0.19092   0.02882   0.00000  Uiso   1.00
C6     C     0.13175   0.14204   0.30460   0.00000  Uiso   1.00
C7     C     0.20299   0.18950   0.31457   0.00000  Uiso   1.00
C8     C     0.13057   0.14342   0.01963   0.00000  Uiso   1.00
C9     C     0.22695   0.25736   0.05134   0.00000  Uiso   1.00
C10    C     0.26396   0.28216   0.08654   0.00000  Uiso   1.00
C11    C     0.25518   0.32942   0.08113   0.00000  Uiso   1.00
C12    C     0.16644   0.24652   0.16650   0.00000  Uiso   1.00
C13    C     0.09777   0.07450   0.28413   0.00000  Uiso   1.00
C14    C     0.15224   0.05580   0.30076   0.00000  Uiso   1.00
C15    C     0.15051   0.00785   0.29980   0.00000  Uiso   1.00
C16    C     0.06729   0.16662   0.15486   0.00000  Uiso   1.00
C17    C     0.26606   0.16680   0.17843   0.00000  Uiso   1.00
C18    C     0.01277   0.16097   0.14939   0.00000  Uiso   1.00
C19    C     0.32055   0.17277   0.18364   0.00000  Uiso   1.00
C20    C     0.13010   0.02214   0.13693   0.00000  Uiso   1.00
C21    C     0.20533   0.31123   0.19598   0.00000  Uiso   1.00
C22    C     0.12916   0.31226   0.13622   0.00000  Uiso   1.00
H23    H     0.10078   0.03959   0.11458   0.00000  Uiso   1.00
H24    H     0.27173   0.02274   0.24549   0.00000  Uiso   1.00
H25    H     0.18597   0.26409   0.05576   0.00000  Uiso   1.00
H26    H     0.23312   0.26839   0.01700   0.00000  Uiso   1.00
H27    H     0.25838   0.27219   0.12139   0.00000  Uiso   1.00
H28    H     0.30469   0.27509   0.08223   0.00000  Uiso   1.00
H29    H     0.26435   0.00707   0.04765   0.00000  Uiso   1.00
H30    H     0.28103   0.01296   0.10852   0.00000  Uiso   1.00
H31    H     0.21409   0.00379   0.08354   0.00000  Uiso   1.00
H32    H     0.08209   0.05906   0.25140   0.00000  Uiso   1.00
H33    H     0.06993   0.06577   0.30751   0.00000  Uiso   1.00
H34    H     0.23450   0.29347   0.21811   0.00000  Uiso   1.00
H35    H     0.18048   0.06720   0.27899   0.00000  Uiso   1.00
H36    H     0.16681   0.06558   0.00289   0.00000  Uiso   1.00
H37    H     0.12534   0.32895   0.32410   0.00000  Uiso   1.00
H38    H     0.19048   0.32885   0.30976   0.00000  Uiso   1.00
H39    H     0.13523   0.32980   0.26503   0.00000  Uiso   1.00
H40    H     0.27122   0.18633   0.29063   0.00000  Uiso   1.00
H41    H     0.23292   0.22786   0.26973   0.00000  Uiso   1.00
H42    H     0.09946   0.09031   0.04308   0.00000  Uiso   1.00
H43    H     0.05473   0.12634   0.01895   0.00000  Uiso   1.00
H44    H     0.00654   0.10925   0.10906   0.00000  Uiso   1.00
H45    H     0.32680   0.15528   0.08079   0.00000  Uiso   1.00
H46    H     0.32553   0.22393   0.22485   0.00000  Uiso   1.00
H47    H     0.00906   0.17779   0.25196   0.00000  Uiso   1.00
H48    H     0.09199   0.29970   0.07293   0.00000  Uiso   1.00
H49    H     0.05342   0.30001   0.11389   0.00000  Uiso   1.00
H50    H     0.27137   0.05816   0.20331   0.00000  Uiso   1.00
N51    N     0.16665   0.16666   0.28573   0.00000  Uiso   1.00
N52    N     0.16668   0.16668   0.04760   0.00000  Uiso   1.00
N53    N     0.32140   0.13823   0.10997   0.00000  Uiso   1.00
N54    N     0.01203   0.19572   0.22284   0.00000  Uiso   1.00
N55    N     0.08946   0.29033   0.10635   0.00000  Uiso   1.00
N56    N     0.24790   0.04365   0.22464   0.00000  Uiso   1.00
N57    N     0.24603   0.20959   0.29828   0.00000  Uiso   1.00
N58    N     0.09071   0.12221   0.03962   0.00000  Uiso   1.00
O59    O     0.16666   0.10558   0.20487   0.00000  Uiso   1.00
O60    O     0.09622   0.11854   0.27515   0.00000  Uiso   1.00
O61    O     0.16667   0.22775   0.12846   0.00000  Uiso   1.00
O62    O     0.16666   0.10559   0.12843   0.00000  Uiso   1.00
O63    O     0.16667   0.22774   0.20490   0.00000  Uiso   1.00
O64    O     0.09058   0.16666   0.19595   0.00000  Uiso   1.00
O65    O     0.24275   0.16667   0.13739   0.00000  Uiso   1.00
O66    O     0.09058   0.16667   0.11950   0.00000  Uiso   1.00
O67    O     0.24275   0.16666   0.21383   0.00000  Uiso   1.00
O68    O     0.23809   0.21408   0.05727   0.00000  Uiso   1.00
Zn69   Zn    0.16667   0.16666   0.21771   0.00000  Uiso   1.00
Zn70   Zn    0.16667   0.16667   0.11563   0.00000  Uiso   1.00
C71    C     0.50083   0.08684   0.16688   0.00000  Uiso   1.00
C72    C     0.54035   0.02128   0.19615   0.00000  Uiso   1.00
C73    C     0.50000   0.29068   0.16621   0.00000  Uiso   1.00
C74    C     0.50168   0.04273   0.16699   0.00000  Uiso   1.00
C75    C     0.53480   0.19092   0.02882   0.00000  Uiso   1.00
C76    C     0.46508   0.14204   0.30460   0.00000  Uiso   1.00
C77    C     0.53633   0.18950   0.31457   0.00000  Uiso   1.00
C78    C     0.46390   0.14342   0.01963   0.00000  Uiso   1.00
C79    C     0.56028   0.25736   0.05134   0.00000  Uiso   1.00
C80    C     0.59730   0.28216   0.08654   0.00000  Uiso   1.00
C81    C     0.58851   0.32942   0.08113   0.00000  Uiso   1.00
C82    C     0.49977   0.24652   0.16650   0.00000  Uiso   1.00
C83    C     0.43110   0.07450   0.28413   0.00000  Uiso   1.00
C84    C     0.48557   0.05580   0.30076   0.00000  Uiso   1.00
C85    C     0.48384   0.00785   0.29980   0.00000  Uiso   1.00
C86    C     0.40062   0.16662   0.15486   0.00000  Uiso   1.00
C87    C     0.59939   0.16680   0.17843   0.00000  Uiso   1.00
C88    C     0.34610   0.16097   0.14939   0.00000  Uiso   1.00
C89    C     0.65388   0.17277   0.18364   0.00000  Uiso   1.00
C90    C     0.46344   0.02214   0.13693   0.00000  Uiso   1.00
C91    C     0.53867   0.31123   0.19598   0.00000  Uiso   1.00
C92    C     0.46249   0.31226   0.13622   0.00000  Uiso   1.00
H93    H     0.43411   0.03959   0.11458   0.00000  Uiso   1.00
H94    H     0.60506   0.02274   0.24549   0.00000  Uiso   1.00
H95    H     0.51930   0.26409   0.05576   0.00000  Uiso   1.00
H96    H     0.56645   0.26839   0.01700   0.00000  Uiso   1.00
H97    H     0.59171   0.27219   0.12139   0.00000  Uiso   1.00
H98    H     0.63802   0.27509   0.08223   0.00000  Uiso   1.00
H99    H     0.59768   0.00707   0.04765   0.00000  Uiso   1.00
H100   H     0.61436   0.01296   0.10852   0.00000  Uiso   1.00
H101   H     0.54742   0.00379   0.08354   0.00000  Uiso   1.00
H102   H     0.41542   0.05906   0.25140   0.00000  Uiso   1.00
H103   H     0.40327   0.06577   0.30751   0.00000  Uiso   1.00
H104   H     0.56784   0.29347   0.21811   0.00000  Uiso   1.00
H105   H     0.51381   0.06720   0.27899   0.00000  Uiso   1.00
H106   H     0.50014   0.06558   0.00289   0.00000  Uiso   1.00
H107   H     0.45867   0.32895   0.32410   0.00000  Uiso   1.00
H108   H     0.52381   0.32885   0.30976   0.00000  Uiso   1.00
H109   H     0.46857   0.32980   0.26503   0.00000  Uiso   1.00
H110   H     0.60455   0.18633   0.29063   0.00000  Uiso   1.00
H111   H     0.56626   0.22786   0.26973   0.00000  Uiso   1.00
H112   H     0.43279   0.09031   0.04308   0.00000  Uiso   1.00
H113   H     0.38807   0.12634   0.01895   0.00000  Uiso   1.00
H114   H     0.33987   0.10925   0.10906   0.00000  Uiso   1.00
H115   H     0.66013   0.15528   0.08079   0.00000  Uiso   1.00
H116   H     0.65887   0.22393   0.22485   0.00000  Uiso   1.00
H117   H     0.34239   0.17779   0.25196   0.00000  Uiso   1.00
H118   H     0.42532   0.29970   0.07293   0.00000  Uiso   1.00
H119   H     0.38675   0.30001   0.11389   0.00000  Uiso   1.00
H120   H     0.60470   0.05816   0.20331   0.00000  Uiso   1.00
N121   N     0.49999   0.16666   0.28573   0.00000  Uiso   1.00
N122   N     0.50001   0.16668   0.04760   0.00000  Uiso   1.00
N123   N     0.65473   0.13823   0.10997   0.00000  Uiso   1.00
N124   N     0.34537   0.19572   0.22284   0.00000  Uiso   1.00
N125   N     0.42280   0.29033   0.10635   0.00000  Uiso   1.00
N126   N     0.58124   0.04365   0.22464   0.00000  Uiso   1.00
N127   N     0.57937   0.20959   0.29828   0.00000  Uiso   1.00
N128   N     0.42405   0.12221   0.03962   0.00000  Uiso   1.00
O129   O     0.50000   0.10558   0.20487   0.00000  Uiso   1.00
O130   O     0.42956   0.11854   0.27515   0.00000  Uiso   1.00
O131   O     0.50000   0.22775   0.12846   0.00000  Uiso   1.00
O132   O     0.50000   0.10559   0.12843   0.00000  Uiso   1.00
O133   O     0.50000   0.22774   0.20490   0.00000  Uiso   1.00
O134   O     0.42392   0.16666   0.19595   0.00000  Uiso   1.00
O135   O     0.57608   0.16667   0.13739   0.00000  Uiso   1.00
O136   O     0.42392   0.16667   0.11950   0.00000  Uiso   1.00
O137   O     0.57608   0.16666   0.21383   0.00000  Uiso   1.00
O138   O     0.57142   0.21408   0.05727   0.00000  Uiso   1.00
Zn139  Zn    0.50000   0.16666   0.21771   0.00000  Uiso   1.00
Zn140  Zn    0.50000   0.16667   0.11563   0.00000  Uiso   1.00
C141   C     0.83416   0.08684   0.16688   0.00000  Uiso   1.00
C142   C     0.87368   0.02128   0.19615   0.00000  Uiso   1.00
C143   C     0.83333   0.29068   0.16621   0.00000  Uiso   1.00
C144   C     0.83502   0.04273   0.16699   0.00000  Uiso   1.00
C145   C     0.86813   0.19092   0.02882   0.00000  Uiso   1.00
C146   C     0.79841   0.14204   0.30460   0.00000  Uiso   1.00
C147   C     0.86966   0.18950   0.31457   0.00000  Uiso   1.00
C148   C     0.79723   0.14342   0.01963   0.00000  Uiso   1.00
C149   C     0.89362   0.25736   0.05134   0.00000  Uiso   1.00
C150   C     0.93063   0.28216   0.08654   0.00000  Uiso   1.00
C151   C     0.92184   0.32942   0.08113   0.00000  Uiso   1.00
C152   C     0.83311   0.24652   0.16650   0.00000  Uiso   1.00
C153   C     0.76443   0.07450   0.28413   0.00000  Uiso   1.00
C154   C     0.81891   0.05580   0.30076   0.00000  Uiso   1.00
C155   C     0.81718   0.00785   0.29980   0.00000  Uiso   1.00
C156   C     0.73396   0.16662   0.15486   0.00000  Uiso   1.00
C157   C     0.93273   0.16680   0.17843   0.00000  Uiso   1.00
C158   C     0.67944   0.16097   0.14939   0.00000  Uiso   1.00
C159   C     0.98722   0.17277   0.18364   0.00000  Uiso   1.00
C160   C     0.79677   0.02214   0.13693   0.00000  Uiso   1.00
C161   C     0.87200   0.31123   0.19598   0.00000  Uiso   1.00
C162   C     0.79582   0.31226   0.13622   0.00000  Uiso   1.00
H163   H     0.76745   0.03959   0.11458   0.00000  Uiso   1.00
H164   H     0.93840   0.02274   0.24549   0.00000  Uiso   1.00
H165   H     0.85263   0.26409   0.05576   0.00000  Uiso   1.00
H166   H     0.89979   0.26839   0.01700   0.00000  Uiso   1.00
H167   H     0.92505   0.27219   0.12139   0.00000  Uiso   1.00
H168   H     0.97135   0.27509   0.08223   0.00000  Uiso   1.00
H169   H     0.93102   0.00707   0.04765   0.00000  Uiso   1.00
H170   H     0.94769   0.01296   0.10852   0.00000  Uiso   1.00
H171   H     0.88075   0.00379   0.08354   0.00000  Uiso   1.00
H172   H     0.74875   0.05906   0.25140   0.00000  Uiso   1.00
H173   H     0.73660   0.06577   0.30751   0.00000  Uiso   1.00
H174   H     0.90117   0.29347   0.21811   0.00000  Uiso   1.00
H175   H     0.84714   0.06720   0.27899   0.00000  Uiso   1.00
H176   H     0.83348   0.06558   0.00289   0.00000  Uiso   1.00
H177   H     0.79200   0.32895   0.32410   0.00000  Uiso   1.00
H178   H     0.85714   0.32885   0.30976   0.00000  Uiso   1.00
H179   H     0.80190   0.32980   0.26503   0.00000  Uiso   1.00
H180   H     0.93788   0.18633   0.29063   0.00000  Uiso   1.00
H181   H     0.89959   0.22786   0.26973   0.00000  Uiso   1.00
H182   H     0.76613   0.09031   0.04308   0.00000  Uiso   1.00
H183   H     0.72140   0.12634   0.01895   0.00000  Uiso   1.00
H184   H     0.67320   0.10925   0.10906   0.00000  Uiso   1.00
H185   H     0.99346   0.15528   0.08079   0.00000  Uiso   1.00
H186   H     0.99220   0.22393   0.22485   0.00000  Uiso   1.00
H187   H     0.67572   0.17779   0.25196   0.00000  Uiso   1.00
H188   H     0.75865   0.29970   0.07293   0.00000  Uiso   1.00
H189   H     0.72009   0.30001   0.11389   0.00000  Uiso   1.00
H190   H     0.93804   0.05816   0.20331   0.00000  Uiso   1.00
N191   N     0.83332   0.16666   0.28573   0.00000  Uiso   1.00
N192   N     0.83335   0.16668   0.04760   0.00000  Uiso   1.00
N193   N     0.98806   0.13823   0.10997   0.00000  Uiso   1.00
N194   N     0.67870   0.19572   0.22284   0.00000  Uiso   1.00
N195   N     0.75613   0.29033   0.10635   0.00000  Uiso   1.00
N196   N     0.91457   0.04365   0.22464   0.00000  Uiso   1.00
N197   N     0.91270   0.20959   0.29828   0.00000  Uiso   1.00
N198   N     0.75738   0.12221   0.03962   0.00000  Uiso   1.00
O199   O     0.83333   0.10558   0.20487   0.00000  Uiso   1.00
O200   O     0.76289   0.11854   0.27515   0.00000  Uiso   1.00
O201   O     0.83334   0.22775   0.12846   0.00000  Uiso   1.00
O202   O     0.83333   0.10559   0.12843   0.00000  Uiso   1.00
O203   O     0.83334   0.22774   0.20490   0.00000  Uiso   1.00
O204   O     0.75725   0.16666   0.19595   0.00000  Uiso   1.00
O205   O     0.90942   0.16667   0.13739   0.00000  Uiso   1.00
O206   O     0.75725   0.16667   0.11950   0.00000  Uiso   1.00
O207   O     0.90942   0.16666   0.21383   0.00000  Uiso   1.00
O208   O     0.90476   0.21408   0.05727   0.00000  Uiso   1.00
Zn209  Zn    0.83333   0.16666   0.21771   0.00000  Uiso   1.00
Zn210  Zn    0.83333   0.16667   0.11563   0.00000  Uiso   1.00
C211   C     0.16750   0.42017   0.16688   0.00000  Uiso   1.00
C212   C     0.20701   0.35461   0.19615   0.00000  Uiso   1.00
C213   C     0.16666   0.62401   0.16621   0.00000  Uiso   1.00
C214   C     0.16835   0.37607   0.16699   0.00000  Uiso   1.00
C215   C     0.20146   0.52426   0.02882   0.00000  Uiso   1.00
C216   C     0.13175   0.47538   0.30460   0.00000  Uiso   1.00
C217   C     0.20299   0.52283   0.31457   0.00000  Uiso   1.00
C218   C     0.13057   0.47675   0.01963   0.00000  Uiso   1.00
C219   C     0.22695   0.59070   0.05134   0.00000  Uiso   1.00
C220   C     0.26396   0.61549   0.08654   0.00000  Uiso   1.00
C221   C     0.25518   0.66275   0.08113   0.00000  Uiso   1.00
C222   C     0.16644   0.57986   0.16650   0.00000  Uiso   1.00
C223   C     0.09777   0.40783   0.28413   0.00000  Uiso   1.00
C224   C     0.15224   0.38913   0.30076   0.00000  Uiso   1.00
C225   C     0.15051   0.34119   0.29980   0.00000  Uiso   1.00
C226   C     0.06729   0.49995   0.15486   0.00000  Uiso   1.00
C227   C     0.26606   0.50013   0.17843   0.00000  Uiso   1.00
C228   C     0.01277   0.49430   0.14939   0.00000  Uiso   1.00
C229   C     0.32055   0.50610   0.18364   0.00000  Uiso   1.00
C230   C     0.13010   0.35547   0.13693   0.00000  Uiso   1.00
C231   C     0.20533   0.64456   0.19598   0.00000  Uiso   1.00
C232   C     0.12916   0.64559   0.13622   0.00000  Uiso   1.00
H233   H     0.10078   0.37293   0.11458   0.00000  Uiso   1.00
H234   H     0.27173   0.35607   0.24549   0.00000  Uiso   1.00
H235   H     0.18597   0.59743   0.05576   0.00000  Uiso   1.00
H236   H     0.23312   0.60172   0.01700   0.00000  Uiso   1.00
H237   H     0.25838   0.60553   0.12139   0.00000  Uiso   1.00
H238   H     0.30469   0.60843   0.08223   0.00000  Uiso   1.00
H239   H     0.26435   0.34040   0.04765   0.00000  Uiso   1.00
H240   H     0.28103   0.34629   0.10852   0.00000  Uiso   1.00
H241   H     0.21409   0.33712   0.08354   0.00000  Uiso   1.00
H242   H     0.08209   0.39240   0.25140   0.00000  Uiso   1.00
H243   H     0.06993   0.39910   0.30751   0.00000  Uiso   1.00
H244   H     0.23450   0.62680   0.21811   0.00000  Uiso   1.00
H245   H     0.18048   0.40053   0.27899   0.00000  Uiso   1.00
H246   H     0.16681   0.39892   0.00289   0.00000  Uiso   1.00
H247   H     0.12534   0.66228   0.32410   0.00000  Uiso   1.00
H248   H     0.19048   0.66219   0.30976   0.00000  Uiso   1.00
H249   H     0.13523   0.66314   0.26503   0.00000  Uiso   1.00
H250   H     0.27122   0.51966   0.29063   0.00000  Uiso   1.00
H251   H     0.23292   0.56119   0.26973   0.00000  Uiso   1.00
H252   H     0.09946   0.42365   0.04308   0.00000  Uiso   1.00
H253   H     0.05473   0.45968   0.01895   0.00000  Uiso   1.00
H254   H     0.00654   0.44259   0.10906   0.00000  Uiso   1.00
H255   H     0.32680   0.48862   0.08079   0.00000  Uiso   1.00
H256   H     0.32553   0.55727   0.22485   0.00000  Uiso   1.00
H257   H     0.00906   0.51112   0.25196   0.00000  Uiso   1.00
H258   H     0.09199   0.63304   0.07293   0.00000  Uiso   1.00
H259   H     0.05342   0.63335   0.11389   0.00000  Uiso   1.00
H260   H     0.27137   0.39149   0.20331   0.00000  Uiso   1.00
N261   N     0.16665   0.49999   0.28573   0.00000  Uiso   1.00
N262   N     0.16668   0.50001   0.04760   0.00000  Uiso   1.00
N263   N     0.32140   0.47156   0.10997   0.00000  Uiso   1.00
N264   N     0.01203   0.52905   0.22284   0.00000  Uiso   1.00
N265   N     0.08946   0.62367   0.10635   0.00000  Uiso   1.00
N266   N     0.24790   0.37698   0.22464   0.00000  Uiso   1.00
N267   N     0.24603   0.54293   0.29828   0.00000  Uiso   1.00
N268   N     0.09071   0.45554   0.03962   0.00000  Uiso   1.00
O269   O     0.16666   0.43892   0.20487   0.00000  Uiso   1.00
O270   O     0.09622   0.45187   0.27515   0.00000  Uiso   1.00
O271   O     0.16667   0.56108   0.12846   0.00000  Uiso   1.00
O272   O     0.16666   0.43893   0.12843   0.00000  Uiso   1.00
O273   O     0.16667   0.56107   0.20490   0.00000  Uiso   1.00
O274   O     0.09058   0.50000   0.19595   0.00000  Uiso   1.00
O275   O     0.24275   0.50000   0.13739   0.00000  Uiso   1.00
O276   O     0.09058   0.50000   0.11950   0.00000  Uiso   1.00
O277   O     0.24275   0.50000   0.21383   0.00000  Uiso   1.00
O278   O     0.23809   0.54741   0.05727   0.00000  Uiso   1.00
Zn279  Zn    0.16667   0.49999   0.21771   0.00000  Uiso   1.00
Zn280  Zn    0.16667   0.50001   0.11563   0.00000  Uiso   1.00
C281   C     0.50083   0.42017   0.16688   0.00000  Uiso   1.00
C282   C     0.54035   0.35461   0.19615   0.00000  Uiso   1.00
C283   C     0.50000   0.62401   0.16621   0.00000  Uiso   1.00
C284   C     0.50168   0.37607   0.16699   0.00000  Uiso   1.00
C285   C     0.53480   0.52426   0.02882   0.00000  Uiso   1.00
C286   C     0.46508   0.47538   0.30460   0.00000  Uiso   1.00
C287   C     0.53633   0.52283   0.31457   0.00000  Uiso   1.00
C288   C     0.46390   0.47675   0.01963   0.00000  Uiso   1.00
C289   C     0.56028   0.59070   0.05134   0.00000  Uiso   1.00
C290   C     0.59730   0.61549   0.08654   0.00000  Uiso   1.00
C291   C     0.58851   0.66275   0.08113   0.00000  Uiso   1.00
C292   C     0.49977   0.57986   0.16650   0.00000  Uiso   1.00
C293   C     0.43110   0.40783   0.28413   0.00000  Uiso   1.00
C294   C     0.48557   0.38913   0.30076   0.00000  Uiso   1.00
C295   C     0.48384   0.34119   0.29980   0.00000  Uiso   1.00
C296   C     0.40062   0.49995   0.15486   0.00000  Uiso   1.00
C297   C     0.59939   0.50013   0.17843   0.00000  Uiso   1.00
C298   C     0.34610   0.49430   0.14939   0.00000  Uiso   1.00
C299   C     0.65388   0.50610   0.18364   0.00000  Uiso   1.00
C300   C     0.46344   0.35547   0.13693   0.00000  Uiso   1.00
C301   C     0.53867   0.64456   0.19598   0.00000  Uiso   1.00
C302   C     0.46249   0.64559   0.13622   0.00000  Uiso   1.00
H303   H     0.43411   0.37293   0.11458   0.00000  Uiso   1.00
H304   H     0.60506   0.35607   0.24549   0.00000  Uiso   1.00
H305   H     0.51930   0.59743   0.05576   0.00000  Uiso   1.00
H306   H     0.56645   0.60172   0.01700   0.00000  Uiso   1.00
H307   H     0.59171   0.60553   0.12139   0.00000  Uiso   1.00
H308   H     0.63802   0.60843   0.08223   0.00000  Uiso   1.00
H309   H     0.59768   0.34040   0.04765   0.00000  Uiso   1.00
H310   H     0.61436   0.34629   0.10852   0.00000  Uiso   1.00
H311   H     0.54742   0.33712   0.08354   0.00000  Uiso   1.00
H312   H     0.41542   0.39240   0.25140   0.00000  Uiso   1.00
H313   H     0.40327   0.39910   0.30751   0.00000  Uiso   1.00
H314   H     0.56784   0.62680   0.21811   0.00000  Uiso   1.00
H315   H     0.51381   0.40053   0.27899   0.00000  Uiso   1.00
H316   H     0.50014   0.39892   0.00289   0.00000  Uiso   1.00
H317   H     0.45867   0.66228   0.32410   0.00000  Uiso   1.00
H318   H     0.52381   0.66219   0.30976   0.00000  Uiso   1.00
H319   H     0.46857   0.66314   0.26503   0.00000  Uiso   1.00
H320   H     0.60455   0.51966   0.29063   0.00000  Uiso   1.00
H321   H     0.56626   0.56119   0.26973   0.00000  Uiso   1.00
H322   H     0.43279   0.42365   0.04308   0.00000  Uiso   1.00
H323   H     0.38807   0.45968   0.01895   0.00000  Uiso   1.00
H324   H     0.33987   0.44259   0.10906   0.00000  Uiso   1.00
H325   H     0.66013   0.48862   0.08079   0.00000  Uiso   1.00
H326   H     0.65887   0.55727   0.22485   0.00000  Uiso   1.00
H327   H     0.34239   0.51112   0.25196   0.00000  Uiso   1.00
H328   H     0.42532   0.63304   0.07293   0.00000  Uiso   1.00
H329   H     0.38675   0.63335   0.11389   0.00000  Uiso   1.00
H330   H     0.60470   0.39149   0.20331   0.00000  Uiso   1.00
N331   N     0.49999   0.49999   0.28573   0.00000  Uiso   1.00
N332   N     0.50001   0.50001   0.04760   0.00000  Uiso   1.00
N333   N     0.65473   0.47156   0.10997   0.00000  Uiso   1.00
N334   N     0.34537   0.52905   0.22284   0.00000  Uiso   1.00
N335   N     0.42280   0.62367   0.10635   0.00000  Uiso   1.00
N336   N     0.58124   0.37698   0.22464   0.00000  Uiso   1.00
N337   N     0.57937   0.54293   0.29828   0.00000  Uiso   1.00
N338   N     0.42405   0.45554   0.03962   0.00000  Uiso   1.00
O339   O     0.50000   0.43892   0.20487   0.00000  Uiso   1.00
O340   O     0.42956   0.45187   0.27515   0.00000  Uiso   1.00
O341   O     0.50000   0.56108   0.12846   0.00000  Uiso   1.00
O342   O     0.50000   0.43893   0.12843   0.00000  Uiso   1.00
O343   O     0.50000   0.56107   0.20490   0.00000  Uiso   1.00
O344   O     0.42392   0.50000   0.19595   0.00000  Uiso   1.00
O345   O     0.57608   0.50000   0.13739   0.00000  Uiso   1.00
O346   O     0.42392   0.50000   0.11950   0.00000  Uiso   1.00
O347   O     0.57608   0.50000   0.21383   0.00000  Uiso   1.00
O348   O     0.57142   0.54741   0.05727   0.00000  Uiso   1.00
Zn349  Zn    0.50000   0.49999   0.21771   0.00000  Uiso   1.00
Zn350  Zn    0.50000   0.50001   0.11563   0.00000  Uiso   1.00
C351   C     0.83416   0.42017   0.16688   0.00000  Uiso   1.00
C352   C     0.87368   0.35461   0.19615   0.00000  Uiso   1.00
C353   C     0.83333   0.62401   0.16621   0.00000  Uiso   1.00
C354   C     0.83502   0.37607   0.16699   0.00000  Uiso   1.00
C355   C     0.86813   0.52426   0.02882   0.00000  Uiso   1.00
C356   C     0.79841   0.47538   0.30460   0.00000  Uiso   1.00
C357   C     0.86966   0.52283   0.31457   0.00000  Uiso   1.00
C358   C     0.79723   0.47675   0.01963   0.00000  Uiso   1.00
C359   C     0.89362   0.59070   0.05134   0.00000  Uiso   1.00
C360   C     0.93063   0.61549   0.08654   0.00000  Uiso   1.00
C361   C     0.92184   0.66275   0.08113   0.00000  Uiso   1.00
C362   C     0.83311   0.57986   0.16650   0.00000  Uiso   1.00
C363   C     0.76443   0.40783   0.28413   0.00000  Uiso   1.00
C364   C     0.81891   0.38913   0.30076   0.00000  Uiso   1.00
C365   C     0.81718   0.34119   0.29980   0.00000  Uiso   1.00
C366   C     0.73396   0.49995   0.15486   0.00000  Uiso   1.00
C367   C     0.93273   0.50013   0.17843   0.00000  Uiso   1.00
C368   C     0.67944   0.49430   0.14939   0.00000  Uiso   1.00
C369   C     0.98722   0.50610   0.18364   0.00000  Uiso   1.00
C370   C     0.79677   0.35547   0.13693   0.00000  Uiso   1.00
C371   C     0.87200   0.64456   0.19598   0.00000  Uiso   1.00
C372   C     0.79582   0.64559   0.13622   0.00000  Uiso   1.00
H373   H     0.76745   0.37293   0.11458   0.00000  Uiso   1.00
H374   H     0.93840   0.35607   0.24549   0.00000  Uiso   1.00
H375   H     0.85263   0.59743   0.05576   0.00000  Uiso   1.00
H376   H     0.89979   0.60172   0.01700   0.00000  Uiso   1.00
H377   H     0.92505   0.60553   0.12139   0.00000  Uiso   1.00
H378   H     0.97135   0.60843   0.08223   0.00000  Uiso   1.00
H379   H     0.93102   0.34040   0.04765   0.00000  Uiso   1.00
H380   H     0.94769   0.34629   0.10852   0.00000  Uiso   1.00
H381   H     0.88075   0.33712   0.08354   0.00000  Uiso   1.00
H382   H     0.74875   0.39240   0.25140   0.00000  Uiso   1.00
H383   H     0.73660   0.39910   0.30751   0.00000  Uiso   1.00
H384   H     0.90117   0.62680   0.21811   0.00000  Uiso   1.00
H385   H     0.84714   0.40053   0.27899   0.00000  Uiso   1.00
H386   H     0.83348   0.39892   0.00289   0.00000  Uiso   1.00
H387   H     0.79200   0.66228   0.32410   0.00000  Uiso   1.00
H388   H     0.85714   0.66219   0.30976   0.00000  Uiso   1.00
H389   H     0.80190   0.66314   0.26503   0.00000  Uiso   1.00
H390   H     0.93788   0.51966   0.29063   0.00000  Uiso   1.00
H391   H     0.89959   0.56119   0.26973   0.00000  Uiso   1.00
H392   H     0.76613   0.42365   0.04308   0.00000  Uiso   1.00
H393   H     0.72140   0.45968   0.01895   0.00000  Uiso   1.00
H394   H     0.67320   0.44259   0.10906   0.00000  Uiso   1.00
H395   H     0.99346   0.48862   0.08079   0.00000  Uiso   1.00
H396   H     0.99220   0.55727   0.22485   0.00000  Uiso   1.00
H397   H     0.67572   0.51112   0.25196   0.00000  Uiso   1.00
H398   H     0.75865   0.63304   0.07293   0.00000  Uiso   1.00
H399   H     0.72009   0.63335   0.11389   0.00000  Uiso   1.00
H400   H     0.93804   0.39149   0.20331   0.00000  Uiso   1.00
N401   N     0.83332   0.49999   0.28573   0.00000  Uiso   1.00
N402   N     0.83335   0.50001   0.04760   0.00000  Uiso   1.00
N403   N     0.98806   0.47156   0.10997   0.00000  Uiso   1.00
N404   N     0.67870   0.52905   0.22284   0.00000  Uiso   1.00
N405   N     0.75613   0.62367   0.10635   0.00000  Uiso   1.00
N406   N     0.91457   0.37698   0.22464   0.00000  Uiso   1.00
N407   N     0.91270   0.54293   0.29828   0.00000  Uiso   1.00
N408   N     0.75738   0.45554   0.03962   0.00000  Uiso   1.00
O409   O     0.83333   0.43892   0.20487   0.00000  Uiso   1.00
O410   O     0.76289   0.45187   0.27515   0.00000  Uiso   1.00
O411   O     0.83334   0.56108   0.12846   0.00000  Uiso   1.00
O412   O     0.83333   0.43893   0.12843   0.00000  Uiso   1.00
O413   O     0.83334   0.56107   0.20490   0.00000  Uiso   1.00
O414   O     0.75725   0.50000   0.19595   0.00000  Uiso   1.00
O415   O     0.90942   0.50000   0.13739   0.00000  Uiso   1.00
O416   O     0.75725   0.50000   0.11950   0.00000  Uiso   1.00
O417   O     0.90942   0.50000   0.21383   0.00000  Uiso   1.00
O418   O     0.90476   0.54741   0.05727   0.00000  Uiso   1.00
Zn419  Zn    0.83333   0.49999   0.21771   0.00000  Uiso   1.00
Zn420  Zn    0.83333   0.50001   0.11563   0.00000  Uiso   1.00
C421   C     0.16750   0.75351   0.16688   0.00000  Uiso   1.00
C422   C     0.20701   0.68794   0.19615   0.00000  Uiso   1.00
C423   C     0.16666   0.95734   0.16621   0.00000  Uiso   1.00
C424   C     0.16835   0.70940   0.16699   0.00000  Uiso   1.00
C425   C     0.20146   0.85759   0.02882   0.00000  Uiso   1.00
C426   C     0.13175   0.80871   0.30460   0.00000  Uiso   1.00
C427   C     0.20299   0.85617   0.31457   0.00000  Uiso   1.00
C428   C     0.13057   0.81009   0.01963   0.00000  Uiso   1.00
C429   C     0.22695   0.92403   0.05134   0.00000  Uiso   1.00
C430   C     0.26396   0.94883   0.08654   0.00000  Uiso   1.00
C431   C     0.25518   0.99608   0.08113   0.00000  Uiso   1.00
C432   C     0.16644   0.91319   0.16650   0.00000  Uiso   1.00
C433   C     0.09777   0.74117   0.28413   0.00000  Uiso   1.00
C434   C     0.15224   0.72246   0.30076   0.00000  Uiso   1.00
C435   C     0.15051   0.67452   0.29980   0.00000  Uiso   1.00
C436   C     0.06729   0.83329   0.15486   0.00000  Uiso   1.00
C437   C     0.26606   0.83346   0.17843   0.00000  Uiso   1.00
C438   C     0.01277   0.82764   0.14939   0.00000  Uiso   1.00
C439   C     0.32055   0.83943   0.18364   0.00000  Uiso   1.00
C440   C     0.13010   0.68880   0.13693   0.00000  Uiso   1.00
C441   C     0.20533   0.97790   0.19598   0.00000  Uiso   1.00
C442   C     0.12916   0.97893   0.13622   0.00000  Uiso   1.00
H443   H     0.10078   0.70626   0.11458   0.00000  Uiso   1.00
H444   H     0.27173   0.68941   0.24549   0.00000  Uiso   1.00
H445   H     0.18597   0.93076   0.05576   0.00000  Uiso   1.00
H446   H     0.23312   0.93506   0.01700   0.00000  Uiso   1.00
H447   H     0.25838   0.93886   0.12139   0.00000  Uiso   1.00
H448   H     0.30469   0.94176   0.08223   0.00000  Uiso   1.00
H449   H     0.26435   0.67373   0.04765   0.00000  Uiso   1.00
H450   H     0.28103   0.67962   0.10852   0.00000  Uiso   1.00
H451   H     0.21409   0.67045   0.08354   0.00000  Uiso   1.00
H452   H     0.08209   0.72573   0.25140   0.00000  Uiso   1.00
H453   H     0.06993   0.73244   0.30751   0.00000  Uiso   1.00
H454   H     0.23450   0.96013   0.21811   0.00000  Uiso   1.00
H455   H     0.18048   0.73386   0.27899   0.00000  Uiso   1.00
H456   H     0.16681   0.73225   0.00289   0.00000  Uiso   1.00
H457   H     0.12534   0.99561   0.32410   0.00000  Uiso   1.00
H458   H     0.19048   0.99552   0.30976   0.00000  Uiso   1.00
H459   H     0.13523   0.99647   0.26503   0.00000  Uiso   1.00
H460   H     0.27122   0.85300   0.29063   0.00000  Uiso   1.00
H461   H     0.23292   0.89453   0.26973   0.00000  Uiso   1.00
H462   H     0.09946   0.75698   0.04308   0.00000  Uiso   1.00
H463   H     0.05473   0.79301   0.01895   0.00000  Uiso   1.00
H464   H     0.00654   0.77592   0.10906   0.00000  Uiso   1.00
H465   H     0.32680   0.82195   0.08079   0.00000  Uiso   1.00
H466   H     0.32553   0.89060   0.22485   0.00000  Uiso   1.00
H467   H     0.00906   0.84446   0.25196   0.00000  Uiso   1.00
H468   H     0.09199   0.96637   0.07293   0.00000  Uiso   1.00
H469   H     0.05342   0.96668   0.11389   0.00000  Uiso   1.00
H470   H     0.27137   0.72482   0.20331   0.00000  Uiso   1.00
N471   N     0.16665   0.83332   0.28573   0.00000  Uiso   1.00
N472   N     0.16668   0.83334   0.04760   0.00000  Uiso   1.00
N473   N     0.32140   0.80490   0.10997   0.00000  Uiso   1.00
N474   N     0.01203   0.86238   0.22284   0.00000  Uiso   1.00
N475   N     0.08946   0.95700   0.10635   0.00000  Uiso   1.00
N476   N     0.24790   0.71031   0.22464   0.00000  Uiso   1.00
N477   N     0.24603   0.87626   0.29828   0.00000  Uiso   1.00
N478   N     0.09071   0.78887   0.03962   0.00000  Uiso   1.00
O479   O     0.16666   0.77225   0.20487   0.00000  Uiso   1.00
O480   O     0.09622   0.78520   0.27515   0.00000  Uiso   1.00
O481   O     0.16667   0.89442   0.12846   0.00000  Uiso   1.00
O482   O     0.16666   0.77226   0.12843   0.00000  Uiso   1.00
O483   O     0.16667   0.89441   0.20490   0.00000  Uiso   1.00
O484   O     0.09058   0.83333   0.19595   0.00000  Uiso   1.00
O485   O     0.24275   0.83334   0.13739   0.00000  Uiso   1.00
O486   O     0.09058   0.83334   0.11950   0.00000  Uiso   1.00
O487   O     0.24275   0.83333   0.21383   0.00000  Uiso   1.00
O488   O     0.23809   0.88074   0.05727   0.00000  Uiso   1.00
Zn489  Zn    0.16667   0.83333   0.21771   0.00000  Uiso   1.00
Zn490  Zn    0.16667   0.83334   0.11563   0.00000  Uiso   1.00
C491   C     0.50083   0.75351   0.16688   0.00000  Uiso   1.00
C492   C     0.54035   0.68794   0.19615   0.00000  Uiso   1.00
C493   C     0.50000   0.95734   0.16621   0.00000  Uiso   1.00
C494   C     0.50168   0.70940   0.16699   0.00000  Uiso   1.00
C495   C     0.53480   0.85759   0.02882   0.00000  Uiso   1.00
C496   C     0.46508   0.80871   0.30460   0.00000  Uiso   1.00
C497   C     0.53633   0.85617   0.31457   0.00000  Uiso   1.00
C498   C     0.46390   0.81009   0.01963   0.00000  Uiso   1.00
C499   C     0.56028   0.92403   0.05134   0.00000  Uiso   1.00
C500   C     0.59730   0.94883   0.08654   0.00000  Uiso   1.00
C501   C     0.58851   0.99608   0.08113   0.00000  Uiso   1.00
C502   C     0.49977   0.91319   0.16650   0.00000  Uiso   1.00
C503   C     0.43110   0.74117   0.28413   0.00000  Uiso   1.00
C504   C     0.48557   0.72246   0.30076   0.00000  Uiso   1.00
C505   C     0.48384   0.67452   0.29980   0.00000  Uiso   1.00
C506   C     0.40062   0.83329   0.15486   0.00000  Uiso   1.00
C507   C     0.59939   0.83346   0.17843   0.00000  Uiso   1.00
C508   C     0.34610   0.82764   0.14939   0.00000  Uiso   1.00
C509   C     0.65388   0.83943   0.18364   0.00000  Uiso   1.00
C510   C     0.46344   0.68880   0.13693   0.00000  Uiso   1.00
C511   C     0.53867   0.97790   0.19598   0.00000  Uiso   1.00
C512   C     0.46249   0.97893   0.13622   0.00000  Uiso   1.00
H513   H     0.43411   0.70626   0.11458   0.00000  Uiso   1.00
H514   H     0.60506   0.68941   0.24549   0.00000  Uiso   1.00
H515   H     0.51930   0.93076   0.05576   0.00000  Uiso   1.00
H516   H     0.56645   0.93506   0.01700   0.00000  Uiso   1.00
H517   H     0.59171   0.93886   0.12139   0.00000  Uiso   1.00
H518   H     0.63802   0.94176   0.08223   0.00000  Uiso   1.00
H519   H     0.59768   0.67373   0.04765   0.00000  Uiso   1.00
H520   H     0.61436   0.67962   0.10852   0.00000  Uiso   1.00
H521   H     0.54742   0.67045   0.08354   0.00000  Uiso   1.00
H522   H     0.41542   0.72573   0.25140   0.00000  Uiso   1.00
H523   H     0.40327   0.73244   0.30751   0.00000  Uiso   1.00
H524   H     0.56784   0.96013   0.21811   0.00000  Uiso   1.00
H525   H     0.51381   0.73386   0.27899   0.00000  Uiso   1.00
H526   H     0.50014   0.73225   0.00289   0.00000  Uiso   1.00
H527   H     0.45867   0.99561   0.32410   0.00000  Uiso   1.00
H528   H     0.52381   0.99552   0.30976   0.00000  Uiso   1.00
H529   H     0.46857   0.99647   0.26503   0.00000  Uiso   1.00
H530   H     0.60455   0.85300   0.29063   0.00000  Uiso   1.00
H531   H     0.56626   0.89453   0.26973   0.00000  Uiso   1.00
H532   H     0.43279   0.75698   0.04308   0.00000  Uiso   1.00
H533   H     0.38807   0.79301   0.01895   0.00000  Uiso   1.00
H534   H     0.33987   0.77592   0.10906   0.00000  Uiso   1.00
H535   H     0.66013   0.82195   0.08079   0.00000  Uiso   1.00
H536   H     0.65887   0.89060   0.22485   0.00000  Uiso   1.00
H537   H     0.34239   0.84446   0.25196   0.00000  Uiso   1.00
H538   H     0.42532   0.96637   0.07293   0.00000  Uiso   1.00
H539   H     0.38675   0.96668   0.11389   0.00000  Uiso   1.00
H540   H     0.60470   0.72482   0.20331   0.00000  Uiso   1.00
N541   N     0.49999   0.83332   0.28573   0.00000  Uiso   1.00
N542   N     0.50001   0.83334   0.04760   0.00000  Uiso   1.00
N543   N     0.65473   0.80490   0.10997   0.00000  Uiso   1.00
N544   N     0.34537   0.86238   0.22284   0.00000  Uiso   1.00
N545   N     0.42280   0.95700   0.10635   0.00000  Uiso   1.00
N546   N     0.58124   0.71031   0.22464   0.00000  Uiso   1.00
N547   N     0.57937   0.87626   0.29828   0.00000  Uiso   1.00
N548   N     0.42405   0.78887   0.03962   0.00000  Uiso   1.00
O549   O     0.50000   0.77225   0.20487   0.00000  Uiso   1.00
O550   O     0.42956   0.78520   0.27515   0.00000  Uiso   1.00
O551   O     0.50000   0.89442   0.12846   0.00000  Uiso   1.00
O552   O     0.50000   0.77226   0.12843   0.00000  Uiso   1.00
O553   O     0.50000   0.89441   0.20490   0.00000  Uiso   1.00
O554   O     0.42392   0.83333   0.19595   0.00000  Uiso   1.00
O555   O     0.57608   0.83334   0.13739   0.00000  Uiso   1.00
O556   O     0.42392   0.83334   0.11950   0.00000  Uiso   1.00
O557   O     0.57608   0.83333   0.21383   0.00000  Uiso   1.00
O558   O     0.57142   0.88074   0.05727   0.00000  Uiso   1.00
Zn559  Zn    0.50000   0.83333   0.21771   0.00000  Uiso   1.00
Zn560  Zn    0.50000   0.83334   0.11563   0.00000  Uiso   1.00
C561   C     0.83416   0.75351   0.16688   0.00000  Uiso   1.00
C562   C     0.87368   0.68794   0.19615   0.00000  Uiso   1.00
C563   C     0.83333   0.95734   0.16621   0.00000  Uiso   1.00
C564   C     0.83502   0.70940   0.16699   0.00000  Uiso   1.00
C565   C     0.86813   0.85759   0.02882   0.00000  Uiso   1.00
C566   C     0.79841   0.80871   0.30460   0.00000  Uiso   1.00
C567   C     0.86966   0.85617   0.31457   0.00000  Uiso   1.00
C568   C     0.79723   0.81009   0.01963   0.00000  Uiso   1.00
C569   C     0.89362   0.92403   0.05134   0.00000  Uiso   1.00
C570   C     0.93063   0.94883   0.08654   0.00000  Uiso   1.00
C571   C     0.92184   0.99608   0.08113   0.00000  Uiso   1.00
C572   C     0.83311   0.91319   0.16650   0.00000  Uiso   1.00
C573   C     0.76443   0.74117   0.28413   0.00000  Uiso   1.00
C574   C     0.81891   0.72246   0.30076   0.00000  Uiso   1.00
C575   C     0.81718   0.67452   0.29980   0.00000  Uiso   1.00
C576   C     0.73396   0.83329   0.15486   0.00000  Uiso   1.00
C577   C     0.93273   0.83346   0.17843   0.00000  Uiso   1.00
C578   C     0.67944   0.82764   0.14939   0.00000  Uiso   1.00
C579   C     0.98722   0.83943   0.18364   0.00000  Uiso   1.00
C580   C     0.79677   0.68880   0.13693   0.00000  Uiso   1.00
C581   C     0.87200   0.97790   0.19598   0.00000  Uiso   1.00
C582   C     0.79582   0.97893   0.13622   0.00000  Uiso   1.00
H583   H     0.76745   0.70626   0.11458   0.00000  Uiso   1.00
H584   H     0.93840   0.68941   0.24549   0.00000  Uiso   1.00
H585   H     0.85263   0.93076   0.05576   0.00000  Uiso   1.00
H586   H     0.89979   0.93506   0.01700   0.00000  Uiso   1.00
H587   H     0.92505   0.93886   0.12139   0.00000  Uiso   1.00
H588   H     0.97135   0.94176   0.08223   0.00000  Uiso   1.00
H589   H     0.93102   0.67373   0.04765   0.00000  Uiso   1.00
H590   H     0.94769   0.67962   0.10852   0.00000  Uiso   1.00
H591   H     0.88075   0.67045   0.08354   0.00000  Uiso   1.00
H592   H     0.74875   0.72573   0.25140   0.00000  Uiso   1.00
H593   H     0.73660   0.73244   0.30751   0.00000  Uiso   1.00
H594   H     0.90117   0.96013   0.21811   0.00000  Uiso   1.00
H595   H     0.84714   0.73386   0.27899   0.00000  Uiso   1.00
H596   H     0.83348   0.73225   0.00289   0.00000  Uiso   1.00
H597   H     0.79200   0.99561   0.32410   0.00000  Uiso   1.00
H598   H     0.85714   0.99552   0.30976   0.00000  Uiso   1.00
H599   H     0.80190   0.99647   0.26503   0.00000  Uiso   1.00
H600   H     0.93788   0.85300   0.29063   0.00000  Uiso   1.00
H601   H     0.89959   0.89453   0.26973   0.00000  Uiso   1.00
H602   H     0.76613   0.75698   0.04308   0.00000  Uiso   1.00
H603   H     0.72140   0.79301   0.01895   0.00000  Uiso   1.00
H604   H     0.67320   0.77592   0.10906   0.00000  Uiso   1.00
H605   H     0.99346   0.82195   0.08079   0.00000  Uiso   1.00
H606   H     0.99220   0.89060   0.22485   0.00000  Uiso   1.00
H607   H     0.67572   0.84446   0.25196   0.00000  Uiso   1.00
H608   H     0.75865   0.96637   0.07293   0.00000  Uiso   1.00
H609   H     0.72009   0.96668   0.11389   0.00000  Uiso   1.00
H610   H     0.93804   0.72482   0.20331   0.00000  Uiso   1.00
N611   N     0.83332   0.83332   0.28573   0.00000  Uiso   1.00
N612   N     0.83335   0.83334   0.04760   0.00000  Uiso   1.00
N613   N     0.98806   0.80490   0.10997   0.00000  Uiso   1.00
N614   N     0.67870   0.86238   0.22284   0.00000  Uiso   1.00
N615   N     0.75613   0.95700   0.10635   0.00000  Uiso   1.00
N616   N     0.91457   0.71031   0.22464   0.00000  Uiso   1.00
N617   N     0.91270   0.87626   0.29828   0.00000  Uiso   1.00
N618   N     0.75738   0.78887   0.03962   0.00000  Uiso   1.00
O619   O     0.83333   0.77225   0.20487   0.00000  Uiso   1.00
O620   O     0.76289   0.78520   0.27515   0.00000  Uiso   1.00
O621   O     0.83334   0.89442   0.12846   0.00000  Uiso   1.00
O622   O     0.83333   0.77226   0.12843   0.00000  Uiso   1.00
O623   O     0.83334   0.89441   0.20490   0.00000  Uiso   1.00
O624   O     0.75725   0.83333   0.19595   0.00000  Uiso   1.00
O625   O     0.90942   0.83334   0.13739   0.00000  Uiso   1.00
O626   O     0.75725   0.83334   0.11950   0.00000  Uiso   1.00
O627   O     0.90942   0.83333   0.21383   0.00000  Uiso   1.00
O628   O     0.90476   0.88074   0.05727   0.00000  Uiso   1.00
Zn629  Zn    0.83333   0.83333   0.21771   0.00000  Uiso   1.00
Zn630  Zn    0.83333   0.83334   0.11563   0.00000  Uiso   1.00
C631   C     0.16750   0.08684   0.50021   0.00000  Uiso   1.00
C632   C     0.20701   0.02128   0.52948   0.00000  Uiso   1.00
C633   C     0.16666   0.29068   0.49954   0.00000  Uiso   1.00
C634   C     0.16835   0.04273   0.50032   0.00000  Uiso   1.00
C635   C     0.20146   0.19092   0.36215   0.00000  Uiso   1.00
C636   C     0.13175   0.14204   0.63794   0.00000  Uiso   1.00
C637   C     0.20299   0.18950   0.64790   0.00000  Uiso   1.00
C638   C     0.13057   0.14342   0.35297   0.00000  Uiso   1.00
C639   C     0.22695   0.25736   0.38467   0.00000  Uiso   1.00
C640   C     0.26396   0.28216   0.41987   0.00000  Uiso   1.00
C641   C     0.25518   0.32942   0.41447   0.00000  Uiso   1.00
C642   C     0.16644   0.24652   0.49984   0.00000  Uiso   1.00
C643   C     0.09777   0.07450   0.61746   0.00000  Uiso   1.00
C644   C     0.15224   0.05580   0.63409   0.00000  Uiso   1.00
C645   C     0.15051   0.00785   0.63314   0.00000  Uiso   1.00
C646   C     0.06729   0.16662   0.48819   0.00000  Uiso   1.00
C647   C     0.26606   0.16680   0.51177   0.00000  Uiso   1.00
C648   C     0.01277   0.16097   0.48272   0.00000  Uiso   1.00
C649   C     0.32055   0.17277   0.51698   0.00000  Uiso   1.00
C650   C     0.13010   0.02214   0.47027   0.00000  Uiso   1.00
C651   C     0.20533   0.31123   0.52932   0.00000  Uiso   1.00
C652   C     0.12916   0.31226   0.46955   0.00000  Uiso   1.00
H653   H     0.10078   0.03959   0.44791   0.00000  Uiso   1.00
H654   H     0.27173   0.02274   0.57882   0.00000  Uiso   1.00
H655   H     0.18597   0.26409   0.38909   0.00000  Uiso   1.00
H656   H     0.23312   0.26839   0.35033   0.00000  Uiso   1.00
H657   H     0.25838   0.27219   0.45472   0.00000  Uiso   1.00
H658   H     0.30469   0.27509   0.41556   0.00000  Uiso   1.00
H659   H     0.26435   0.00707   0.38098   0.00000  Uiso   1.00
H660   H     0.28103   0.01296   0.44185   0.00000  Uiso   1.00
H661   H     0.21409   0.00379   0.41687   0.00000  Uiso   1.00
H662   H     0.08209   0.05906   0.58474   0.00000  Uiso   1.00
H663   H     0.06993   0.06577   0.64084   0.00000  Uiso   1.00
H664   H     0.23450   0.29347   0.55145   0.00000  Uiso   1.00
H665   H     0.18048   0.06720   0.61233   0.00000  Uiso   1.00
H666   H     0.16681   0.06558   0.33623   0.00000  Uiso   1.00
H667   H     0.12534   0.32895   0.65744   0.00000  Uiso   1.00
H668   H     0.19048   0.32885   0.64309   0.00000  Uiso   1.00
H669   H     0.13523   0.32980   0.59837   0.00000  Uiso   1.00
H670   H     0.27122   0.18633   0.62396   0.00000  Uiso   1.00
H671   H     0.23292   0.22786   0.60306   0.00000  Uiso   1.00
H672   H     0.09946   0.09031   0.37641   0.00000  Uiso   1.00
H673   H     0.05473   0.12634   0.35228   0.00000  Uiso   1.00
H674   H     0.00654   0.10925   0.44240   0.00000  Uiso   1.00
H675   H     0.32680   0.15528   0.41412   0.00000  Uiso   1.00
H676   H     0.32553   0.22393   0.55819   0.00000  Uiso   1.00
H677   H     0.00906   0.17779   0.58529   0.00000  Uiso   1.00
H678   H     0.09199   0.29970   0.40626   0.00000  Uiso   1.00
H679   H     0.05342   0.30001   0.44722   0.00000  Uiso   1.00
H680   H     0.27137   0.05816   0.53664   0.00000  Uiso   1.00
N681   N     0.16665   0.16666   0.61907   0.00000  Uiso   1.00
N682   N     0.16668   0.16668   0.38093   0.00000  Uiso   1.00
N683   N     0.32140   0.13823   0.44330   0.00000  Uiso   1.00
N684   N     0.01203   0.19572   0.55617   0.00000  Uiso   1.00
N685   N     0.08946   0.29033   0.43968   0.00000  Uiso   1.00
N686   N     0.24790   0.04365   0.55798   0.00000  Uiso   1.00
N687   N     0.24603   0.20959   0.63161   0.00000  Uiso   1.00
N688   N     0.09071   0.12221   0.37295   0.00000  Uiso   1.00
O689   O     0.16666   0.10558   0.53821   0.00000  Uiso   1.00
O690   O     0.09622   0.11854   0.60849   0.00000  Uiso   1.00
O691   O     0.16667   0.22775   0.46179   0.00000  Uiso   1.00
O692   O     0.16666   0.10559   0.46176   0.00000  Uiso   1.00
O693   O     0.16667   0.22774   0.53824   0.00000  Uiso   1.00
O694   O     0.09058   0.16666   0.52928   0.00000  Uiso   1.00
O695   O     0.24275   0.16667   0.47072   0.00000  Uiso   1.00
O696   O     0.09058   0.16667   0.45284   0.00000  Uiso   1.00
O697   O     0.24275   0.16666   0.54716   0.00000  Uiso   1.00
O698   O     0.23809   0.21408   0.39060   0.00000  Uiso   1.00
Zn699  Zn    0.16667   0.16666   0.55104   0.00000  Uiso   1.00
Zn700  Zn    0.16667   0.16667   0.44896   0.00000  Uiso   1.00
C701   C     0.50083   0.08684   0.50021   0.00000  Uiso   1.00
C702   C     0.54035   0.02128   0.52948   0.00000  Uiso   1.00
C703   C     0.50000   0.29068   0.49954   0.00000  Uiso   1.00
C704   C     0.50168   0.04273   0.50032   0.00000  Uiso   1.00
C705   C     0.53480   0.19092   0.36215   0.00000  Uiso   1.00
C706   C     0.46508   0.14204   0.63794   0.00000  Uiso   1.00
C707   C     0.53633   0.18950   0.64790   0.00000  Uiso   1.00
C708   C     0.46390   0.14342   0.35297   0.00000  Uiso   1.00
C709   C     0.56028   0.25736   0.38467   0.00000  Uiso   1.00
C710   C     0.59730   0.28216   0.41987   0.00000  Uiso   1.00
C711   C     0.58851   0.32942   0.41447   0.00000  Uiso   1.00
C712   C     0.49977   0.24652   0.49984   0.00000  Uiso   1.00
C713   C     0.43110   0.07450   0.61746   0.00000  Uiso   1.00
C714   C     0.48557   0.05580   0.63409   0.00000  Uiso   1.00
C715   C     0.48384   0.00785   0.63314   0.00000  Uiso   1.00
C716   C     0.40062   0.16662   0.48819   0.00000  Uiso   1.00
C717   C     0.59939   0.16680   0.51177   0.00000  Uiso   1.00
C718   C     0.34610   0.16097   0.48272   0.00000  Uiso   1.00
C719   C     0.65388   0.17277   0.51698   0.00000  Uiso   1.00
C720   C     0.46344   0.02214   0.47027   0.00000  Uiso   1.00
C721   C     0.53867   0.31123   0.52932   0.00000  Uiso   1.00
C722   C     0.46249   0.31226   0.46955   0.00000  Uiso   1.00
H723   H     0.43411   0.03959   0.44791   0.00000  Uiso   1.00
H724   H     0.60506   0.02274   0.57882   0.00000  Uiso   1.00
H725   H     0.51930   0.26409   0.38909   0.00000  Uiso   1.00
H726   H     0.56645   0.26839   0.35033   0.00000  Uiso   1.00
H727   H     0.59171   0.27219   0.45472   0.00000  Uiso   1.00
H728   H     0.63802   0.27509   0.41556   0.00000  Uiso   1.00
H729   H     0.59768   0.00707   0.38098   0.00000  Uiso   1.00
H730   H     0.61436   0.01296   0.44185   0.00000  Uiso   1.00
H731   H     0.54742   0.00379   0.41687   0.00000  Uiso   1.00
H732   H     0.41542   0.05906   0.58474   0.00000  Uiso   1.00
H733   H     0.40327   0.06577   0.64084   0.00000  Uiso   1.00
H734   H     0.56784   0.29347   0.55145   0.00000  Uiso   1.00
H735   H     0.51381   0.06720   0.61233   0.00000  Uiso   1.00
H736   H     0.50014   0.06558   0.33623   0.00000  Uiso   1.00
H737   H     0.45867   0.32895   0.65744   0.00000  Uiso   1.00
H738   H     0.52381   0.32885   0.64309   0.00000  Uiso   1.00
H739   H     0.46857   0.32980   0.59837   0.00000  Uiso   1.00
H740   H     0.60455   0.18633   0.62396   0.00000  Uiso   1.00
H741   H     0.56626   0.22786   0.60306   0.00000  Uiso   1.00
H742   H     0.43279   0.09031   0.37641   0.00000  Uiso   1.00
H743   H     0.38807   0.12634   0.35228   0.00000  Uiso   1.00
H744   H     0.33987   0.10925   0.44240   0.00000  Uiso   1.00
H745   H     0.66013   0.15528   0.41412   0.00000  Uiso   1.00
H746   H     0.65887   0.22393   0.55819   0.00000  Uiso   1.00
H747   H     0.34239   0.17779   0.58529   0.00000  Uiso   1.00
H748   H     0.42532   0.29970   0.40626   0.00000  Uiso   1.00
H749   H     0.38675   0.30001   0.44722   0.00000  Uiso   1.00
H750   H     0.60470   0.05816   0.53664   0.00000  Uiso   1.00
N751   N     0.49999   0.16666   0.61907   0.00000  Uiso   1.00
N752   N     0.50001   0.16668   0.38093   0.00000  Uiso   1.00
N753   N     0.65473   0.13823   0.44330   0.00000  Uiso   1.00
N754   N     0.34537   0.19572   0.55617   0.00000  Uiso   1.00
N755   N     0.42280   0.29033   0.43968   0.00000  Uiso   1.00
N756   N     0.58124   0.04365   0.55798   0.00000  Uiso   1.00
N757   N     0.57937   0.20959   0.63161   0.00000  Uiso   1.00
N758   N     0.42405   0.12221   0.37295   0.00000  Uiso   1.00
O759   O     0.50000   0.10558   0.53821   0.00000  Uiso   1.00
O760   O     0.42956   0.11854   0.60849   0.00000  Uiso   1.00
O761   O     0.50000   0.22775   0.46179   0.00000  Uiso   1.00
O762   O     0.50000   0.10559   0.46176   0.00000  Uiso   1.00
O763   O     0.50000   0.22774   0.53824   0.00000  Uiso   1.00
O764   O     0.42392   0.16666   0.52928   0.00000  Uiso   1.00
O765   O     0.57608   0.16667   0.47072   0.00000  Uiso   1.00
O766   O     0.42392   0.16667   0.45284   0.00000  Uiso   1.00
O767   O     0.57608   0.16666   0.54716   0.00000  Uiso   1.00
O768   O     0.57142   0.21408   0.39060   0.00000  Uiso   1.00
Zn769  Zn    0.50000   0.16666   0.55104   0.00000  Uiso   1.00
Zn770  Zn    0.50000   0.16667   0.44896   0.00000  Uiso   1.00
C771   C     0.83416   0.08684   0.50021   0.00000  Uiso   1.00
C772   C     0.87368   0.02128   0.52948   0.00000  Uiso   1.00
C773   C     0.83333   0.29068   0.49954   0.00000  Uiso   1.00
C774   C     0.83502   0.04273   0.50032   0.00000  Uiso   1.00
C775   C     0.86813   0.19092   0.36215   0.00000  Uiso   1.00
C776   C     0.79841   0.14204   0.63794   0.00000  Uiso   1.00
C777   C     0.86966   0.18950   0.64790   0.00000  Uiso   1.00
C778   C     0.79723   0.14342   0.35297   0.00000  Uiso   1.00
C779   C     0.89362   0.25736   0.38467   0.00000  Uiso   1.00
C780   C     0.93063   0.28216   0.41987   0.00000  Uiso   1.00
C781   C     0.92184   0.32942   0.41447   0.00000  Uiso   1.00
C782   C     0.83311   0.24652   0.49984   0.00000  Uiso   1.00
C783   C     0.76443   0.07450   0.61746   0.00000  Uiso   1.00
C784   C     0.81891   0.05580   0.63409   0.00000  Uiso   1.00
C785   C     0.81718   0.00785   0.63314   0.00000  Uiso   1.00
C786   C     0.73396   0.16662   0.48819   0.00000  Uiso   1.00
C787   C     0.93273   0.16680   0.51177   0.00000  Uiso   1.00
C788   C     0.67944   0.16097   0.48272   0.00000  Uiso   1.00
C789   C     0.98722   0.17277   0.51698   0.00000  Uiso   1.00
C790   C     0.79677   0.02214   0.47027   0.00000  Uiso   1.00
C791   C     0.87200   0.31123   0.52932   0.00000  Uiso   1.00
C792   C     0.79582   0.31226   0.46955   0.00000  Uiso   1.00
H793   H     0.76745   0.03959   0.44791   0.00000  Uiso   1.00
H794   H     0.93840   0.02274   0.57882   0.00000  Uiso   1.00
H795   H     0.85263   0.26409   0.38909   0.00000  Uiso   1.00
H796   H     0.89979   0.26839   0.35033   0.00000  Uiso   1.00
H797   H     0.92505   0.27219   0.45472   0.00000  Uiso   1.00
H798   H     0.97135   0.27509   0.41556   0.00000  Uiso   1.00
H799   H     0.93102   0.00707   0.38098   0.00000  Uiso   1.00
H800   H     0.94769   0.01296   0.44185   0.00000  Uiso   1.00
H801   H     0.88075   0.00379   0.41687   0.00000  Uiso   1.00
H802   H     0.74875   0.05906   0.58474   0.00000  Uiso   1.00
H803   H     0.73660   0.06577   0.64084   0.00000  Uiso   1.00
H804   H     0.90117   0.29347   0.55145   0.00000  Uiso   1.00
H805   H     0.84714   0.06720   0.61233   0.00000  Uiso   1.00
H806   H     0.83348   0.06558   0.33623   0.00000  Uiso   1.00
H807   H     0.79200   0.32895   0.65744   0.00000  Uiso   1.00
H808   H     0.85714   0.32885   0.64309   0.00000  Uiso   1.00
H809   H     0.80190   0.32980   0.59837   0.00000  Uiso   1.00
H810   H     0.93788   0.18633   0.62396   0.00000  Uiso   1.00
H811   H     0.89959   0.22786   0.60306   0.00000  Uiso   1.00
H812   H     0.76613   0.09031   0.37641   0.00000  Uiso   1.00
H813   H     0.72140   0.12634   0.35228   0.00000  Uiso   1.00
H814   H     0.67320   0.10925   0.44240   0.00000  Uiso   1.00
H815   H     0.99346   0.15528   0.41412   0.00000  Uiso   1.00
H816   H     0.99220   0.22393   0.55819   0.00000  Uiso   1.00
H817   H     0.67572   0.17779   0.58529   0.00000  Uiso   1.00
H818   H     0.75865   0.29970   0.40626   0.00000  Uiso   1.00
H819   H     0.72009   0.30001   0.44722   0.00000  Uiso   1.00
H820   H     0.93804   0.05816   0.53664   0.00000  Uiso   1.00
N821   N     0.83332   0.16666   0.61907   0.00000  Uiso   1.00
N822   N     0.83335   0.16668   0.38093   0.00000  Uiso   1.00
N823   N     0.98806   0.13823   0.44330   0.00000  Uiso   1.00
N824   N     0.67870   0.19572   0.55617   0.00000  Uiso   1.00
N825   N     0.75613   0.29033   0.43968   0.00000  Uiso   1.00
N826   N     0.91457   0.04365   0.55798   0.00000  Uiso   1.00
N827   N     0.91270   0.20959   0.63161   0.00000  Uiso   1.00
N828   N     0.75738   0.12221   0.37295   0.00000  Uiso   1.00
O829   O     0.83333   0.10558   0.53821   0.00000  Uiso   1.00
O830   O     0.76289   0.11854   0.60849   0.00000  Uiso   1.00
O831   O     0.83334   0.22775   0.46179   0.00000  Uiso   1.00
O832   O     0.83333   0.10559   0.46176   0.00000  Uiso   1.00
O833   O     0.83334   0.22774   0.53824   0.00000  Uiso   1.00
O834   O     0.75725   0.16666   0.52928   0.00000  Uiso   1.00
O835   O     0.90942   0.16667   0.47072   0.00000  Uiso   1.00
O836   O     0.75725   0.16667   0.45284   0.00000  Uiso   1.00
O837   O     0.90942   0.16666   0.54716   0.00000  Uiso   1.00
O838   O     0.90476   0.21408   0.39060   0.00000  Uiso   1.00
Zn839  Zn    0.83333   0.16666   0.55104   0.00000  Uiso   1.00
Zn840  Zn    0.83333   0.16667   0.44896   0.00000  Uiso   1.00
C841   C     0.16750   0.42017   0.50021   0.00000  Uiso   1.00
C842   C     0.20701   0.35461   0.52948   0.00000  Uiso   1.00
C843   C     0.16666   0.62401   0.49954   0.00000  Uiso   1.00
C844   C     0.16835   0.37607   0.50032   0.00000  Uiso   1.00
C845   C     0.20146   0.52426   0.36215   0.00000  Uiso   1.00
C846   C     0.13175   0.47538   0.63794   0.00000  Uiso   1.00
C847   C     0.20299   0.52283   0.64790   0.00000  Uiso   1.00
C848   C     0.13057   0.47675   0.35297   0.00000  Uiso   1.00
C849   C     0.22695   0.59070   0.38467   0.00000  Uiso   1.00
C850   C     0.26396   0.61549   0.41987   0.00000  Uiso   1.00
C851   C     0.25518   0.66275   0.41447   0.00000  Uiso   1.00
C852   C     0.16644   0.57986   0.49984   0.00000  Uiso   1.00
C853   C     0.09777   0.40783   0.61746   0.00000  Uiso   1.00
C854   C     0.15224   0.38913   0.63409   0.00000  Uiso   1.00
C855   C     0.15051   0.34119   0.63314   0.00000  Uiso   1.00
C856   C     0.06729   0.49995   0.48819   0.00000  Uiso   1.00
C857   C     0.26606   0.50013   0.51177   0.00000  Uiso   1.00
C858   C     0.01277   0.49430   0.48272   0.00000  Uiso   1.00
C859   C     0.32055   0.50610   0.51698   0.00000  Uiso   1.00
C860   C     0.13010   0.35547   0.47027   0.00000  Uiso   1.00
C861   C     0.20533   0.64456   0.52932   0.00000  Uiso   1.00
C862   C     0.12916   0.64559   0.46955   0.00000  Uiso   1.00
H863   H     0.10078   0.37293   0.44791   0.00000  Uiso   1.00
H864   H     0.27173   0.35607   0.57882   0.00000  Uiso   1.00
H865   H     0.18597   0.59743   0.38909   0.00000  Uiso   1.00
H866   H     0.23312   0.60172   0.35033   0.00000  Uiso   1.00
H867   H     0.25838   0.60553   0.45472   0.00000  Uiso   1.00
H868   H     0.30469   0.60843   0.41556   0.00000  Uiso   1.00
H869   H     0.26435   0.34040   0.38098   0.00000  Uiso   1.00
H870   H     0.28103   0.34629   0.44185   0.00000  Uiso   1.00
H871   H     0.21409   0.33712   0.41687   0.00000  Uiso   1.00
H872   H     0.08209   0.39240   0.58474   0.00000  Uiso   1.00
H873   H     0.06993   0.39910   0.64084   0.00000  Uiso   1.00
H874   H     0.23450   0.62680   0.55145   0.00000  Uiso   1.00
H875   H     0.18048   0.40053   0.61233   0.00000  Uiso   1.00
H876   H     0.16681   0.39892   0.33623   0.00000  Uiso   1.00
H877   H     0.12534   0.66228   0.65744   0.00000  Uiso   1.00
H878   H     0.19048   0.66219   0.64309   0.00000  Uiso   1.00
H879   H     0.13523   0.66314   0.59837   0.00000  Uiso   1.00
H880   H     0.27122   0.51966   0.62396   0.00000  Uiso   1.00
H881   H     0.23292   0.56119   0.60306   0.00000  Uiso   1.00
H882   H     0.09946   0.42365   0.37641   0.00000  Uiso   1.00
H883   H     0.05473   0.45968   0.35228   0.00000  Uiso   1.00
H884   H     0.00654   0.44259   0.44240   0.00000  Uiso   1.00
H885   H     0.32680   0.48862   0.41412   0.00000  Uiso   1.00
H886   H     0.32553   0.55727   0.55819   0.00000  Uiso   1.00
H887   H     0.00906   0.51112   0.58529   0.00000  Uiso   1.00
H888   H     0.09199   0.63304   0.40626   0.00000  Uiso   1.00
H889   H     0.05342   0.63335   0.44722   0.00000  Uiso   1.00
H890   H     0.27137   0.39149   0.53664   0.00000  Uiso   1.00
N891   N     0.16665   0.49999   0.61907   0.00000  Uiso   1.00
N892   N     0.16668   0.50001   0.38093   0.00000  Uiso   1.00
N893   N     0.32140   0.47156   0.44330   0.00000  Uiso   1.00
N894   N     0.01203   0.52905   0.55617   0.00000  Uiso   1.00
N895   N     0.08946   0.62367   0.43968   0.00000  Uiso   1.00
N896   N     0.24790   0.37698   0.55798   0.00000  Uiso   1.00
N897   N     0.24603   0.54293   0.63161   0.00000  Uiso   1.00
N898   N     0.09071   0.45554   0.37295   0.00000  Uiso   1.00
O899   O     0.16666   0.43892   0.53821   0.00000  Uiso   1.00
O900   O     0.09622   0.45187   0.60849   0.00000  Uiso   1.00
O901   O     0.16667   0.56108   0.46179   0.00000  Uiso   1.00
O902   O     0.16666   0.43893   0.46176   0.00000  Uiso   1.00
O903   O     0.16667   0.56107   0.53824   0.00000  Uiso   1.00
O904   O     0.09058   0.50000   0.52928   0.00000  Uiso   1.00
O905   O     0.24275   0.50000   0.47072   0.00000  Uiso   1.00
O906   O     0.09058   0.50000   0.45284   0.00000  Uiso   1.00
O907   O     0.24275   0.50000   0.54716   0.00000  Uiso   1.00
O908   O     0.23809   0.54741   0.39060   0.00000  Uiso   1.00
Zn909  Zn    0.16667   0.49999   0.55104   0.00000  Uiso   1.00
Zn910  Zn    0.16667   0.50001   0.44896   0.00000  Uiso   1.00
C911   C     0.50083   0.42017   0.50021   0.00000  Uiso   1.00
C912   C     0.54035   0.35461   0.52948   0.00000  Uiso   1.00
C913   C     0.50000   0.62401   0.49954   0.00000  Uiso   1.00
C914   C     0.50168   0.37607   0.50032   0.00000  Uiso   1.00
C915   C     0.53480   0.52426   0.36215   0.00000  Uiso   1.00
C916   C     0.46508   0.47538   0.63794   0.00000  Uiso   1.00
C917   C     0.53633   0.52283   0.64790   0.00000  Uiso   1.00
C918   C     0.46390   0.47675   0.35297   0.00000  Uiso   1.00
C919   C     0.56028   0.59070   0.38467   0.00000  Uiso   1.00
C920   C     0.59730   0.61549   0.41987   0.00000  Uiso   1.00
C921   C     0.58851   0.66275   0.41447   0.00000  Uiso   1.00
C922   C     0.49977   0.57986   0.49984   0.00000  Uiso   1.00
C923   C     0.43110   0.40783   0.61746   0.00000  Uiso   1.00
C924   C     0.48557   0.38913   0.63409   0.00000  Uiso   1.00
C925   C     0.48384   0.34119   0.63314   0.00000  Uiso   1.00
C926   C     0.40062   0.49995   0.48819   0.00000  Uiso   1.00
C927   C     0.59939   0.50013   0.51177   0.00000  Uiso   1.00
C928   C     0.34610   0.49430   0.48272   0.00000  Uiso   1.00
C929   C     0.65388   0.50610   0.51698   0.00000  Uiso   1.00
C930   C     0.46344   0.35547   0.47027   0.00000  Uiso   1.00
C931   C     0.53867   0.64456   0.52932   0.00000  Uiso   1.00
C932   C     0.46249   0.64559   0.46955   0.00000  Uiso   1.00
H933   H     0.43411   0.37293   0.44791   0.00000  Uiso   1.00
H934   H     0.60506   0.35607   0.57882   0.00000  Uiso   1.00
H935   H     0.51930   0.59743   0.38909   0.00000  Uiso   1.00
H936   H     0.56645   0.60172   0.35033   0.00000  Uiso   1.00
H937   H     0.59171   0.60553   0.45472   0.00000  Uiso   1.00
H938   H     0.63802   0.60843   0.41556   0.00000  Uiso   1.00
H939   H     0.59768   0.34040   0.38098   0.00000  Uiso   1.00
H940   H     0.61436   0.34629   0.44185   0.00000  Uiso   1.00
H941   H     0.54742   0.33712   0.41687   0.00000  Uiso   1.00
H942   H     0.41542   0.39240   0.58474   0.00000  Uiso   1.00
H943   H     0.40327   0.39910   0.64084   0.00000  Uiso   1.00
H944   H     0.56784   0.62680   0.55145   0.00000  Uiso   1.00
H945   H     0.51381   0.40053   0.61233   0.00000  Uiso   1.00
H946   H     0.50014   0.39892   0.33623   0.00000  Uiso   1.00
H947   H     0.45867   0.66228   0.65744   0.00000  Uiso   1.00
H948   H     0.52381   0.66219   0.64309   0.00000  Uiso   1.00
H949   H     0.46857   0.66314   0.59837   0.00000  Uiso   1.00
H950   H     0.60455   0.51966   0.62396   0.00000  Uiso   1.00
H951   H     0.56626   0.56119   0.60306   0.00000  Uiso   1.00
H952   H     0.43279   0.42365   0.37641   0.00000  Uiso   1.00
H953   H     0.38807   0.45968   0.35228   0.00000  Uiso   1.00
H954   H     0.33987   0.44259   0.44240   0.00000  Uiso   1.00
H955   H     0.66013   0.48862   0.41412   0.00000  Uiso   1.00
H956   H     0.65887   0.55727   0.55819   0.00000  Uiso   1.00
H957   H     0.34239   0.51112   0.58529   0.00000  Uiso   1.00
H958   H     0.42532   0.63304   0.40626   0.00000  Uiso   1.00
H959   H     0.38675   0.63335   0.44722   0.00000  Uiso   1.00
H960   H     0.60470   0.39149   0.53664   0.00000  Uiso   1.00
N961   N     0.49999   0.49999   0.61907   0.00000  Uiso   1.00
N962   N     0.50001   0.50001   0.38093   0.00000  Uiso   1.00
N963   N     0.65473   0.47156   0.44330   0.00000  Uiso   1.00
N964   N     0.34537   0.52905   0.55617   0.00000  Uiso   1.00
N965   N     0.42280   0.62367   0.43968   0.00000  Uiso   1.00
N966   N     0.58124   0.37698   0.55798   0.00000  Uiso   1.00
N967   N     0.57937   0.54293   0.63161   0.00000  Uiso   1.00
N968   N     0.42405   0.45554   0.37295   0.00000  Uiso   1.00
O969   O     0.50000   0.43892   0.53821   0.00000  Uiso   1.00
O970   O     0.42956   0.45187   0.60849   0.00000  Uiso   1.00
O971   O     0.50000   0.56108   0.46179   0.00000  Uiso   1.00
O972   O     0.50000   0.43893   0.46176   0.00000  Uiso   1.00
O973   O     0.50000   0.56107   0.53824   0.00000  Uiso   1.00
O974   O     0.42392   0.50000   0.52928   0.00000  Uiso   1.00
O975   O     0.57608   0.50000   0.47072   0.00000  Uiso   1.00
O976   O     0.42392   0.50000   0.45284   0.00000  Uiso   1.00
O977   O     0.57608   0.50000   0.54716   0.00000  Uiso   1.00
O978   O     0.57142   0.54741   0.39060   0.00000  Uiso   1.00
Zn979  Zn    0.50000   0.49999   0.55104   0.00000  Uiso   1.00
Zn980  Zn    0.50000   0.50001   0.44896   0.00000  Uiso   1.00
C981   C     0.83416   0.42017   0.50021   0.00000  Uiso   1.00
C982   C     0.87368   0.35461   0.52948   0.00000  Uiso   1.00
C983   C     0.83333   0.62401   0.49954   0.00000  Uiso   1.00
C984   C     0.83502   0.37607   0.50032   0.00000  Uiso   1.00
C985   C     0.86813   0.52426   0.36215   0.00000  Uiso   1.00
C986   C     0.79841   0.47538   0.63794   0.00000  Uiso   1.00
C987   C     0.86966   0.52283   0.64790   0.00000  Uiso   1.00
C988   C     0.79723   0.47675   0.35297   0.00000  Uiso   1.00
C989   C     0.89362   0.59070   0.38467   0.00000  Uiso   1.00
C990   C     0.93063   0.61549   0.41987   0.00000  Uiso   1.00
C991   C     0.92184   0.66275   0.41447   0.00000  Uiso   1.00
C992   C     0.83311   0.57986   0.49984   0.00000  Uiso   1.00
C993   C     0.76443   0.40783   0.61746   0.00000  Uiso   1.00
C994   C     0.81891   0.38913   0.63409   0.00000  Uiso   1.00
C995   C     0.81718   0.34119   0.63314   0.00000  Uiso   1.00
C996   C     0.73396   0.49995   0.48819   0.00000  Uiso   1.00
C997   C     0.93273   0.50013   0.51177   0.00000  Uiso   1.00
C998   C     0.67944   0.49430   0.48272   0.00000  Uiso   1.00
C999   C     0.98722   0.50610   0.51698   0.00000  Uiso   1.00
C1000  C     0.79677   0.35547   0.47027   0.00000  Uiso   1.00
C1001  C     0.87200   0.64456   0.52932   0.00000  Uiso   1.00
C1002  C     0.79582   0.64559   0.46955   0.00000  Uiso   1.00
H1003  H     0.76745   0.37293   0.44791   0.00000  Uiso   1.00
H1004  H     0.93840   0.35607   0.57882   0.00000  Uiso   1.00
H1005  H     0.85263   0.59743   0.38909   0.00000  Uiso   1.00
H1006  H     0.89979   0.60172   0.35033   0.00000  Uiso   1.00
H1007  H     0.92505   0.60553   0.45472   0.00000  Uiso   1.00
H1008  H     0.97135   0.60843   0.41556   0.00000  Uiso   1.00
H1009  H     0.93102   0.34040   0.38098   0.00000  Uiso   1.00
H1010  H     0.94769   0.34629   0.44185   0.00000  Uiso   1.00
H1011  H     0.88075   0.33712   0.41687   0.00000  Uiso   1.00
H1012  H     0.74875   0.39240   0.58474   0.00000  Uiso   1.00
H1013  H     0.73660   0.39910   0.64084   0.00000  Uiso   1.00
H1014  H     0.90117   0.62680   0.55145   0.00000  Uiso   1.00
H1015  H     0.84714   0.40053   0.61233   0.00000  Uiso   1.00
H1016  H     0.83348   0.39892   0.33623   0.00000  Uiso   1.00
H1017  H     0.79200   0.66228   0.65744   0.00000  Uiso   1.00
H1018  H     0.85714   0.66219   0.64309   0.00000  Uiso   1.00
H1019  H     0.80190   0.66314   0.59837   0.00000  Uiso   1.00
H1020  H     0.93788   0.51966   0.62396   0.00000  Uiso   1.00
H1021  H     0.89959   0.56119   0.60306   0.00000  Uiso   1.00
H1022  H     0.76613   0.42365   0.37641   0.00000  Uiso   1.00
H1023  H     0.72140   0.45968   0.35228   0.00000  Uiso   1.00
H1024  H     0.67320   0.44259   0.44240   0.00000  Uiso   1.00
H1025  H     0.99346   0.48862   0.41412   0.00000  Uiso   1.00
H1026  H     0.99220   0.55727   0.55819   0.00000  Uiso   1.00
H1027  H     0.67572   0.51112   0.58529   0.00000  Uiso   1.00
H1028  H     0.75865   0.63304   0.40626   0.00000  Uiso   1.00
H1029  H     0.72009   0.63335   0.44722   0.00000  Uiso   1.00
H1030  H     0.93804   0.39149   0.53664   0.00000  Uiso   1.00
N1031  N     0.83332   0.49999   0.61907   0.00000  Uiso   1.00
N1032  N     0.83335   0.50001   0.38093   0.00000  Uiso   1.00
N1033  N     0.98806   0.47156   0.44330   0.00000  Uiso   1.00
N1034  N     0.67870   0.52905   0.55617   0.00000  Uiso   1.00
N1035  N     0.75613   0.62367   0.43968   0.00000  Uiso   1.00
N1036  N     0.91457   0.37698   0.55798   0.00000  Uiso   1.00
N1037  N     0.91270   0.54293   0.63161   0.00000  Uiso   1.00
N1038  N     0.75738   0.45554   0.37295   0.00000  Uiso   1.00
O1039  O     0.83333   0.43892   0.53821   0.00000  Uiso   1.00
O1040  O     0.76289   0.45187   0.60849   0.00000  Uiso   1.00
O1041  O     0.83334   0.56108   0.46179   0.00000  Uiso   1.00
O1042  O     0.83333   0.43893   0.46176   0.00000  Uiso   1.00
O1043  O     0.83334   0.56107   0.53824   0.00000  Uiso   1.00
O1044  O     0.75725   0.50000   0.52928   0.00000  Uiso   1.00
O1045  O     0.90942   0.50000   0.47072   0.00000  Uiso   1.00
O1046  O     0.75725   0.50000   0.45284   0.00000  Uiso   1.00
O1047  O     0.90942   0.50000   0.54716   0.00000  Uiso   1.00
O1048  O     0.90476   0.54741   0.39060   0.00000  Uiso   1.00
Zn1049 Zn    0.83333   0.49999   0.55104   0.00000  Uiso   1.00
Zn1050 Zn    0.83333   0.50001   0.44896   0.00000  Uiso   1.00
C1051  C     0.16750   0.75351   0.50021   0.00000  Uiso   1.00
C1052  C     0.20701   0.68794   0.52948   0.00000  Uiso   1.00
C1053  C     0.16666   0.95734   0.49954   0.00000  Uiso   1.00
C1054  C     0.16835   0.70940   0.50032   0.00000  Uiso   1.00
C1055  C     0.20146   0.85759   0.36215   0.00000  Uiso   1.00
C1056  C     0.13175   0.80871   0.63794   0.00000  Uiso   1.00
C1057  C     0.20299   0.85617   0.64790   0.00000  Uiso   1.00
C1058  C     0.13057   0.81009   0.35297   0.00000  Uiso   1.00
C1059  C     0.22695   0.92403   0.38467   0.00000  Uiso   1.00
C1060  C     0.26396   0.94883   0.41987   0.00000  Uiso   1.00
C1061  C     0.25518   0.99608   0.41447   0.00000  Uiso   1.00
C1062  C     0.16644   0.91319   0.49984   0.00000  Uiso   1.00
C1063  C     0.09777   0.74117   0.61746   0.00000  Uiso   1.00
C1064  C     0.15224   0.72246   0.63409   0.00000  Uiso   1.00
C1065  C     0.15051   0.67452   0.63314   0.00000  Uiso   1.00
C1066  C     0.06729   0.83329   0.48819   0.00000  Uiso   1.00
C1067  C     0.26606   0.83346   0.51177   0.00000  Uiso   1.00
C1068  C     0.01277   0.82764   0.48272   0.00000  Uiso   1.00
C1069  C     0.32055   0.83943   0.51698   0.00000  Uiso   1.00
C1070  C     0.13010   0.68880   0.47027   0.00000  Uiso   1.00
C1071  C     0.20533   0.97790   0.52932   0.00000  Uiso   1.00
C1072  C     0.12916   0.97893   0.46955   0.00000  Uiso   1.00
H1073  H     0.10078   0.70626   0.44791   0.00000  Uiso   1.00
H1074  H     0.27173   0.68941   0.57882   0.00000  Uiso   1.00
H1075  H     0.18597   0.93076   0.38909   0.00000  Uiso   1.00
H1076  H     0.23312   0.93506   0.35033   0.00000  Uiso   1.00
H1077  H     0.25838   0.93886   0.45472   0.00000  Uiso   1.00
H1078  H     0.30469   0.94176   0.41556   0.00000  Uiso   1.00
H1079  H     0.26435   0.67373   0.38098   0.00000  Uiso   1.00
H1080  H     0.28103   0.67962   0.44185   0.00000  Uiso   1.00
H1081  H     0.21409   0.67045   0.41687   0.00000  Uiso   1.00
H1082  H     0.08209   0.72573   0.58474   0.00000  Uiso   1.00
H1083  H     0.06993   0.73244   0.64084   0.00000  Uiso   1.00
H1084  H     0.23450   0.96013   0.55145   0.00000  Uiso   1.00
H1085  H     0.18048   0.73386   0.61233   0.00000  Uiso   1.00
H1086  H     0.16681   0.73225   0.33623   0.00000  Uiso   1.00
H1087  H     0.12534   0.99561   0.65744   0.00000  Uiso   1.00
H1088  H     0.19048   0.99552   0.64309   0.00000  Uiso   1.00
H1089  H     0.13523   0.99647   0.59837   0.00000  Uiso   1.00
H1090  H     0.27122   0.85300   0.62396   0.00000  Uiso   1.00
H1091  H     0.23292   0.89453   0.60306   0.00000  Uiso   1.00
H1092  H     0.09946   0.75698   0.37641   0.00000  Uiso   1.00
H1093  H     0.05473   0.79301   0.35228   0.00000  Uiso   1.00
H1094  H     0.00654   0.77592   0.44240   0.00000  Uiso   1.00
H1095  H     0.32680   0.82195   0.41412   0.00000  Uiso   1.00
H1096  H     0.32553   0.89060   0.55819   0.00000  Uiso   1.00
H1097  H     0.00906   0.84446   0.58529   0.00000  Uiso   1.00
H1098  H     0.09199   0.96637   0.40626   0.00000  Uiso   1.00
H1099  H     0.05342   0.96668   0.44722   0.00000  Uiso   1.00
H1100  H     0.27137   0.72482   0.53664   0.00000  Uiso   1.00
N1101  N     0.16665   0.83332   0.61907   0.00000  Uiso   1.00
N1102  N     0.16668   0.83334   0.38093   0.00000  Uiso   1.00
N1103  N     0.32140   0.80490   0.44330   0.00000  Uiso   1.00
N1104  N     0.01203   0.86238   0.55617   0.00000  Uiso   1.00
N1105  N     0.08946   0.95700   0.43968   0.00000  Uiso   1.00
N1106  N     0.24790   0.71031   0.55798   0.00000  Uiso   1.00
N1107  N     0.24603   0.87626   0.63161   0.00000  Uiso   1.00
N1108  N     0.09071   0.78887   0.37295   0.00000  Uiso   1.00
O1109  O     0.16666   0.77225   0.53821   0.00000  Uiso   1.00
O1110  O     0.09622   0.78520   0.60849   0.00000  Uiso   1.00
O1111  O     0.16667   0.89442   0.46179   0.00000  Uiso   1.00
O1112  O     0.16666   0.77226   0.46176   0.00000  Uiso   1.00
O1113  O     0.16667   0.89441   0.53824   0.00000  Uiso   1.00
O1114  O     0.09058   0.83333   0.52928   0.00000  Uiso   1.00
O1115  O     0.24275   0.83334   0.47072   0.00000  Uiso   1.00
O1116  O     0.09058   0.83334   0.45284   0.00000  Uiso   1.00
O1117  O     0.24275   0.83333   0.54716   0.00000  Uiso   1.00
O1118  O     0.23809   0.88074   0.39060   0.00000  Uiso   1.00
Zn1119 Zn    0.16667   0.83333   0.55104   0.00000  Uiso   1.00
Zn1120 Zn    0.16667   0.83334   0.44896   0.00000  Uiso   1.00
C1121  C     0.50083   0.75351   0.50021   0.00000  Uiso   1.00
C1122  C     0.54035   0.68794   0.52948   0.00000  Uiso   1.00
C1123  C     0.50000   0.95734   0.49954   0.00000  Uiso   1.00
C1124  C     0.50168   0.70940   0.50032   0.00000  Uiso   1.00
C1125  C     0.53480   0.85759   0.36215   0.00000  Uiso   1.00
C1126  C     0.46508   0.80871   0.63794   0.00000  Uiso   1.00
C1127  C     0.53633   0.85617   0.64790   0.00000  Uiso   1.00
C1128  C     0.46390   0.81009   0.35297   0.00000  Uiso   1.00
C1129  C     0.56028   0.92403   0.38467   0.00000  Uiso   1.00
C1130  C     0.59730   0.94883   0.41987   0.00000  Uiso   1.00
C1131  C     0.58851   0.99608   0.41447   0.00000  Uiso   1.00
C1132  C     0.49977   0.91319   0.49984   0.00000  Uiso   1.00
C1133  C     0.43110   0.74117   0.61746   0.00000  Uiso   1.00
C1134  C     0.48557   0.72246   0.63409   0.00000  Uiso   1.00
C1135  C     0.48384   0.67452   0.63314   0.00000  Uiso   1.00
C1136  C     0.40062   0.83329   0.48819   0.00000  Uiso   1.00
C1137  C     0.59939   0.83346   0.51177   0.00000  Uiso   1.00
C1138  C     0.34610   0.82764   0.48272   0.00000  Uiso   1.00
C1139  C     0.65388   0.83943   0.51698   0.00000  Uiso   1.00
C1140  C     0.46344   0.68880   0.47027   0.00000  Uiso   1.00
C1141  C     0.53867   0.97790   0.52932   0.00000  Uiso   1.00
C1142  C     0.46249   0.97893   0.46955   0.00000  Uiso   1.00
H1143  H     0.43411   0.70626   0.44791   0.00000  Uiso   1.00
H1144  H     0.60506   0.68941   0.57882   0.00000  Uiso   1.00
H1145  H     0.51930   0.93076   0.38909   0.00000  Uiso   1.00
H1146  H     0.56645   0.93506   0.35033   0.00000  Uiso   1.00
H1147  H     0.59171   0.93886   0.45472   0.00000  Uiso   1.00
H1148  H     0.63802   0.94176   0.41556   0.00000  Uiso   1.00
H1149  H     0.59768   0.67373   0.38098   0.00000  Uiso   1.00
H1150  H     0.61436   0.67962   0.44185   0.00000  Uiso   1.00
H1151  H     0.54742   0.67045   0.41687   0.00000  Uiso   1.00
H1152  H     0.41542   0.72573   0.58474   0.00000  Uiso   1.00
H1153  H     0.40327   0.73244   0.64084   0.00000  Uiso   1.00
H1154  H     0.56784   0.96013   0.55145   0.00000  Uiso   1.00
H1155  H     0.51381   0.73386   0.61233   0.00000  Uiso   1.00
H1156  H     0.50014   0.73225   0.33623   0.00000  Uiso   1.00
H1157  H     0.45867   0.99561   0.65744   0.00000  Uiso   1.00
H1158  H     0.52381   0.99552   0.64309   0.00000  Uiso   1.00
H1159  H     0.46857   0.99647   0.59837   0.00000  Uiso   1.00
H1160  H     0.60455   0.85300   0.62396   0.00000  Uiso   1.00
H1161  H     0.56626   0.89453   0.60306   0.00000  Uiso   1.00
H1162  H     0.43279   0.75698   0.37641   0.00000  Uiso   1.00
H1163  H     0.38807   0.79301   0.35228   0.00000  Uiso   1.00
H1164  H     0.33987   0.77592   0.44240   0.00000  Uiso   1.00
H1165  H     0.66013   0.82195   0.41412   0.00000  Uiso   1.00
H1166  H     0.65887   0.89060   0.55819   0.00000  Uiso   1.00
H1167  H     0.34239   0.84446   0.58529   0.00000  Uiso   1.00
H1168  H     0.42532   0.96637   0.40626   0.00000  Uiso   1.00
H1169  H     0.38675   0.96668   0.44722   0.00000  Uiso   1.00
H1170  H     0.60470   0.72482   0.53664   0.00000  Uiso   1.00
N1171  N     0.49999   0.83332   0.61907   0.00000  Uiso   1.00
N1172  N     0.50001   0.83334   0.38093   0.00000  Uiso   1.00
N1173  N     0.65473   0.80490   0.44330   0.00000  Uiso   1.00
N1174  N     0.34537   0.86238   0.55617   0.00000  Uiso   1.00
N1175  N     0.42280   0.95700   0.43968   0.00000  Uiso   1.00
N1176  N     0.58124   0.71031   0.55798   0.00000  Uiso   1.00
N1177  N     0.57937   0.87626   0.63161   0.00000  Uiso   1.00
N1178  N     0.42405   0.78887   0.37295   0.00000  Uiso   1.00
O1179  O     0.50000   0.77225   0.53821   0.00000  Uiso   1.00
O1180  O     0.42956   0.78520   0.60849   0.00000  Uiso   1.00
O1181  O     0.50000   0.89442   0.46179   0.00000  Uiso   1.00
O1182  O     0.50000   0.77226   0.46176   0.00000  Uiso   1.00
O1183  O     0.50000   0.89441   0.53824   0.00000  Uiso   1.00
O1184  O     0.42392   0.83333   0.52928   0.00000  Uiso   1.00
O1185  O     0.57608   0.83334   0.47072   0.00000  Uiso   1.00
O1186  O     0.42392   0.83334   0.45284   0.00000  Uiso   1.00
O1187  O     0.57608   0.83333   0.54716   0.00000  Uiso   1.00
O1188  O     0.57142   0.88074   0.39060   0.00000  Uiso   1.00
Zn1189 Zn    0.50000   0.83333   0.55104   0.00000  Uiso   1.00
Zn1190 Zn    0.50000   0.83334   0.44896   0.00000  Uiso   1.00
C1191  C     0.83416   0.75351   0.50021   0.00000  Uiso   1.00
C1192  C     0.87368   0.68794   0.52948   0.00000  Uiso   1.00
C1193  C     0.83333   0.95734   0.49954   0.00000  Uiso   1.00
C1194  C     0.83502   0.70940   0.50032   0.00000  Uiso   1.00
C1195  C     0.86813   0.85759   0.36215   0.00000  Uiso   1.00
C1196  C     0.79841   0.80871   0.63794   0.00000  Uiso   1.00
C1197  C     0.86966   0.85617   0.64790   0.00000  Uiso   1.00
C1198  C     0.79723   0.81009   0.35297   0.00000  Uiso   1.00
C1199  C     0.89362   0.92403   0.38467   0.00000  Uiso   1.00
C1200  C     0.93063   0.94883   0.41987   0.00000  Uiso   1.00
C1201  C     0.92184   0.99608   0.41447   0.00000  Uiso   1.00
C1202  C     0.83311   0.91319   0.49984   0.00000  Uiso   1.00
C1203  C     0.76443   0.74117   0.61746   0.00000  Uiso   1.00
C1204  C     0.81891   0.72246   0.63409   0.00000  Uiso   1.00
C1205  C     0.81718   0.67452   0.63314   0.00000  Uiso   1.00
C1206  C     0.73396   0.83329   0.48819   0.00000  Uiso   1.00
C1207  C     0.93273   0.83346   0.51177   0.00000  Uiso   1.00
C1208  C     0.67944   0.82764   0.48272   0.00000  Uiso   1.00
C1209  C     0.98722   0.83943   0.51698   0.00000  Uiso   1.00
C1210  C     0.79677   0.68880   0.47027   0.00000  Uiso   1.00
C1211  C     0.87200   0.97790   0.52932   0.00000  Uiso   1.00
C1212  C     0.79582   0.97893   0.46955   0.00000  Uiso   1.00
H1213  H     0.76745   0.70626   0.44791   0.00000  Uiso   1.00
H1214  H     0.93840   0.68941   0.57882   0.00000  Uiso   1.00
H1215  H     0.85263   0.93076   0.38909   0.00000  Uiso   1.00
H1216  H     0.89979   0.93506   0.35033   0.00000  Uiso   1.00
H1217  H     0.92505   0.93886   0.45472   0.00000  Uiso   1.00
H1218  H     0.97135   0.94176   0.41556   0.00000  Uiso   1.00
H1219  H     0.93102   0.67373   0.38098   0.00000  Uiso   1.00
H1220  H     0.94769   0.67962   0.44185   0.00000  Uiso   1.00
H1221  H     0.88075   0.67045   0.41687   0.00000  Uiso   1.00
H1222  H     0.74875   0.72573   0.58474   0.00000  Uiso   1.00
H1223  H     0.73660   0.73244   0.64084   0.00000  Uiso   1.00
H1224  H     0.90117   0.96013   0.55145   0.00000  Uiso   1.00
H1225  H     0.84714   0.73386   0.61233   0.00000  Uiso   1.00
H1226  H     0.83348   0.73225   0.33623   0.00000  Uiso   1.00
H1227  H     0.79200   0.99561   0.65744   0.00000  Uiso   1.00
H1228  H     0.85714   0.99552   0.64309   0.00000  Uiso   1.00
H1229  H     0.80190   0.99647   0.59837   0.00000  Uiso   1.00
H1230  H     0.93788   0.85300   0.62396   0.00000  Uiso   1.00
H1231  H     0.89959   0.89453   0.60306   0.00000  Uiso   1.00
H1232  H     0.76613   0.75698   0.37641   0.00000  Uiso   1.00
H1233  H     0.72140   0.79301   0.35228   0.00000  Uiso   1.00
H1234  H     0.67320   0.77592   0.44240   0.00000  Uiso   1.00
H1235  H     0.99346   0.82195   0.41412   0.00000  Uiso   1.00
H1236  H     0.99220   0.89060   0.55819   0.00000  Uiso   1.00
H1237  H     0.67572   0.84446   0.58529   0.00000  Uiso   1.00
H1238  H     0.75865   0.96637   0.40626   0.00000  Uiso   1.00
H1239  H     0.72009   0.96668   0.44722   0.00000  Uiso   1.00
H1240  H     0.93804   0.72482   0.53664   0.00000  Uiso   1.00
N1241  N     0.83332   0.83332   0.61907   0.00000  Uiso   1.00
N1242  N     0.83335   0.83334   0.38093   0.00000  Uiso   1.00
N1243  N     0.98806   0.80490   0.44330   0.00000  Uiso   1.00
N1244  N     0.67870   0.86238   0.55617   0.00000  Uiso   1.00
N1245  N     0.75613   0.95700   0.43968   0.00000  Uiso   1.00
N1246  N     0.91457   0.71031   0.55798   0.00000  Uiso   1.00
N1247  N     0.91270   0.87626   0.63161   0.00000  Uiso   1.00
N1248  N     0.75738   0.78887   0.37295   0.00000  Uiso   1.00
O1249  O     0.83333   0.77225   0.53821   0.00000  Uiso   1.00
O1250  O     0.76289   0.78520   0.60849   0.00000  Uiso   1.00
O1251  O     0.83334   0.89442   0.46179   0.00000  Uiso   1.00
O1252  O     0.83333   0.77226   0.46176   0.00000  Uiso   1.00
O1253  O     0.83334   0.89441   0.53824   0.00000  Uiso   1.00
O1254  O     0.75725   0.83333   0.52928   0.00000  Uiso   1.00
O1255  O     0.90942   0.83334   0.47072   0.00000  Uiso   1.00
O1256  O     0.75725   0.83334   0.45284   0.00000  Uiso   1.00
O1257  O     0.90942   0.83333   0.54716   0.00000  Uiso   1.00
O1258  O     0.90476   0.88074   0.39060   0.00000  Uiso   1.00
Zn1259 Zn    0.83333   0.83333   0.55104   0.00000  Uiso   1.00
Zn1260 Zn    0.83333   0.83334   0.44896   0.00000  Uiso   1.00
C1261  C     0.16750   0.08684   0.83354   0.00000  Uiso   1.00
C1262  C     0.20701   0.02128   0.86282   0.00000  Uiso   1.00
C1263  C     0.16666   0.29068   0.83287   0.00000  Uiso   1.00
C1264  C     0.16835   0.04273   0.83366   0.00000  Uiso   1.00
C1265  C     0.20146   0.19092   0.69549   0.00000  Uiso   1.00
C1266  C     0.13175   0.14204   0.97127   0.00000  Uiso   1.00
C1267  C     0.20299   0.18950   0.98123   0.00000  Uiso   1.00
C1268  C     0.13057   0.14342   0.68630   0.00000  Uiso   1.00
C1269  C     0.22695   0.25736   0.71801   0.00000  Uiso   1.00
C1270  C     0.26396   0.28216   0.75321   0.00000  Uiso   1.00
C1271  C     0.25518   0.32942   0.74780   0.00000  Uiso   1.00
C1272  C     0.16644   0.24652   0.83317   0.00000  Uiso   1.00
C1273  C     0.09777   0.07450   0.95080   0.00000  Uiso   1.00
C1274  C     0.15224   0.05580   0.96743   0.00000  Uiso   1.00
C1275  C     0.15051   0.00785   0.96647   0.00000  Uiso   1.00
C1276  C     0.06729   0.16662   0.82152   0.00000  Uiso   1.00
C1277  C     0.26606   0.16680   0.84510   0.00000  Uiso   1.00
C1278  C     0.01277   0.16097   0.81605   0.00000  Uiso   1.00
C1279  C     0.32055   0.17277   0.85031   0.00000  Uiso   1.00
C1280  C     0.13010   0.02214   0.80360   0.00000  Uiso   1.00
C1281  C     0.20533   0.31123   0.86265   0.00000  Uiso   1.00
C1282  C     0.12916   0.31226   0.80288   0.00000  Uiso   1.00
H1283  H     0.10078   0.03959   0.78125   0.00000  Uiso   1.00
H1284  H     0.27173   0.02274   0.91216   0.00000  Uiso   1.00
H1285  H     0.18597   0.26409   0.72243   0.00000  Uiso   1.00
H1286  H     0.23312   0.26839   0.68366   0.00000  Uiso   1.00
H1287  H     0.25838   0.27219   0.78805   0.00000  Uiso   1.00
H1288  H     0.30469   0.27509   0.74889   0.00000  Uiso   1.00
H1289  H     0.26435   0.00707   0.71431   0.00000  Uiso   1.00
H1290  H     0.28103   0.01296   0.77518   0.00000  Uiso   1.00
H1291  H     0.21409   0.00379   0.75021   0.00000  Uiso   1.00
H1292  H     0.08209   0.05906   0.91807   0.00000  Uiso   1.00
H1293  H     0.06993   0.06577   0.97418   0.00000  Uiso   1.00
H1294  H     0.23450   0.29347   0.88478   0.00000  Uiso   1.00
H1295  H     0.18048   0.06720   0.94566   0.00000  Uiso   1.00
H1296  H     0.16681   0.06558   0.66956   0.00000  Uiso   1.00
H1297  H     0.12534   0.32895   0.99077   0.00000  Uiso   1.00
H1298  H     0.19048   0.32885   0.97643   0.00000  Uiso   1.00
H1299  H     0.13523   0.32980   0.93170   0.00000  Uiso   1.00
H1300  H     0.27122   0.18633   0.95730   0.00000  Uiso   1.00
H1301  H     0.23292   0.22786   0.93640   0.00000  Uiso   1.00
H1302  H     0.09946   0.09031   0.70975   0.00000  Uiso   1.00
H1303  H     0.05473   0.12634   0.68562   0.00000  Uiso   1.00
H1304  H     0.00654   0.10925   0.77573   0.00000  Uiso   1.00
H1305  H     0.32680   0.15528   0.74746   0.00000  Uiso   1.00
H1306  H     0.32553   0.22393   0.89152   0.00000  Uiso   1.00
H1307  H     0.00906   0.17779   0.91863   0.00000  Uiso   1.00
H1308  H     0.09199   0.29970   0.73959   0.00000  Uiso   1.00
H1309  H     0.05342   0.30001   0.78055   0.00000  Uiso   1.00
H1310  H     0.27137   0.05816   0.86998   0.00000  Uiso   1.00
N1311  N     0.16665   0.16666   0.95240   0.00000  Uiso   1.00
N1312  N     0.16668   0.16668   0.71427   0.00000  Uiso   1.00
N1313  N     0.32140   0.13823   0.77663   0.00000  Uiso   1.00
N1314  N     0.01203   0.19572   0.88951   0.00000  Uiso   1.00
N1315  N     0.08946   0.29033   0.77301   0.00000  Uiso   1.00
N1316  N     0.24790   0.04365   0.89131   0.00000  Uiso   1.00
N1317  N     0.24603   0.20959   0.96495   0.00000  Uiso   1.00
N1318  N     0.09071   0.12221   0.70628   0.00000  Uiso   1.00
O1319  O     0.16666   0.10558   0.87154   0.00000  Uiso   1.00
O1320  O     0.09622   0.11854   0.94182   0.00000  Uiso   1.00
O1321  O     0.16667   0.22775   0.79513   0.00000  Uiso   1.00
O1322  O     0.16666   0.10559   0.79510   0.00000  Uiso   1.00
O1323  O     0.16667   0.22774   0.87157   0.00000  Uiso   1.00
O1324  O     0.09058   0.16666   0.86261   0.00000  Uiso   1.00
O1325  O     0.24275   0.16667   0.80405   0.00000  Uiso   1.00
O1326  O     0.09058   0.16667   0.78617   0.00000  Uiso   1.00
O1327  O     0.24275   0.16666   0.88050   0.00000  Uiso   1.00
O1328  O     0.23809   0.21408   0.72393   0.00000  Uiso   1.00
Zn1329 Zn    0.16667   0.16666   0.88437   0.00000  Uiso   1.00
Zn1330 Zn    0.16667   0.16667   0.78229   0.00000  Uiso   1.00
C1331  C     0.50083   0.08684   0.83354   0.00000  Uiso   1.00
C1332  C     0.54035   0.02128   0.86282   0.00000  Uiso   1.00
C1333  C     0.50000   0.29068   0.83287   0.00000  Uiso   1.00
C1334  C     0.50168   0.04273   0.83366   0.00000  Uiso   1.00
C1335  C     0.53480   0.19092   0.69549   0.00000  Uiso   1.00
C1336  C     0.46508   0.14204   0.97127   0.00000  Uiso   1.00
C1337  C     0.53633   0.18950   0.98123   0.00000  Uiso   1.00
C1338  C     0.46390   0.14342   0.68630   0.00000  Uiso   1.00
C1339  C     0.56028   0.25736   0.71801   0.00000  Uiso   1.00
C1340  C     0.59730   0.28216   0.75321   0.00000  Uiso   1.00
C1341  C     0.58851   0.32942   0.74780   0.00000  Uiso   1.00
C1342  C     0.49977   0.24652   0.83317   0.00000  Uiso   1.00
C1343  C     0.43110   0.07450   0.95080   0.00000  Uiso   1.00
C1344  C     0.48557   0.05580   0.96743   0.00000  Uiso   1.00
C1345  C     0.48384   0.00785   0.96647   0.00000  Uiso   1.00
C1346  C     0.40062   0.16662   0.82152   0.00000  Uiso   1.00
C1347  C     0.59939   0.16680   0.84510   0.00000  Uiso   1.00
C1348  C     0.34610   0.16097   0.81605   0.00000  Uiso   1.00
C1349  C     0.65388   0.17277   0.85031   0.00000  Uiso   1.00
C1350  C     0.46344   0.02214   0.80360   0.00000  Uiso   1.00
C1351  C     0.53867   0.31123   0.86265   0.00000  Uiso   1.00
C1352  C     0.46249   0.31226   0.80288   0.00000  Uiso   1.00
H1353  H     0.43411   0.03959   0.78125   0.00000  Uiso   1.00
H1354  H     0.60506   0.02274   0.91216   0.00000  Uiso   1.00
H1355  H     0.51930   0.26409   0.72243   0.00000  Uiso   1.00
H1356  H     0.56645   0.26839   0.68366   0.00000  Uiso   1.00
H1357  H     0.59171   0.27219   0.78805   0.00000  Uiso   1.00
H1358  H     0.63802   0.27509   0.74889   0.00000  Uiso   1.00
H1359  H     0.59768   0.00707   0.71431   0.00000  Uiso   1.00
H1360  H     0.61436   0.01296   0.77518   0.00000  Uiso   1.00
H1361  H     0.54742   0.00379   0.75021   0.00000  Uiso   1.00
H1362  H     0.41542   0.05906   0.91807   0.00000  Uiso   1.00
H1363  H     0.40327   0.06577   0.97418   0.00000  Uiso   1.00
H1364  H     0.56784   0.29347   0.88478   0.00000  Uiso   1.00
H1365  H     0.51381   0.06720   0.94566   0.00000  Uiso   1.00
H1366  H     0.50014   0.06558   0.66956   0.00000  Uiso   1.00
H1367  H     0.45867   0.32895   0.99077   0.00000  Uiso   1.00
H1368  H     0.52381   0.32885   0.97643   0.00000  Uiso   1.00
H1369  H     0.46857   0.32980   0.93170   0.00000  Uiso   1.00
H1370  H     0.60455   0.18633   0.95730   0.00000  Uiso   1.00
H1371  H     0.56626   0.22786   0.93640   0.00000  Uiso   1.00
H1372  H     0.43279   0.09031   0.70975   0.00000  Uiso   1.00
H1373  H     0.38807   0.12634   0.68562   0.00000  Uiso   1.00
H1374  H     0.33987   0.10925   0.77573   0.00000  Uiso   1.00
H1375  H     0.66013   0.15528   0.74746   0.00000  Uiso   1.00
H1376  H     0.65887   0.22393   0.89152   0.00000  Uiso   1.00
H1377  H     0.34239   0.17779   0.91863   0.00000  Uiso   1.00
H1378  H     0.42532   0.29970   0.73959   0.00000  Uiso   1.00
H1379  H     0.38675   0.30001   0.78055   0.00000  Uiso   1.00
H1380  H     0.60470   0.05816   0.86998   0.00000  Uiso   1.00
N1381  N     0.49999   0.16666   0.95240   0.00000  Uiso   1.00
N1382  N     0.50001   0.16668   0.71427   0.00000  Uiso   1.00
N1383  N     0.65473   0.13823   0.77663   0.00000  Uiso   1.00
N1384  N     0.34537   0.19572   0.88951   0.00000  Uiso   1.00
N1385  N     0.42280   0.29033   0.77301   0.00000  Uiso   1.00
N1386  N     0.58124   0.04365   0.89131   0.00000  Uiso   1.00
N1387  N     0.57937   0.20959   0.96495   0.00000  Uiso   1.00
N1388  N     0.42405   0.12221   0.70628   0.00000  Uiso   1.00
O1389  O     0.50000   0.10558   0.87154   0.00000  Uiso   1.00
O1390  O     0.42956   0.11854   0.94182   0.00000  Uiso   1.00
O1391  O     0.50000   0.22775   0.79513   0.00000  Uiso   1.00
O1392  O     0.50000   0.10559   0.79510   0.00000  Uiso   1.00
O1393  O     0.50000   0.22774   0.87157   0.00000  Uiso   1.00
O1394  O     0.42392   0.16666   0.86261   0.00000  Uiso   1.00
O1395  O     0.57608   0.16667   0.80405   0.00000  Uiso   1.00
O1396  O     0.42392   0.16667   0.78617   0.00000  Uiso   1.00
O1397  O     0.57608   0.16666   0.88050   0.00000  Uiso   1.00
O1398  O     0.57142   0.21408   0.72393   0.00000  Uiso   1.00
Zn1399 Zn    0.50000   0.16666   0.88437   0.00000  Uiso   1.00
Zn1400 Zn    0.50000   0.16667   0.78229   0.00000  Uiso   1.00
C1401  C     0.83416   0.08684   0.83354   0.00000  Uiso   1.00
C1402  C     0.87368   0.02128   0.86282   0.00000  Uiso   1.00
C1403  C     0.83333   0.29068   0.83287   0.00000  Uiso   1.00
C1404  C     0.83502   0.04273   0.83366   0.00000  Uiso   1.00
C1405  C     0.86813   0.19092   0.69549   0.00000  Uiso   1.00
C1406  C     0.79841   0.14204   0.97127   0.00000  Uiso   1.00
C1407  C     0.86966   0.18950   0.98123   0.00000  Uiso   1.00
C1408  C     0.79723   0.14342   0.68630   0.00000  Uiso   1.00
C1409  C     0.89362   0.25736   0.71801   0.00000  Uiso   1.00
C1410  C     0.93063   0.28216   0.75321   0.00000  Uiso   1.00
C1411  C     0.92184   0.32942   0.74780   0.00000  Uiso   1.00
C1412  C     0.83311   0.24652   0.83317   0.00000  Uiso   1.00
C1413  C     0.76443   0.07450   0.95080   0.00000  Uiso   1.00
C1414  C     0.81891   0.05580   0.96743   0.00000  Uiso   1.00
C1415  C     0.81718   0.00785   0.96647   0.00000  Uiso   1.00
C1416  C     0.73396   0.16662   0.82152   0.00000  Uiso   1.00
C1417  C     0.93273   0.16680   0.84510   0.00000  Uiso   1.00
C1418  C     0.67944   0.16097   0.81605   0.00000  Uiso   1.00
C1419  C     0.98722   0.17277   0.85031   0.00000  Uiso   1.00
C1420  C     0.79677   0.02214   0.80360   0.00000  Uiso   1.00
C1421  C     0.87200   0.31123   0.86265   0.00000  Uiso   1.00
C1422  C     0.79582   0.31226   0.80288   0.00000  Uiso   1.00
H1423  H     0.76745   0.03959   0.78125   0.00000  Uiso   1.00
H1424  H     0.93840   0.02274   0.91216   0.00000  Uiso   1.00
H1425  H     0.85263   0.26409   0.72243   0.00000  Uiso   1.00
H1426  H     0.89979   0.26839   0.68366   0.00000  Uiso   1.00
H1427  H     0.92505   0.27219   0.78805   0.00000  Uiso   1.00
H1428  H     0.97135   0.27509   0.74889   0.00000  Uiso   1.00
H1429  H     0.93102   0.00707   0.71431   0.00000  Uiso   1.00
H1430  H     0.94769   0.01296   0.77518   0.00000  Uiso   1.00
H1431  H     0.88075   0.00379   0.75021   0.00000  Uiso   1.00
H1432  H     0.74875   0.05906   0.91807   0.00000  Uiso   1.00
H1433  H     0.73660   0.06577   0.97418   0.00000  Uiso   1.00
H1434  H     0.90117   0.29347   0.88478   0.00000  Uiso   1.00
H1435  H     0.84714   0.06720   0.94566   0.00000  Uiso   1.00
H1436  H     0.83348   0.06558   0.66956   0.00000  Uiso   1.00
H1437  H     0.79200   0.32895   0.99077   0.00000  Uiso   1.00
H1438  H     0.85714   0.32885   0.97643   0.00000  Uiso   1.00
H1439  H     0.80190   0.32980   0.93170   0.00000  Uiso   1.00
H1440  H     0.93788   0.18633   0.95730   0.00000  Uiso   1.00
H1441  H     0.89959   0.22786   0.93640   0.00000  Uiso   1.00
H1442  H     0.76613   0.09031   0.70975   0.00000  Uiso   1.00
H1443  H     0.72140   0.12634   0.68562   0.00000  Uiso   1.00
H1444  H     0.67320   0.10925   0.77573   0.00000  Uiso   1.00
H1445  H     0.99346   0.15528   0.74746   0.00000  Uiso   1.00
H1446  H     0.99220   0.22393   0.89152   0.00000  Uiso   1.00
H1447  H     0.67572   0.17779   0.91863   0.00000  Uiso   1.00
H1448  H     0.75865   0.29970   0.73959   0.00000  Uiso   1.00
H1449  H     0.72009   0.30001   0.78055   0.00000  Uiso   1.00
H1450  H     0.93804   0.05816   0.86998   0.00000  Uiso   1.00
N1451  N     0.83332   0.16666   0.95240   0.00000  Uiso   1.00
N1452  N     0.83335   0.16668   0.71427   0.00000  Uiso   1.00
N1453  N     0.98806   0.13823   0.77663   0.00000  Uiso   1.00
N1454  N     0.67870   0.19572   0.88951   0.00000  Uiso   1.00
N1455  N     0.75613   0.29033   0.77301   0.00000  Uiso   1.00
N1456  N     0.91457   0.04365   0.89131   0.00000  Uiso   1.00
N1457  N     0.91270   0.20959   0.96495   0.00000  Uiso   1.00
N1458  N     0.75738   0.12221   0.70628   0.00000  Uiso   1.00
O1459  O     0.83333   0.10558   0.87154   0.00000  Uiso   1.00
O1460  O     0.76289   0.11854   0.94182   0.00000  Uiso   1.00
O1461  O     0.83334   0.22775   0.79513   0.00000  Uiso   1.00
O1462  O     0.83333   0.10559   0.79510   0.00000  Uiso   1.00
O1463  O     0.83334   0.22774   0.87157   0.00000  Uiso   1.00
O1464  O     0.75725   0.16666   0.86261   0.00000  Uiso   1.00
O1465  O     0.90942   0.16667   0.80405   0.00000  Uiso   1.00
O1466  O     0.75725   0.16667   0.78617   0.00000  Uiso   1.00
O1467  O     0.90942   0.16666   0.88050   0.00000  Uiso   1.00
O1468  O     0.90476   0.21408   0.72393   0.00000  Uiso   1.00
Zn1469 Zn    0.83333   0.16666   0.88437   0.00000  Uiso   1.00
Zn1470 Zn    0.83333   0.16667   0.78229   0.00000  Uiso   1.00
C1471  C     0.16750   0.42017   0.83354   0.00000  Uiso   1.00
C1472  C     0.20701   0.35461   0.86282   0.00000  Uiso   1.00
C1473  C     0.16666   0.62401   0.83287   0.00000  Uiso   1.00
C1474  C     0.16835   0.37607   0.83366   0.00000  Uiso   1.00
C1475  C     0.20146   0.52426   0.69549   0.00000  Uiso   1.00
C1476  C     0.13175   0.47538   0.97127   0.00000  Uiso   1.00
C1477  C     0.20299   0.52283   0.98123   0.00000  Uiso   1.00
C1478  C     0.13057   0.47675   0.68630   0.00000  Uiso   1.00
C1479  C     0.22695   0.59070   0.71801   0.00000  Uiso   1.00
C1480  C     0.26396   0.61549   0.75321   0.00000  Uiso   1.00
C1481  C     0.25518   0.66275   0.74780   0.00000  Uiso   1.00
C1482  C     0.16644   0.57986   0.83317   0.00000  Uiso   1.00
C1483  C     0.09777   0.40783   0.95080   0.00000  Uiso   1.00
C1484  C     0.15224   0.38913   0.96743   0.00000  Uiso   1.00
C1485  C     0.15051   0.34119   0.96647   0.00000  Uiso   1.00
C1486  C     0.06729   0.49995   0.82152   0.00000  Uiso   1.00
C1487  C     0.26606   0.50013   0.84510   0.00000  Uiso   1.00
C1488  C     0.01277   0.49430   0.81605   0.00000  Uiso   1.00
C1489  C     0.32055   0.50610   0.85031   0.00000  Uiso   1.00
C1490  C     0.13010   0.35547   0.80360   0.00000  Uiso   1.00
C1491  C     0.20533   0.64456   0.86265   0.00000  Uiso   1.00
C1492  C     0.12916   0.64559   0.80288   0.00000  Uiso   1.00
H1493  H     0.10078   0.37293   0.78125   0.00000  Uiso   1.00
H1494  H     0.27173   0.35607   0.91216   0.00000  Uiso   1.00
H1495  H     0.18597   0.59743   0.72243   0.00000  Uiso   1.00
H1496  H     0.23312   0.60172   0.68366   0.00000  Uiso   1.00
H1497  H     0.25838   0.60553   0.78805   0.00000  Uiso   1.00
H1498  H     0.30469   0.60843   0.74889   0.00000  Uiso   1.00
H1499  H     0.26435   0.34040   0.71431   0.00000  Uiso   1.00
H1500  H     0.28103   0.34629   0.77518   0.00000  Uiso   1.00
H1501  H     0.21409   0.33712   0.75021   0.00000  Uiso   1.00
H1502  H     0.08209   0.39240   0.91807   0.00000  Uiso   1.00
H1503  H     0.06993   0.39910   0.97418   0.00000  Uiso   1.00
H1504  H     0.23450   0.62680   0.88478   0.00000  Uiso   1.00
H1505  H     0.18048   0.40053   0.94566   0.00000  Uiso   1.00
H1506  H     0.16681   0.39892   0.66956   0.00000  Uiso   1.00
H1507  H     0.12534   0.66228   0.99077   0.00000  Uiso   1.00
H1508  H     0.19048   0.66219   0.97643   0.00000  Uiso   1.00
H1509  H     0.13523   0.66314   0.93170   0.00000  Uiso   1.00
H1510  H     0.27122   0.51966   0.95730   0.00000  Uiso   1.00
H1511  H     0.23292   0.56119   0.93640   0.00000  Uiso   1.00
H1512  H     0.09946   0.42365   0.70975   0.00000  Uiso   1.00
H1513  H     0.05473   0.45968   0.68562   0.00000  Uiso   1.00
H1514  H     0.00654   0.44259   0.77573   0.00000  Uiso   1.00
H1515  H     0.32680   0.48862   0.74746   0.00000  Uiso   1.00
H1516  H     0.32553   0.55727   0.89152   0.00000  Uiso   1.00
H1517  H     0.00906   0.51112   0.91863   0.00000  Uiso   1.00
H1518  H     0.09199   0.63304   0.73959   0.00000  Uiso   1.00
H1519  H     0.05342   0.63335   0.78055   0.00000  Uiso   1.00
H1520  H     0.27137   0.39149   0.86998   0.00000  Uiso   1.00
N1521  N     0.16665   0.49999   0.95240   0.00000  Uiso   1.00
N1522  N     0.16668   0.50001   0.71427   0.00000  Uiso   1.00
N1523  N     0.32140   0.47156   0.77663   0.00000  Uiso   1.00
N1524  N     0.01203   0.52905   0.88951   0.00000  Uiso   1.00
N1525  N     0.08946   0.62367   0.77301   0.00000  Uiso   1.00
N1526  N     0.24790   0.37698   0.89131   0.00000  Uiso   1.00
N1527  N     0.24603   0.54293   0.96495   0.00000  Uiso   1.00
N1528  N     0.09071   0.45554   0.70628   0.00000  Uiso   1.00
O1529  O     0.16666   0.43892   0.87154   0.00000  Uiso   1.00
O1530  O     0.09622   0.45187   0.94182   0.00000  Uiso   1.00
O1531  O     0.16667   0.56108   0.79513   0.00000  Uiso   1.00
O1532  O     0.16666   0.43893   0.79510   0.00000  Uiso   1.00
O1533  O     0.16667   0.56107   0.87157   0.00000  Uiso   1.00
O1534  O     0.09058   0.50000   0.86261   0.00000  Uiso   1.00
O1535  O     0.24275   0.50000   0.80405   0.00000  Uiso   1.00
O1536  O     0.09058   0.50000   0.78617   0.00000  Uiso   1.00
O1537  O     0.24275   0.50000   0.88050   0.00000  Uiso   1.00
O1538  O     0.23809   0.54741   0.72393   0.00000  Uiso   1.00
Zn1539 Zn    0.16667   0.49999   0.88437   0.00000  Uiso   1.00
Zn1540 Zn    0.16667   0.50001   0.78229   0.00000  Uiso   1.00
C1541  C     0.50083   0.42017   0.83354   0.00000  Uiso   1.00
C1542  C     0.54035   0.35461   0.86282   0.00000  Uiso   1.00
C1543  C     0.50000   0.62401   0.83287   0.00000  Uiso   1.00
C1544  C     0.50168   0.37607   0.83366   0.00000  Uiso   1.00
C1545  C     0.53480   0.52426   0.69549   0.00000  Uiso   1.00
C1546  C     0.46508   0.47538   0.97127   0.00000  Uiso   1.00
C1547  C     0.53633   0.52283   0.98123   0.00000  Uiso   1.00
C1548  C     0.46390   0.47675   0.68630   0.00000  Uiso   1.00
C1549  C     0.56028   0.59070   0.71801   0.00000  Uiso   1.00
C1550  C     0.59730   0.61549   0.75321   0.00000  Uiso   1.00
C1551  C     0.58851   0.66275   0.74780   0.00000  Uiso   1.00
C1552  C     0.49977   0.57986   0.83317   0.00000  Uiso   1.00
C1553  C     0.43110   0.40783   0.95080   0.00000  Uiso   1.00
C1554  C     0.48557   0.38913   0.96743   0.00000  Uiso   1.00
C1555  C     0.48384   0.34119   0.96647   0.00000  Uiso   1.00
C1556  C     0.40062   0.49995   0.82152   0.00000  Uiso   1.00
C1557  C     0.59939   0.50013   0.84510   0.00000  Uiso   1.00
C1558  C     0.34610   0.49430   0.81605   0.00000  Uiso   1.00
C1559  C     0.65388   0.50610   0.85031   0.00000  Uiso   1.00
C1560  C     0.46344   0.35547   0.80360   0.00000  Uiso   1.00
C1561  C     0.53867   0.64456   0.86265   0.00000  Uiso   1.00
C1562  C     0.46249   0.64559   0.80288   0.00000  Uiso   1.00
H1563  H     0.43411   0.37293   0.78125   0.00000  Uiso   1.00
H1564  H     0.60506   0.35607   0.91216   0.00000  Uiso   1.00
H1565  H     0.51930   0.59743   0.72243   0.00000  Uiso   1.00
H1566  H     0.56645   0.60172   0.68366   0.00000  Uiso   1.00
H1567  H     0.59171   0.60553   0.78805   0.00000  Uiso   1.00
H1568  H     0.63802   0.60843   0.74889   0.00000  Uiso   1.00
H1569  H     0.59768   0.34040   0.71431   0.00000  Uiso   1.00
H1570  H     0.61436   0.34629   0.77518   0.00000  Uiso   1.00
H1571  H     0.54742   0.33712   0.75021   0.00000  Uiso   1.00
H1572  H     0.41542   0.39240   0.91807   0.00000  Uiso   1.00
H1573  H     0.40327   0.39910   0.97418   0.00000  Uiso   1.00
H1574  H     0.56784   0.62680   0.88478   0.00000  Uiso   1.00
H1575  H     0.51381   0.40053   0.94566   0.00000  Uiso   1.00
H1576  H     0.50014   0.39892   0.66956   0.00000  Uiso   1.00
H1577  H     0.45867   0.66228   0.99077   0.00000  Uiso   1.00
H1578  H     0.52381   0.66219   0.97643   0.00000  Uiso   1.00
H1579  H     0.46857   0.66314   0.93170   0.00000  Uiso   1.00
H1580  H     0.60455   0.51966   0.95730   0.00000  Uiso   1.00
H1581  H     0.56626   0.56119   0.93640   0.00000  Uiso   1.00
H1582  H     0.43279   0.42365   0.70975   0.00000  Uiso   1.00
H1583  H     0.38807   0.45968   0.68562   0.00000  Uiso   1.00
H1584  H     0.33987   0.44259   0.77573   0.00000  Uiso   1.00
H1585  H     0.66013   0.48862   0.74746   0.00000  Uiso   1.00
H1586  H     0.65887   0.55727   0.89152   0.00000  Uiso   1.00
H1587  H     0.34239   0.51112   0.91863   0.00000  Uiso   1.00
H1588  H     0.42532   0.63304   0.73959   0.00000  Uiso   1.00
H1589  H     0.38675   0.63335   0.78055   0.00000  Uiso   1.00
H1590  H     0.60470   0.39149   0.86998   0.00000  Uiso   1.00
N1591  N     0.49999   0.49999   0.95240   0.00000  Uiso   1.00
N1592  N     0.50001   0.50001   0.71427   0.00000  Uiso   1.00
N1593  N     0.65473   0.47156   0.77663   0.00000  Uiso   1.00
N1594  N     0.34537   0.52905   0.88951   0.00000  Uiso   1.00
N1595  N     0.42280   0.62367   0.77301   0.00000  Uiso   1.00
N1596  N     0.58124   0.37698   0.89131   0.00000  Uiso   1.00
N1597  N     0.57937   0.54293   0.96495   0.00000  Uiso   1.00
N1598  N     0.42405   0.45554   0.70628   0.00000  Uiso   1.00
O1599  O     0.50000   0.43892   0.87154   0.00000  Uiso   1.00
O1600  O     0.42956   0.45187   0.94182   0.00000  Uiso   1.00
O1601  O     0.50000   0.56108   0.79513   0.00000  Uiso   1.00
O1602  O     0.50000   0.43893   0.79510   0.00000  Uiso   1.00
O1603  O     0.50000   0.56107   0.87157   0.00000  Uiso   1.00
O1604  O     0.42392   0.50000   0.86261   0.00000  Uiso   1.00
O1605  O     0.57608   0.50000   0.80405   0.00000  Uiso   1.00
O1606  O     0.42392   0.50000   0.78617   0.00000  Uiso   1.00
O1607  O     0.57608   0.50000   0.88050   0.00000  Uiso   1.00
O1608  O     0.57142   0.54741   0.72393   0.00000  Uiso   1.00
Zn1609 Zn    0.50000   0.49999   0.88437   0.00000  Uiso   1.00
Zn1610 Zn    0.50000   0.50001   0.78229   0.00000  Uiso   1.00
C1611  C     0.83416   0.42017   0.83354   0.00000  Uiso   1.00
C1612  C     0.87368   0.35461   0.86282   0.00000  Uiso   1.00
C1613  C     0.83333   0.62401   0.83287   0.00000  Uiso   1.00
C1614  C     0.83502   0.37607   0.83366   0.00000  Uiso   1.00
C1615  C     0.86813   0.52426   0.69549   0.00000  Uiso   1.00
C1616  C     0.79841   0.47538   0.97127   0.00000  Uiso   1.00
C1617  C     0.86966   0.52283   0.98123   0.00000  Uiso   1.00
C1618  C     0.79723   0.47675   0.68630   0.00000  Uiso   1.00
C1619  C     0.89362   0.59070   0.71801   0.00000  Uiso   1.00
C1620  C     0.93063   0.61549   0.75321   0.00000  Uiso   1.00
C1621  C     0.92184   0.66275   0.74780   0.00000  Uiso   1.00
C1622  C     0.83311   0.57986   0.83317   0.00000  Uiso   1.00
C1623  C     0.76443   0.40783   0.95080   0.00000  Uiso   1.00
C1624  C     0.81891   0.38913   0.96743   0.00000  Uiso   1.00
C1625  C     0.81718   0.34119   0.96647   0.00000  Uiso   1.00
C1626  C     0.73396   0.49995   0.82152   0.00000  Uiso   1.00
C1627  C     0.93273   0.50013   0.84510   0.00000  Uiso   1.00
C1628  C     0.67944   0.49430   0.81605   0.00000  Uiso   1.00
C1629  C     0.98722   0.50610   0.85031   0.00000  Uiso   1.00
C1630  C     0.79677   0.35547   0.80360   0.00000  Uiso   1.00
C1631  C     0.87200   0.64456   0.86265   0.00000  Uiso   1.00
C1632  C     0.79582   0.64559   0.80288   0.00000  Uiso   1.00
H1633  H     0.76745   0.37293   0.78125   0.00000  Uiso   1.00
H1634  H     0.93840   0.35607   0.91216   0.00000  Uiso   1.00
H1635  H     0.85263   0.59743   0.72243   0.00000  Uiso   1.00
H1636  H     0.89979   0.60172   0.68366   0.00000  Uiso   1.00
H1637  H     0.92505   0.60553   0.78805   0.00000  Uiso   1.00
H1638  H     0.97135   0.60843   0.74889   0.00000  Uiso   1.00
H1639  H     0.93102   0.34040   0.71431   0.00000  Uiso   1.00
H1640  H     0.94769   0.34629   0.77518   0.00000  Uiso   1.00
H1641  H     0.88075   0.33712   0.75021   0.00000  Uiso   1.00
H1642  H     0.74875   0.39240   0.91807   0.00000  Uiso   1.00
H1643  H     0.73660   0.39910   0.97418   0.00000  Uiso   1.00
H1644  H     0.90117   0.62680   0.88478   0.00000  Uiso   1.00
H1645  H     0.84714   0.40053   0.94566   0.00000  Uiso   1.00
H1646  H     0.83348   0.39892   0.66956   0.00000  Uiso   1.00
H1647  H     0.79200   0.66228   0.99077   0.00000  Uiso   1.00
H1648  H     0.85714   0.66219   0.97643   0.00000  Uiso   1.00
H1649  H     0.80190   0.66314   0.93170   0.00000  Uiso   1.00
H1650  H     0.93788   0.51966   0.95730   0.00000  Uiso   1.00
H1651  H     0.89959   0.56119   0.93640   0.00000  Uiso   1.00
H1652  H     0.76613   0.42365   0.70975   0.00000  Uiso   1.00
H1653  H     0.72140   0.45968   0.68562   0.00000  Uiso   1.00
H1654  H     0.67320   0.44259   0.77573   0.00000  Uiso   1.00
H1655  H     0.99346   0.48862   0.74746   0.00000  Uiso   1.00
H1656  H     0.99220   0.55727   0.89152   0.00000  Uiso   1.00
H1657  H     0.67572   0.51112   0.91863   0.00000  Uiso   1.00
H1658  H     0.75865   0.63304   0.73959   0.00000  Uiso   1.00
H1659  H     0.72009   0.63335   0.78055   0.00000  Uiso   1.00
H1660  H     0.93804   0.39149   0.86998   0.00000  Uiso   1.00
N1661  N     0.83332   0.49999   0.95240   0.00000  Uiso   1.00
N1662  N     0.83335   0.50001   0.71427   0.00000  Uiso   1.00
N1663  N     0.98806   0.47156   0.77663   0.00000  Uiso   1.00
N1664  N     0.67870   0.52905   0.88951   0.00000  Uiso   1.00
N1665  N     0.75613   0.62367   0.77301   0.00000  Uiso   1.00
N1666  N     0.91457   0.37698   0.89131   0.00000  Uiso   1.00
N1667  N     0.91270   0.54293   0.96495   0.00000  Uiso   1.00
N1668  N     0.75738   0.45554   0.70628   0.00000  Uiso   1.00
O1669  O     0.83333   0.43892   0.87154   0.00000  Uiso   1.00
O1670  O     0.76289   0.45187   0.94182   0.00000  Uiso   1.00
O1671  O     0.83334   0.56108   0.79513   0.00000  Uiso   1.00
O1672  O     0.83333   0.43893   0.79510   0.00000  Uiso   1.00
O1673  O     0.83334   0.56107   0.87157   0.00000  Uiso   1.00
O1674  O     0.75725   0.50000   0.86261   0.00000  Uiso   1.00
O1675  O     0.90942   0.50000   0.80405   0.00000  Uiso   1.00
O1676  O     0.75725   0.50000   0.78617   0.00000  Uiso   1.00
O1677  O     0.90942   0.50000   0.88050   0.00000  Uiso   1.00
O1678  O     0.90476   0.54741   0.72393   0.00000  Uiso   1.00
Zn1679 Zn    0.83333   0.49999   0.88437   0.00000  Uiso   1.00
Zn1680 Zn    0.83333   0.50001   0.78229   0.00000  Uiso   1.00
C1681  C     0.16750   0.75351   0.83354   0.00000  Uiso   1.00
C1682  C     0.20701   0.68794   0.86282   0.00000  Uiso   1.00
C1683  C     0.16666   0.95734   0.83287   0.00000  Uiso   1.00
C1684  C     0.16835   0.70940   0.83366   0.00000  Uiso   1.00
C1685  C     0.20146   0.85759   0.69549   0.00000  Uiso   1.00
C1686  C     0.13175   0.80871   0.97127   0.00000  Uiso   1.00
C1687  C     0.20299   0.85617   0.98123   0.00000  Uiso   1.00
C1688  C     0.13057   0.81009   0.68630   0.00000  Uiso   1.00
C1689  C     0.22695   0.92403   0.71801   0.00000  Uiso   1.00
C1690  C     0.26396   0.94883   0.75321   0.00000  Uiso   1.00
C1691  C     0.25518   0.99608   0.74780   0.00000  Uiso   1.00
C1692  C     0.16644   0.91319   0.83317   0.00000  Uiso   1.00
C1693  C     0.09777   0.74117   0.95080   0.00000  Uiso   1.00
C1694  C     0.15224   0.72246   0.96743   0.00000  Uiso   1.00
C1695  C     0.15051   0.67452   0.96647   0.00000  Uiso   1.00
C1696  C     0.06729   0.83329   0.82152   0.00000  Uiso   1.00
C1697  C     0.26606   0.83346   0.84510   0.00000  Uiso   1.00
C1698  C     0.01277   0.82764   0.81605   0.00000  Uiso   1.00
C1699  C     0.32055   0.83943   0.85031   0.00000  Uiso   1.00
C1700  C     0.13010   0.68880   0.80360   0.00000  Uiso   1.00
C1701  C     0.20533   0.97790   0.86265   0.00000  Uiso   1.00
C1702  C     0.12916   0.97893   0.80288   0.00000  Uiso   1.00
H1703  H     0.10078   0.70626   0.78125   0.00000  Uiso   1.00
H1704  H     0.27173   0.68941   0.91216   0.00000  Uiso   1.00
H1705  H     0.18597   0.93076   0.72243   0.00000  Uiso   1.00
H1706  H     0.23312   0.93506   0.68366   0.00000  Uiso   1.00
H1707  H     0.25838   0.93886   0.78805   0.00000  Uiso   1.00
H1708  H     0.30469   0.94176   0.74889   0.00000  Uiso   1.00
H1709  H     0.26435   0.67373   0.71431   0.00000  Uiso   1.00
H1710  H     0.28103   0.67962   0.77518   0.00000  Uiso   1.00
H1711  H     0.21409   0.67045   0.75021   0.00000  Uiso   1.00
H1712  H     0.08209   0.72573   0.91807   0.00000  Uiso   1.00
H1713  H     0.06993   0.73244   0.97418   0.00000  Uiso   1.00
H1714  H     0.23450   0.96013   0.88478   0.00000  Uiso   1.00
H1715  H     0.18048   0.73386   0.94566   0.00000  Uiso   1.00
H1716  H     0.16681   0.73225   0.66956   0.00000  Uiso   1.00
H1717  H     0.12534   0.99561   0.99077   0.00000  Uiso   1.00
H1718  H     0.19048   0.99552   0.97643   0.00000  Uiso   1.00
H1719  H     0.13523   0.99647   0.93170   0.00000  Uiso   1.00
H1720  H     0.27122   0.85300   0.95730   0.00000  Uiso   1.00
H1721  H     0.23292   0.89453   0.93640   0.00000  Uiso   1.00
H1722  H     0.09946   0.75698   0.70975   0.00000  Uiso   1.00
H1723  H     0.05473   0.79301   0.68562   0.00000  Uiso   1.00
H1724  H     0.00654   0.77592   0.77573   0.00000  Uiso   1.00
H1725  H     0.32680   0.82195   0.74746   0.00000  Uiso   1.00
H1726  H     0.32553   0.89060   0.89152   0.00000  Uiso   1.00
H1727  H     0.00906   0.84446   0.91863   0.00000  Uiso   1.00
H1728  H     0.09199   0.96637   0.73959   0.00000  Uiso   1.00
H1729  H     0.05342   0.96668   0.78055   0.00000  Uiso   1.00
H1730  H     0.27137   0.72482   0.86998   0.00000  Uiso   1.00
N1731  N     0.16665   0.83332   0.95240   0.00000  Uiso   1.00
N1732  N     0.16668   0.83334   0.71427   0.00000  Uiso   1.00
N1733  N     0.32140   0.80490   0.77663   0.00000  Uiso   1.00
N1734  N     0.01203   0.86238   0.88951   0.00000  Uiso   1.00
N1735  N     0.08946   0.95700   0.77301   0.00000  Uiso   1.00
N1736  N     0.24790   0.71031   0.89131   0.00000  Uiso   1.00
N1737  N     0.24603   0.87626   0.96495   0.00000  Uiso   1.00
N1738  N     0.09071   0.78887   0.70628   0.00000  Uiso   1.00
O1739  O     0.16666   0.77225   0.87154   0.00000  Uiso   1.00
O1740  O     0.09622   0.78520   0.94182   0.00000  Uiso   1.00
O1741  O     0.16667   0.89442   0.79513   0.00000  Uiso   1.00
O1742  O     0.16666   0.77226   0.79510   0.00000  Uiso   1.00
O1743  O     0.16667   0.89441   0.87157   0.00000  Uiso   1.00
O1744  O     0.09058   0.83333   0.86261   0.00000  Uiso   1.00
O1745  O     0.24275   0.83334   0.80405   0.00000  Uiso   1.00
O1746  O     0.09058   0.83334   0.78617   0.00000  Uiso   1.00
O1747  O     0.24275   0.83333   0.88050   0.00000  Uiso   1.00
O1748  O     0.23809   0.88074   0.72393   0.00000  Uiso   1.00
Zn1749 Zn    0.16667   0.83333   0.88437   0.00000  Uiso   1.00
Zn1750 Zn    0.16667   0.83334   0.78229   0.00000  Uiso   1.00
C1751  C     0.50083   0.75351   0.83354   0.00000  Uiso   1.00
C1752  C     0.54035   0.68794   0.86282   0.00000  Uiso   1.00
C1753  C     0.50000   0.95734   0.83287   0.00000  Uiso   1.00
C1754  C     0.50168   0.70940   0.83366   0.00000  Uiso   1.00
C1755  C     0.53480   0.85759   0.69549   0.00000  Uiso   1.00
C1756  C     0.46508   0.80871   0.97127   0.00000  Uiso   1.00
C1757  C     0.53633   0.85617   0.98123   0.00000  Uiso   1.00
C1758  C     0.46390   0.81009   0.68630   0.00000  Uiso   1.00
C1759  C     0.56028   0.92403   0.71801   0.00000  Uiso   1.00
C1760  C     0.59730   0.94883   0.75321   0.00000  Uiso   1.00
C1761  C     0.58851   0.99608   0.74780   0.00000  Uiso   1.00
C1762  C     0.49977   0.91319   0.83317   0.00000  Uiso   1.00
C1763  C     0.43110   0.74117   0.95080   0.00000  Uiso   1.00
C1764  C     0.48557   0.72246   0.96743   0.00000  Uiso   1.00
C1765  C     0.48384   0.67452   0.96647   0.00000  Uiso   1.00
C1766  C     0.40062   0.83329   0.82152   0.00000  Uiso   1.00
C1767  C     0.59939   0.83346   0.84510   0.00000  Uiso   1.00
C1768  C     0.34610   0.82764   0.81605   0.00000  Uiso   1.00
C1769  C     0.65388   0.83943   0.85031   0.00000  Uiso   1.00
C1770  C     0.46344   0.68880   0.80360   0.00000  Uiso   1.00
C1771  C     0.53867   0.97790   0.86265   0.00000  Uiso   1.00
C1772  C     0.46249   0.97893   0.80288   0.00000  Uiso   1.00
H1773  H     0.43411   0.70626   0.78125   0.00000  Uiso   1.00
H1774  H     0.60506   0.68941   0.91216   0.00000  Uiso   1.00
H1775  H     0.51930   0.93076   0.72243   0.00000  Uiso   1.00
H1776  H     0.56645   0.93506   0.68366   0.00000  Uiso   1.00
H1777  H     0.59171   0.93886   0.78805   0.00000  Uiso   1.00
H1778  H     0.63802   0.94176   0.74889   0.00000  Uiso   1.00
H1779  H     0.59768   0.67373   0.71431   0.00000  Uiso   1.00
H1780  H     0.61436   0.67962   0.77518   0.00000  Uiso   1.00
H1781  H     0.54742   0.67045   0.75021   0.00000  Uiso   1.00
H1782  H     0.41542   0.72573   0.91807   0.00000  Uiso   1.00
H1783  H     0.40327   0.73244   0.97418   0.00000  Uiso   1.00
H1784  H     0.56784   0.96013   0.88478   0.00000  Uiso   1.00
H1785  H     0.51381   0.73386   0.94566   0.00000  Uiso   1.00
H1786  H     0.50014   0.73225   0.66956   0.00000  Uiso   1.00
H1787  H     0.45867   0.99561   0.99077   0.00000  Uiso   1.00
H1788  H     0.52381   0.99552   0.97643   0.00000  Uiso   1.00
H1789  H     0.46857   0.99647   0.93170   0.00000  Uiso   1.00
H1790  H     0.60455   0.85300   0.95730   0.00000  Uiso   1.00
H1791  H     0.56626   0.89453   0.93640   0.00000  Uiso   1.00
H1792  H     0.43279   0.75698   0.70975   0.00000  Uiso   1.00
H1793  H     0.38807   0.79301   0.68562   0.00000  Uiso   1.00
H1794  H     0.33987   0.77592   0.77573   0.00000  Uiso   1.00
H1795  H     0.66013   0.82195   0.74746   0.00000  Uiso   1.00
H1796  H     0.65887   0.89060   0.89152   0.00000  Uiso   1.00
H1797  H     0.34239   0.84446   0.91863   0.00000  Uiso   1.00
H1798  H     0.42532   0.96637   0.73959   0.00000  Uiso   1.00
H1799  H     0.38675   0.96668   0.78055   0.00000  Uiso   1.00
H1800  H     0.60470   0.72482   0.86998   0.00000  Uiso   1.00
N1801  N     0.49999   0.83332   0.95240   0.00000  Uiso   1.00
N1802  N     0.50001   0.83334   0.71427   0.00000  Uiso   1.00
N1803  N     0.65473   0.80490   0.77663   0.00000  Uiso   1.00
N1804  N     0.34537   0.86238   0.88951   0.00000  Uiso   1.00
N1805  N     0.42280   0.95700   0.77301   0.00000  Uiso   1.00
N1806  N     0.58124   0.71031   0.89131   0.00000  Uiso   1.00
N1807  N     0.57937   0.87626   0.96495   0.00000  Uiso   1.00
N1808  N     0.42405   0.78887   0.70628   0.00000  Uiso   1.00
O1809  O     0.50000   0.77225   0.87154   0.00000  Uiso   1.00
O1810  O     0.42956   0.78520   0.94182   0.00000  Uiso   1.00
O1811  O     0.50000   0.89442   0.79513   0.00000  Uiso   1.00
O1812  O     0.50000   0.77226   0.79510   0.00000  Uiso   1.00
O1813  O     0.50000   0.89441   0.87157   0.00000  Uiso   1.00
O1814  O     0.42392   0.83333   0.86261   0.00000  Uiso   1.00
O1815  O     0.57608   0.83334   0.80405   0.00000  Uiso   1.00
O1816  O     0.42392   0.83334   0.78617   0.00000  Uiso   1.00
O1817  O     0.57608   0.83333   0.88050   0.00000  Uiso   1.00
O1818  O     0.57142   0.88074   0.72393   0.00000  Uiso   1.00
Zn1819 Zn    0.50000   0.83333   0.88437   0.00000  Uiso   1.00
Zn1820 Zn    0.50000   0.83334   0.78229   0.00000  Uiso   1.00
C1821  C     0.83416   0.75351   0.83354   0.00000  Uiso   1.00
C1822  C     0.87368   0.68794   0.86282   0.00000  Uiso   1.00
C1823  C     0.83333   0.95734   0.83287   0.00000  Uiso   1.00
C1824  C     0.83502   0.70940   0.83366   0.00000  Uiso   1.00
C1825  C     0.86813   0.85759   0.69549   0.00000  Uiso   1.00
C1826  C     0.79841   0.80871   0.97127   0.00000  Uiso   1.00
C1827  C     0.86966   0.85617   0.98123   0.00000  Uiso   1.00
C1828  C     0.79723   0.81009   0.68630   0.00000  Uiso   1.00
C1829  C     0.89362   0.92403   0.71801   0.00000  Uiso   1.00
C1830  C     0.93063   0.94883   0.75321   0.00000  Uiso   1.00
C1831  C     0.92184   0.99608   0.74780   0.00000  Uiso   1.00
C1832  C     0.83311   0.91319   0.83317   0.00000  Uiso   1.00
C1833  C     0.76443   0.74117   0.95080   0.00000  Uiso   1.00
C1834  C     0.81891   0.72246   0.96743   0.00000  Uiso   1.00
C1835  C     0.81718   0.67452   0.96647   0.00000  Uiso   1.00
C1836  C     0.73396   0.83329   0.82152   0.00000  Uiso   1.00
C1837  C     0.93273   0.83346   0.84510   0.00000  Uiso   1.00
C1838  C     0.67944   0.82764   0.81605   0.00000  Uiso   1.00
C1839  C     0.98722   0.83943   0.85031   0.00000  Uiso   1.00
C1840  C     0.79677   0.68880   0.80360   0.00000  Uiso   1.00
C1841  C     0.87200   0.97790   0.86265   0.00000  Uiso   1.00
C1842  C     0.79582   0.97893   0.80288   0.00000  Uiso   1.00
H1843  H     0.76745   0.70626   0.78125   0.00000  Uiso   1.00
H1844  H     0.93840   0.68941   0.91216   0.00000  Uiso   1.00
H1845  H     0.85263   0.93076   0.72243   0.00000  Uiso   1.00
H1846  H     0.89979   0.93506   0.68366   0.00000  Uiso   1.00
H1847  H     0.92505   0.93886   0.78805   0.00000  Uiso   1.00
H1848  H     0.97135   0.94176   0.74889   0.00000  Uiso   1.00
H1849  H     0.93102   0.67373   0.71431   0.00000  Uiso   1.00
H1850  H     0.94769   0.67962   0.77518   0.00000  Uiso   1.00
H1851  H     0.88075   0.67045   0.75021   0.00000  Uiso   1.00
H1852  H     0.74875   0.72573   0.91807   0.00000  Uiso   1.00
H1853  H     0.73660   0.73244   0.97418   0.00000  Uiso   1.00
H1854  H     0.90117   0.96013   0.88478   0.00000  Uiso   1.00
H1855  H     0.84714   0.73386   0.94566   0.00000  Uiso   1.00
H1856  H     0.83348   0.73225   0.66956   0.00000  Uiso   1.00
H1857  H     0.79200   0.99561   0.99077   0.00000  Uiso   1.00
H1858  H     0.85714   0.99552   0.97643   0.00000  Uiso   1.00
H1859  H     0.80190   0.99647   0.93170   0.00000  Uiso   1.00
H1860  H     0.93788   0.85300   0.95730   0.00000  Uiso   1.00
H1861  H     0.89959   0.89453   0.93640   0.00000  Uiso   1.00
H1862  H     0.76613   0.75698   0.70975   0.00000  Uiso   1.00
H1863  H     0.72140   0.79301   0.68562   0.00000  Uiso   1.00
H1864  H     0.67320   0.77592   0.77573   0.00000  Uiso   1.00
H1865  H     0.99346   0.82195   0.74746   0.00000  Uiso   1.00
H1866  H     0.99220   0.89060   0.89152   0.00000  Uiso   1.00
H1867  H     0.67572   0.84446   0.91863   0.00000  Uiso   1.00
H1868  H     0.75865   0.96637   0.73959   0.00000  Uiso   1.00
H1869  H     0.72009   0.96668   0.78055   0.00000  Uiso   1.00
H1870  H     0.93804   0.72482   0.86998   0.00000  Uiso   1.00
N1871  N     0.83332   0.83332   0.95240   0.00000  Uiso   1.00
N1872  N     0.83335   0.83334   0.71427   0.00000  Uiso   1.00
N1873  N     0.98806   0.80490   0.77663   0.00000  Uiso   1.00
N1874  N     0.67870   0.86238   0.88951   0.00000  Uiso   1.00
N1875  N     0.75613   0.95700   0.77301   0.00000  Uiso   1.00
N1876  N     0.91457   0.71031   0.89131   0.00000  Uiso   1.00
N1877  N     0.91270   0.87626   0.96495   0.00000  Uiso   1.00
N1878  N     0.75738   0.78887   0.70628   0.00000  Uiso   1.00
O1879  O     0.83333   0.77225   0.87154   0.00000  Uiso   1.00
O1880  O     0.76289   0.78520   0.94182   0.00000  Uiso   1.00
O1881  O     0.83334   0.89442   0.79513   0.00000  Uiso   1.00
O1882  O     0.83333   0.77226   0.79510   0.00000  Uiso   1.00
O1883  O     0.83334   0.89441   0.87157   0.00000  Uiso   1.00
O1884  O     0.75725   0.83333   0.86261   0.00000  Uiso   1.00
O1885  O     0.90942   0.83334   0.80405   0.00000  Uiso   1.00
O1886  O     0.75725   0.83334   0.78617   0.00000  Uiso   1.00
O1887  O     0.90942   0.83333   0.88050   0.00000  Uiso   1.00
O1888  O     0.90476   0.88074   0.72393   0.00000  Uiso   1.00
Zn1889 Zn    0.83333   0.83333   0.88437   0.00000  Uiso   1.00
Zn1890 Zn    0.83333   0.83334   0.78229   0.00000  Uiso   1.00
loop_
_geom_bond_atom_site_label_1
_geom_bond_atom_site_label_2
_geom_bond_distance
_geom_bond_site_symmetry_2
_ccdc_geom_bond_type
C1     C4      1.404   .     S
C1     O62     1.282   .     A
C1     O59     1.284   .     A
C2     C4      1.401   .     A
C2     N56     1.439   .     S
C2     C441    1.381   1_545 S
C3     C12     1.405   .     S
C3     C21     1.394   .     A
C3     C22     1.397   .     A
C4     C20     1.392   .     A
C5     N52     1.362   .     A
C5     O68     1.383   .     S
C5     C1267   1.421   1_554 S
C6     N51     1.372   .     A
C6     O60     1.388   .     S
C6     C638    1.443   .     S
C7     N51     1.379   .     A
C7     N57     1.427   .     S
C7     C635    1.421   .     S
C8     N52     1.369   .     A
C8     N58     1.430   .     S
C8     C1266   1.443   1_554 S
C9     C10     1.527   .     S
C9     O68     1.415   .     S
C9     H26     1.110   .     S
C9     H25     1.115   .     S
C10    H27     1.110   .     S
C10    C11     1.527   .     S
C10    H28     1.109   .     S
C11    H239    1.111   .     S
C11    H240    1.111   .     S
C11    H241    1.110   .     S
C12    O61     1.283   .     A
C12    O63     1.283   .     A
C13    H33     1.108   .     S
C13    C14     1.548   .     S
C13    H32     1.111   .     S
C13    O60     1.424   .     S
C14    H35     1.106   .     S
C14    C15     1.526   .     S
C14    H666    1.110   .     S
C15    H457    1.111   1_545 S
C15    H458    1.109   1_545 S
C15    H459    1.111   1_545 S
C16    O64     1.277   .     A
C16    O66     1.289   .     A
C16    C18     1.410   .     S
C17    O65     1.276   .     A
C17    C19     1.410   .     S
C17    O67     1.291   .     A
C18    C159    1.354   1_455 S
C18    N193    1.443   1_455 S
C19    C88     1.354   .     S
C19    N124    1.442   .     S
C20    H23     1.085   .     S
C20    C442    1.375   1_545 S
C21    H34     1.084   .     S
C21    C212    1.381   .     S
C22    N55     1.433   .     S
C22    C230    1.375   .     S
H24    N56     1.046   .     S
H29    C431    1.111   1_545 S
H30    C431    1.111   1_545 S
H31    C431    1.110   1_545 S
H36    C1274   1.110   1_554 S
H37    C225    1.111   .     S
H38    C225    1.109   .     S
H39    C225    1.111   .     S
H40    N57     1.042   .     S
H41    N57     1.040   .     S
H42    N58     1.043   .     S
H43    N58     1.045   .     S
H44    N193    1.046   1_455 S
H45    N53     1.046   .     S
H46    N124    1.046   .     S
H47    N54     1.045   .     S
H48    N55     1.046   .     S
H49    N55     1.045   .     S
H50    N56     1.046   .     S
N51    Zn69    2.021   .     S
N52    Zn70    2.021   .     S
N53    H114    1.046   .     S
N53    C88     1.443   .     S
N54    H186    1.046   1_455 S
N54    C159    1.442   1_455 S
O59    Zn69    1.984   .     S
O61    Zn70    1.984   .     S
O62    Zn70    1.978   .     S
O63    Zn69    1.978   .     S
O64    Zn69    1.982   .     S
O65    Zn70    1.982   .     S
O66    Zn70    1.996   .     S
O67    Zn69    1.996   .     S
C71    C74     1.404   .     S
C71    O132    1.282   .     A
C71    O129    1.284   .     A
C72    C74     1.401   .     A
C72    N126    1.439   .     S
C72    C511    1.381   1_545 S
C73    C82     1.405   .     S
C73    C91     1.394   .     A
C73    C92     1.397   .     A
C74    C90     1.392   .     A
C75    N122    1.362   .     A
C75    O138    1.383   .     S
C75    C1337   1.421   1_554 S
C76    N121    1.372   .     A
C76    O130    1.388   .     S
C76    C708    1.443   .     S
C77    N121    1.379   .     A
C77    N127    1.427   .     S
C77    C705    1.421   .     S
C78    N122    1.369   .     A
C78    N128    1.430   .     S
C78    C1336   1.443   1_554 S
C79    C80     1.527   .     S
C79    O138    1.415   .     S
C79    H96     1.110   .     S
C79    H95     1.115   .     S
C80    H97     1.110   .     S
C80    C81     1.527   .     S
C80    H98     1.109   .     S
C81    H309    1.111   .     S
C81    H310    1.111   .     S
C81    H311    1.110   .     S
C82    O131    1.283   .     A
C82    O133    1.283   .     A
C83    H103    1.108   .     S
C83    C84     1.548   .     S
C83    H102    1.111   .     S
C83    O130    1.424   .     S
C84    H105    1.106   .     S
C84    C85     1.526   .     S
C84    H736    1.110   .     S
C85    H527    1.111   1_545 S
C85    H528    1.109   1_545 S
C85    H529    1.111   1_545 S
C86    O134    1.277   .     A
C86    O136    1.289   .     A
C86    C88     1.410   .     S
C87    O135    1.276   .     A
C87    C89     1.410   .     S
C87    O137    1.291   .     A
C89    C158    1.354   .     S
C89    N194    1.442   .     S
C90    H93     1.085   .     S
C90    C512    1.375   1_545 S
C91    H104    1.084   .     S
C91    C282    1.381   .     S
C92    N125    1.433   .     S
C92    C300    1.375   .     S
H94    N126    1.046   .     S
H99    C501    1.111   1_545 S
H100   C501    1.111   1_545 S
H101   C501    1.110   1_545 S
H106   C1344   1.110   1_554 S
H107   C295    1.111   .     S
H108   C295    1.109   .     S
H109   C295    1.111   .     S
H110   N127    1.042   .     S
H111   N127    1.040   .     S
H112   N128    1.043   .     S
H113   N128    1.045   .     S
H115   N123    1.046   .     S
H116   N194    1.046   .     S
H117   N124    1.045   .     S
H118   N125    1.046   .     S
H119   N125    1.045   .     S
H120   N126    1.046   .     S
N121   Zn139   2.021   .     S
N122   Zn140   2.021   .     S
N123   H184    1.046   .     S
N123   C158    1.443   .     S
O129   Zn139   1.984   .     S
O131   Zn140   1.984   .     S
O132   Zn140   1.978   .     S
O133   Zn139   1.978   .     S
O134   Zn139   1.982   .     S
O135   Zn140   1.982   .     S
O136   Zn140   1.996   .     S
O137   Zn139   1.996   .     S
C141   C144    1.404   .     S
C141   O202    1.282   .     A
C141   O199    1.284   .     A
C142   C144    1.401   .     A
C142   N196    1.439   .     S
C142   C581    1.381   1_545 S
C143   C152    1.405   .     S
C143   C161    1.394   .     A
C143   C162    1.397   .     A
C144   C160    1.392   .     A
C145   N192    1.362   .     A
C145   O208    1.383   .     S
C145   C1407   1.421   1_554 S
C146   N191    1.372   .     A
C146   O200    1.388   .     S
C146   C778    1.443   .     S
C147   N191    1.379   .     A
C147   N197    1.427   .     S
C147   C775    1.421   .     S
C148   N192    1.369   .     A
C148   N198    1.430   .     S
C148   C1406   1.443   1_554 S
C149   C150    1.527   .     S
C149   O208    1.415   .     S
C149   H166    1.110   .     S
C149   H165    1.115   .     S
C150   H167    1.110   .     S
C150   C151    1.527   .     S
C150   H168    1.109   .     S
C151   H379    1.111   .     S
C151   H380    1.111   .     S
C151   H381    1.110   .     S
C152   O201    1.283   .     A
C152   O203    1.283   .     A
C153   H173    1.108   .     S
C153   C154    1.548   .     S
C153   H172    1.111   .     S
C153   O200    1.424   .     S
C154   H175    1.106   .     S
C154   C155    1.526   .     S
C154   H806    1.110   .     S
C155   H597    1.111   1_545 S
C155   H598    1.109   1_545 S
C155   H599    1.111   1_545 S
C156   O204    1.277   .     A
C156   O206    1.289   .     A
C156   C158    1.410   .     S
C157   O205    1.276   .     A
C157   C159    1.410   .     S
C157   O207    1.291   .     A
C159   C18     1.354   1_655 S
C159   N54     1.442   1_655 S
C160   H163    1.085   .     S
C160   C582    1.375   1_545 S
C161   H174    1.084   .     S
C161   C352    1.381   .     S
C162   N195    1.433   .     S
C162   C370    1.375   .     S
H164   N196    1.046   .     S
H169   C571    1.111   1_545 S
H170   C571    1.111   1_545 S
H171   C571    1.110   1_545 S
H176   C1414   1.110   1_554 S
H177   C365    1.111   .     S
H178   C365    1.109   .     S
H179   C365    1.111   .     S
H180   N197    1.042   .     S
H181   N197    1.040   .     S
H182   N198    1.043   .     S
H183   N198    1.045   .     S
H185   N193    1.046   .     S
H186   N54     1.046   1_655 S
H187   N194    1.045   .     S
H188   N195    1.046   .     S
H189   N195    1.045   .     S
H190   N196    1.046   .     S
N191   Zn209   2.021   .     S
N192   Zn210   2.021   .     S
N193   H44     1.046   1_655 S
N193   C18     1.443   1_655 S
O199   Zn209   1.984   .     S
O201   Zn210   1.984   .     S
O202   Zn210   1.978   .     S
O203   Zn209   1.978   .     S
O204   Zn209   1.982   .     S
O205   Zn210   1.982   .     S
O206   Zn210   1.996   .     S
O207   Zn209   1.996   .     S
C211   C214    1.404   .     S
C211   O272    1.282   .     A
C211   O269    1.284   .     A
C212   C214    1.401   .     A
C212   N266    1.439   .     S
C213   C222    1.405   .     S
C213   C231    1.394   .     A
C213   C232    1.397   .     A
C214   C230    1.392   .     A
C215   N262    1.362   .     A
C215   O278    1.383   .     S
C215   C1477   1.421   1_554 S
C216   N261    1.372   .     A
C216   O270    1.388   .     S
C216   C848    1.443   .     S
C217   N261    1.379   .     A
C217   N267    1.427   .     S
C217   C845    1.421   .     S
C218   N262    1.369   .     A
C218   N268    1.430   .     S
C218   C1476   1.443   1_554 S
C219   C220    1.527   .     S
C219   O278    1.415   .     S
C219   H236    1.110   .     S
C219   H235    1.115   .     S
C220   H237    1.110   .     S
C220   C221    1.527   .     S
C220   H238    1.109   .     S
C221   H449    1.111   .     S
C221   H450    1.111   .     S
C221   H451    1.110   .     S
C222   O271    1.283   .     A
C222   O273    1.283   .     A
C223   H243    1.108   .     S
C223   C224    1.548   .     S
C223   H242    1.111   .     S
C223   O270    1.424   .     S
C224   H245    1.106   .     S
C224   C225    1.526   .     S
C224   H876    1.110   .     S
C226   O274    1.277   .     A
C226   O276    1.289   .     A
C226   C228    1.410   .     S
C227   O275    1.276   .     A
C227   C229    1.410   .     S
C227   O277    1.291   .     A
C228   C369    1.354   1_455 S
C228   N403    1.443   1_455 S
C229   C298    1.354   .     S
C229   N334    1.442   .     S
C230   H233    1.085   .     S
C231   H244    1.084   .     S
C231   C422    1.381   .     S
C232   N265    1.433   .     S
C232   C440    1.375   .     S
H234   N266    1.046   .     S
H246   C1484   1.110   1_554 S
H247   C435    1.111   .     S
H248   C435    1.109   .     S
H249   C435    1.111   .     S
H250   N267    1.042   .     S
H251   N267    1.040   .     S
H252   N268    1.043   .     S
H253   N268    1.045   .     S
H254   N403    1.046   1_455 S
H255   N263    1.046   .     S
H256   N334    1.046   .     S
H257   N264    1.045   .     S
H258   N265    1.046   .     S
H259   N265    1.045   .     S
H260   N266    1.046   .     S
N261   Zn279   2.021   .     S
N262   Zn280   2.021   .     S
N263   H324    1.046   .     S
N263   C298    1.443   .     S
N264   H396    1.046   1_455 S
N264   C369    1.442   1_455 S
O269   Zn279   1.984   .     S
O271   Zn280   1.984   .     S
O272   Zn280   1.978   .     S
O273   Zn279   1.978   .     S
O274   Zn279   1.982   .     S
O275   Zn280   1.982   .     S
O276   Zn280   1.996   .     S
O277   Zn279   1.996   .     S
C281   C284    1.404   .     S
C281   O342    1.282   .     A
C281   O339    1.284   .     A
C282   C284    1.401   .     A
C282   N336    1.439   .     S
C283   C292    1.405   .     S
C283   C301    1.394   .     A
C283   C302    1.397   .     A
C284   C300    1.392   .     A
C285   N332    1.362   .     A
C285   O348    1.383   .     S
C285   C1547   1.421   1_554 S
C286   N331    1.372   .     A
C286   O340    1.388   .     S
C286   C918    1.443   .     S
C287   N331    1.379   .     A
C287   N337    1.427   .     S
C287   C915    1.421   .     S
C288   N332    1.369   .     A
C288   N338    1.430   .     S
C288   C1546   1.443   1_554 S
C289   C290    1.527   .     S
C289   O348    1.415   .     S
C289   H306    1.110   .     S
C289   H305    1.115   .     S
C290   H307    1.110   .     S
C290   C291    1.527   .     S
C290   H308    1.109   .     S
C291   H519    1.111   .     S
C291   H520    1.111   .     S
C291   H521    1.110   .     S
C292   O341    1.283   .     A
C292   O343    1.283   .     A
C293   H313    1.108   .     S
C293   C294    1.548   .     S
C293   H312    1.111   .     S
C293   O340    1.424   .     S
C294   H315    1.106   .     S
C294   C295    1.526   .     S
C294   H946    1.110   .     S
C296   O344    1.277   .     A
C296   O346    1.289   .     A
C296   C298    1.410   .     S
C297   O345    1.276   .     A
C297   C299    1.410   .     S
C297   O347    1.291   .     A
C299   C368    1.354   .     S
C299   N404    1.442   .     S
C300   H303    1.085   .     S
C301   H314    1.084   .     S
C301   C492    1.381   .     S
C302   N335    1.433   .     S
C302   C510    1.375   .     S
H304   N336    1.046   .     S
H316   C1554   1.110   1_554 S
H317   C505    1.111   .     S
H318   C505    1.109   .     S
H319   C505    1.111   .     S
H320   N337    1.042   .     S
H321   N337    1.040   .     S
H322   N338    1.043   .     S
H323   N338    1.045   .     S
H325   N333    1.046   .     S
H326   N404    1.046   .     S
H327   N334    1.045   .     S
H328   N335    1.046   .     S
H329   N335    1.045   .     S
H330   N336    1.046   .     S
N331   Zn349   2.021   .     S
N332   Zn350   2.021   .     S
N333   H394    1.046   .     S
N333   C368    1.443   .     S
O339   Zn349   1.984   .     S
O341   Zn350   1.984   .     S
O342   Zn350   1.978   .     S
O343   Zn349   1.978   .     S
O344   Zn349   1.982   .     S
O345   Zn350   1.982   .     S
O346   Zn350   1.996   .     S
O347   Zn349   1.996   .     S
C351   C354    1.404   .     S
C351   O412    1.282   .     A
C351   O409    1.284   .     A
C352   C354    1.401   .     A
C352   N406    1.439   .     S
C353   C362    1.405   .     S
C353   C371    1.394   .     A
C353   C372    1.397   .     A
C354   C370    1.392   .     A
C355   N402    1.362   .     A
C355   O418    1.383   .     S
C355   C1617   1.421   1_554 S
C356   N401    1.372   .     A
C356   O410    1.388   .     S
C356   C988    1.443   .     S
C357   N401    1.379   .     A
C357   N407    1.427   .     S
C357   C985    1.421   .     S
C358   N402    1.369   .     A
C358   N408    1.430   .     S
C358   C1616   1.443   1_554 S
C359   C360    1.527   .     S
C359   O418    1.415   .     S
C359   H376    1.110   .     S
C359   H375    1.115   .     S
C360   H377    1.110   .     S
C360   C361    1.527   .     S
C360   H378    1.109   .     S
C361   H589    1.111   .     S
C361   H590    1.111   .     S
C361   H591    1.110   .     S
C362   O411    1.283   .     A
C362   O413    1.283   .     A
C363   H383    1.108   .     S
C363   C364    1.548   .     S
C363   H382    1.111   .     S
C363   O410    1.424   .     S
C364   H385    1.106   .     S
C364   C365    1.526   .     S
C364   H1016   1.110   .     S
C366   O414    1.277   .     A
C366   O416    1.289   .     A
C366   C368    1.410   .     S
C367   O415    1.276   .     A
C367   C369    1.410   .     S
C367   O417    1.291   .     A
C369   C228    1.354   1_655 S
C369   N264    1.442   1_655 S
C370   H373    1.085   .     S
C371   H384    1.084   .     S
C371   C562    1.381   .     S
C372   N405    1.433   .     S
C372   C580    1.375   .     S
H374   N406    1.046   .     S
H386   C1624   1.110   1_554 S
H387   C575    1.111   .     S
H388   C575    1.109   .     S
H389   C575    1.111   .     S
H390   N407    1.042   .     S
H391   N407    1.040   .     S
H392   N408    1.043   .     S
H393   N408    1.045   .     S
H395   N403    1.046   .     S
H396   N264    1.046   1_655 S
H397   N404    1.045   .     S
H398   N405    1.046   .     S
H399   N405    1.045   .     S
H400   N406    1.046   .     S
N401   Zn419   2.021   .     S
N402   Zn420   2.021   .     S
N403   H254    1.046   1_655 S
N403   C228    1.443   1_655 S
O409   Zn419   1.984   .     S
O411   Zn420   1.984   .     S
O412   Zn420   1.978   .     S
O413   Zn419   1.978   .     S
O414   Zn419   1.982   .     S
O415   Zn420   1.982   .     S
O416   Zn420   1.996   .     S
O417   Zn419   1.996   .     S
C421   C424    1.404   .     S
C421   O482    1.282   .     A
C421   O479    1.284   .     A
C422   C424    1.401   .     A
C422   N476    1.439   .     S
C423   C432    1.405   .     S
C423   C441    1.394   .     A
C423   C442    1.397   .     A
C424   C440    1.392   .     A
C425   N472    1.362   .     A
C425   O488    1.383   .     S
C425   C1687   1.421   1_554 S
C426   N471    1.372   .     A
C426   O480    1.388   .     S
C426   C1058   1.443   .     S
C427   N471    1.379   .     A
C427   N477    1.427   .     S
C427   C1055   1.421   .     S
C428   N472    1.369   .     A
C428   N478    1.430   .     S
C428   C1686   1.443   1_554 S
C429   C430    1.527   .     S
C429   O488    1.415   .     S
C429   H446    1.110   .     S
C429   H445    1.115   .     S
C430   H447    1.110   .     S
C430   C431    1.527   .     S
C430   H448    1.109   .     S
C431   H29     1.111   1_565 S
C431   H30     1.111   1_565 S
C431   H31     1.110   1_565 S
C432   O481    1.283   .     A
C432   O483    1.283   .     A
C433   H453    1.108   .     S
C433   C434    1.548   .     S
C433   H452    1.111   .     S
C433   O480    1.424   .     S
C434   H455    1.106   .     S
C434   C435    1.526   .     S
C434   H1086   1.110   .     S
C436   O484    1.277   .     A
C436   O486    1.289   .     A
C436   C438    1.410   .     S
C437   O485    1.276   .     A
C437   C439    1.410   .     S
C437   O487    1.291   .     A
C438   C579    1.354   1_455 S
C438   N613    1.443   1_455 S
C439   C508    1.354   .     S
C439   N544    1.442   .     S
C440   H443    1.085   .     S
C441   H454    1.084   .     S
C441   C2      1.381   1_565 S
C442   N475    1.433   .     S
C442   C20     1.375   1_565 S
H444   N476    1.046   .     S
H456   C1694   1.110   1_554 S
H457   C15     1.111   1_565 S
H458   C15     1.109   1_565 S
H459   C15     1.111   1_565 S
H460   N477    1.042   .     S
H461   N477    1.040   .     S
H462   N478    1.043   .     S
H463   N478    1.045   .     S
H464   N613    1.046   1_455 S
H465   N473    1.046   .     S
H466   N544    1.046   .     S
H467   N474    1.045   .     S
H468   N475    1.046   .     S
H469   N475    1.045   .     S
H470   N476    1.046   .     S
N471   Zn489   2.021   .     S
N472   Zn490   2.021   .     S
N473   H534    1.046   .     S
N473   C508    1.443   .     S
N474   H606    1.046   1_455 S
N474   C579    1.442   1_455 S
O479   Zn489   1.984   .     S
O481   Zn490   1.984   .     S
O482   Zn490   1.978   .     S
O483   Zn489   1.978   .     S
O484   Zn489   1.982   .     S
O485   Zn490   1.982   .     S
O486   Zn490   1.996   .     S
O487   Zn489   1.996   .     S
C491   C494    1.404   .     S
C491   O552    1.282   .     A
C491   O549    1.284   .     A
C492   C494    1.401   .     A
C492   N546    1.439   .     S
C493   C502    1.405   .     S
C493   C511    1.394   .     A
C493   C512    1.397   .     A
C494   C510    1.392   .     A
C495   N542    1.362   .     A
C495   O558    1.383   .     S
C495   C1757   1.421   1_554 S
C496   N541    1.372   .     A
C496   O550    1.388   .     S
C496   C1128   1.443   .     S
C497   N541    1.379   .     A
C497   N547    1.427   .     S
C497   C1125   1.421   .     S
C498   N542    1.369   .     A
C498   N548    1.430   .     S
C498   C1756   1.443   1_554 S
C499   C500    1.527   .     S
C499   O558    1.415   .     S
C499   H516    1.110   .     S
C499   H515    1.115   .     S
C500   H517    1.110   .     S
C500   C501    1.527   .     S
C500   H518    1.109   .     S
C501   H99     1.111   1_565 S
C501   H100    1.111   1_565 S
C501   H101    1.110   1_565 S
C502   O551    1.283   .     A
C502   O553    1.283   .     A
C503   H523    1.108   .     S
C503   C504    1.548   .     S
C503   H522    1.111   .     S
C503   O550    1.424   .     S
C504   H525    1.106   .     S
C504   C505    1.526   .     S
C504   H1156   1.110   .     S
C506   O554    1.277   .     A
C506   O556    1.289   .     A
C506   C508    1.410   .     S
C507   O555    1.276   .     A
C507   C509    1.410   .     S
C507   O557    1.291   .     A
C509   C578    1.354   .     S
C509   N614    1.442   .     S
C510   H513    1.085   .     S
C511   H524    1.084   .     S
C511   C72     1.381   1_565 S
C512   N545    1.433   .     S
C512   C90     1.375   1_565 S
H514   N546    1.046   .     S
H526   C1764   1.110   1_554 S
H527   C85     1.111   1_565 S
H528   C85     1.109   1_565 S
H529   C85     1.111   1_565 S
H530   N547    1.042   .     S
H531   N547    1.040   .     S
H532   N548    1.043   .     S
H533   N548    1.045   .     S
H535   N543    1.046   .     S
H536   N614    1.046   .     S
H537   N544    1.045   .     S
H538   N545    1.046   .     S
H539   N545    1.045   .     S
H540   N546    1.046   .     S
N541   Zn559   2.021   .     S
N542   Zn560   2.021   .     S
N543   H604    1.046   .     S
N543   C578    1.443   .     S
O549   Zn559   1.984   .     S
O551   Zn560   1.984   .     S
O552   Zn560   1.978   .     S
O553   Zn559   1.978   .     S
O554   Zn559   1.982   .     S
O555   Zn560   1.982   .     S
O556   Zn560   1.996   .     S
O557   Zn559   1.996   .     S
C561   C564    1.404   .     S
C561   O622    1.282   .     A
C561   O619    1.284   .     A
C562   C564    1.401   .     A
C562   N616    1.439   .     S
C563   C572    1.405   .     S
C563   C581    1.394   .     A
C563   C582    1.397   .     A
C564   C580    1.392   .     A
C565   N612    1.362   .     A
C565   O628    1.383   .     S
C565   C1827   1.421   1_554 S
C566   N611    1.372   .     A
C566   O620    1.388   .     S
C566   C1198   1.443   .     S
C567   N611    1.379   .     A
C567   N617    1.427   .     S
C567   C1195   1.421   .     S
C568   N612    1.369   .     A
C568   N618    1.430   .     S
C568   C1826   1.443   1_554 S
C569   C570    1.527   .     S
C569   O628    1.415   .     S
C569   H586    1.110   .     S
C569   H585    1.115   .     S
C570   H587    1.110   .     S
C570   C571    1.527   .     S
C570   H588    1.109   .     S
C571   H169    1.111   1_565 S
C571   H170    1.111   1_565 S
C571   H171    1.110   1_565 S
C572   O621    1.283   .     A
C572   O623    1.283   .     A
C573   H593    1.108   .     S
C573   C574    1.548   .     S
C573   H592    1.111   .     S
C573   O620    1.424   .     S
C574   H595    1.106   .     S
C574   C575    1.526   .     S
C574   H1226   1.110   .     S
C576   O624    1.277   .     A
C576   O626    1.289   .     A
C576   C578    1.410   .     S
C577   O625    1.276   .     A
C577   C579    1.410   .     S
C577   O627    1.291   .     A
C579   C438    1.354   1_655 S
C579   N474    1.442   1_655 S
C580   H583    1.085   .     S
C581   H594    1.084   .     S
C581   C142    1.381   1_565 S
C582   N615    1.433   .     S
C582   C160    1.375   1_565 S
H584   N616    1.046   .     S
H596   C1834   1.110   1_554 S
H597   C155    1.111   1_565 S
H598   C155    1.109   1_565 S
H599   C155    1.111   1_565 S
H600   N617    1.042   .     S
H601   N617    1.040   .     S
H602   N618    1.043   .     S
H603   N618    1.045   .     S
H605   N613    1.046   .     S
H606   N474    1.046   1_655 S
H607   N614    1.045   .     S
H608   N615    1.046   .     S
H609   N615    1.045   .     S
H610   N616    1.046   .     S
N611   Zn629   2.021   .     S
N612   Zn630   2.021   .     S
N613   H464    1.046   1_655 S
N613   C438    1.443   1_655 S
O619   Zn629   1.984   .     S
O621   Zn630   1.984   .     S
O622   Zn630   1.978   .     S
O623   Zn629   1.978   .     S
O624   Zn629   1.982   .     S
O625   Zn630   1.982   .     S
O626   Zn630   1.996   .     S
O627   Zn629   1.996   .     S
C631   C634    1.404   .     S
C631   O692    1.282   .     A
C631   O689    1.284   .     A
C632   C634    1.401   .     A
C632   N686    1.439   .     S
C632   C1071   1.381   1_545 S
C633   C642    1.405   .     S
C633   C651    1.394   .     A
C633   C652    1.397   .     A
C634   C650    1.392   .     A
C635   N682    1.362   .     A
C635   O698    1.383   .     S
C636   N681    1.372   .     A
C636   O690    1.388   .     S
C636   C1268   1.443   .     S
C637   N681    1.379   .     A
C637   N687    1.427   .     S
C637   C1265   1.421   .     S
C638   N682    1.369   .     A
C638   N688    1.430   .     S
C639   C640    1.527   .     S
C639   O698    1.415   .     S
C639   H656    1.110   .     S
C639   H655    1.115   .     S
C640   H657    1.110   .     S
C640   C641    1.527   .     S
C640   H658    1.109   .     S
C641   H869    1.111   .     S
C641   H870    1.111   .     S
C641   H871    1.110   .     S
C642   O691    1.283   .     A
C642   O693    1.283   .     A
C643   H663    1.108   .     S
C643   C644    1.548   .     S
C643   H662    1.111   .     S
C643   O690    1.424   .     S
C644   H665    1.106   .     S
C644   C645    1.526   .     S
C644   H1296   1.110   .     S
C645   H1087   1.111   1_545 S
C645   H1088   1.109   1_545 S
C645   H1089   1.111   1_545 S
C646   O694    1.277   .     A
C646   O696    1.289   .     A
C646   C648    1.410   .     S
C647   O695    1.276   .     A
C647   C649    1.410   .     S
C647   O697    1.291   .     A
C648   C789    1.354   1_455 S
C648   N823    1.443   1_455 S
C649   C718    1.354   .     S
C649   N754    1.442   .     S
C650   H653    1.085   .     S
C650   C1072   1.375   1_545 S
C651   H664    1.084   .     S
C651   C842    1.381   .     S
C652   N685    1.433   .     S
C652   C860    1.375   .     S
H654   N686    1.046   .     S
H659   C1061   1.111   1_545 S
H660   C1061   1.111   1_545 S
H661   C1061   1.110   1_545 S
H667   C855    1.111   .     S
H668   C855    1.109   .     S
H669   C855    1.111   .     S
H670   N687    1.042   .     S
H671   N687    1.040   .     S
H672   N688    1.043   .     S
H673   N688    1.045   .     S
H674   N823    1.046   1_455 S
H675   N683    1.046   .     S
H676   N754    1.046   .     S
H677   N684    1.045   .     S
H678   N685    1.046   .     S
H679   N685    1.045   .     S
H680   N686    1.046   .     S
N681   Zn699   2.021   .     S
N682   Zn700   2.021   .     S
N683   H744    1.046   .     S
N683   C718    1.443   .     S
N684   H816    1.046   1_455 S
N684   C789    1.442   1_455 S
O689   Zn699   1.984   .     S
O691   Zn700   1.984   .     S
O692   Zn700   1.978   .     S
O693   Zn699   1.978   .     S
O694   Zn699   1.982   .     S
O695   Zn700   1.982   .     S
O696   Zn700   1.996   .     S
O697   Zn699   1.996   .     S
C701   C704    1.404   .     S
C701   O762    1.282   .     A
C701   O759    1.284   .     A
C702   C704    1.401   .     A
C702   N756    1.439   .     S
C702   C1141   1.381   1_545 S
C703   C712    1.405   .     S
C703   C721    1.394   .     A
C703   C722    1.397   .     A
C704   C720    1.392   .     A
C705   N752    1.362   .     A
C705   O768    1.383   .     S
C706   N751    1.372   .     A
C706   O760    1.388   .     S
C706   C1338   1.443   .     S
C707   N751    1.379   .     A
C707   N757    1.427   .     S
C707   C1335   1.421   .     S
C708   N752    1.369   .     A
C708   N758    1.430   .     S
C709   C710    1.527   .     S
C709   O768    1.415   .     S
C709   H726    1.110   .     S
C709   H725    1.115   .     S
C710   H727    1.110   .     S
C710   C711    1.527   .     S
C710   H728    1.109   .     S
C711   H939    1.111   .     S
C711   H940    1.111   .     S
C711   H941    1.110   .     S
C712   O761    1.283   .     A
C712   O763    1.283   .     A
C713   H733    1.108   .     S
C713   C714    1.548   .     S
C713   H732    1.111   .     S
C713   O760    1.424   .     S
C714   H735    1.106   .     S
C714   C715    1.526   .     S
C714   H1366   1.110   .     S
C715   H1157   1.111   1_545 S
C715   H1158   1.109   1_545 S
C715   H1159   1.111   1_545 S
C716   O764    1.277   .     A
C716   O766    1.289   .     A
C716   C718    1.410   .     S
C717   O765    1.276   .     A
C717   C719    1.410   .     S
C717   O767    1.291   .     A
C719   C788    1.354   .     S
C719   N824    1.442   .     S
C720   H723    1.085   .     S
C720   C1142   1.375   1_545 S
C721   H734    1.084   .     S
C721   C912    1.381   .     S
C722   N755    1.433   .     S
C722   C930    1.375   .     S
H724   N756    1.046   .     S
H729   C1131   1.111   1_545 S
H730   C1131   1.111   1_545 S
H731   C1131   1.110   1_545 S
H737   C925    1.111   .     S
H738   C925    1.109   .     S
H739   C925    1.111   .     S
H740   N757    1.042   .     S
H741   N757    1.040   .     S
H742   N758    1.043   .     S
H743   N758    1.045   .     S
H745   N753    1.046   .     S
H746   N824    1.046   .     S
H747   N754    1.045   .     S
H748   N755    1.046   .     S
H749   N755    1.045   .     S
H750   N756    1.046   .     S
N751   Zn769   2.021   .     S
N752   Zn770   2.021   .     S
N753   H814    1.046   .     S
N753   C788    1.443   .     S
O759   Zn769   1.984   .     S
O761   Zn770   1.984   .     S
O762   Zn770   1.978   .     S
O763   Zn769   1.978   .     S
O764   Zn769   1.982   .     S
O765   Zn770   1.982   .     S
O766   Zn770   1.996   .     S
O767   Zn769   1.996   .     S
C771   C774    1.404   .     S
C771   O832    1.282   .     A
C771   O829    1.284   .     A
C772   C774    1.401   .     A
C772   N826    1.439   .     S
C772   C1211   1.381   1_545 S
C773   C782    1.405   .     S
C773   C791    1.394   .     A
C773   C792    1.397   .     A
C774   C790    1.392   .     A
C775   N822    1.362   .     A
C775   O838    1.383   .     S
C776   N821    1.372   .     A
C776   O830    1.388   .     S
C776   C1408   1.443   .     S
C777   N821    1.379   .     A
C777   N827    1.427   .     S
C777   C1405   1.421   .     S
C778   N822    1.369   .     A
C778   N828    1.430   .     S
C779   C780    1.527   .     S
C779   O838    1.415   .     S
C779   H796    1.110   .     S
C779   H795    1.115   .     S
C780   H797    1.110   .     S
C780   C781    1.527   .     S
C780   H798    1.109   .     S
C781   H1009   1.111   .     S
C781   H1010   1.111   .     S
C781   H1011   1.110   .     S
C782   O831    1.283   .     A
C782   O833    1.283   .     A
C783   H803    1.108   .     S
C783   C784    1.548   .     S
C783   H802    1.111   .     S
C783   O830    1.424   .     S
C784   H805    1.106   .     S
C784   C785    1.526   .     S
C784   H1436   1.110   .     S
C785   H1227   1.111   1_545 S
C785   H1228   1.109   1_545 S
C785   H1229   1.111   1_545 S
C786   O834    1.277   .     A
C786   O836    1.289   .     A
C786   C788    1.410   .     S
C787   O835    1.276   .     A
C787   C789    1.410   .     S
C787   O837    1.291   .     A
C789   C648    1.354   1_655 S
C789   N684    1.442   1_655 S
C790   H793    1.085   .     S
C790   C1212   1.375   1_545 S
C791   H804    1.084   .     S
C791   C982    1.381   .     S
C792   N825    1.433   .     S
C792   C1000   1.375   .     S
H794   N826    1.046   .     S
H799   C1201   1.111   1_545 S
H800   C1201   1.111   1_545 S
H801   C1201   1.110   1_545 S
H807   C995    1.111   .     S
H808   C995    1.109   .     S
H809   C995    1.111   .     S
H810   N827    1.042   .     S
H811   N827    1.040   .     S
H812   N828    1.043   .     S
H813   N828    1.045   .     S
H815   N823    1.046   .     S
H816   N684    1.046   1_655 S
H817   N824    1.045   .     S
H818   N825    1.046   .     S
H819   N825    1.045   .     S
H820   N826    1.046   .     S
N821   Zn839   2.021   .     S
N822   Zn840   2.021   .     S
N823   H674    1.046   1_655 S
N823   C648    1.443   1_655 S
O829   Zn839   1.984   .     S
O831   Zn840   1.984   .     S
O832   Zn840   1.978   .     S
O833   Zn839   1.978   .     S
O834   Zn839   1.982   .     S
O835   Zn840   1.982   .     S
O836   Zn840   1.996   .     S
O837   Zn839   1.996   .     S
C841   C844    1.404   .     S
C841   O902    1.282   .     A
C841   O899    1.284   .     A
C842   C844    1.401   .     A
C842   N896    1.439   .     S
C843   C852    1.405   .     S
C843   C861    1.394   .     A
C843   C862    1.397   .     A
C844   C860    1.392   .     A
C845   N892    1.362   .     A
C845   O908    1.383   .     S
C846   N891    1.372   .     A
C846   O900    1.388   .     S
C846   C1478   1.443   .     S
C847   N891    1.379   .     A
C847   N897    1.427   .     S
C847   C1475   1.421   .     S
C848   N892    1.369   .     A
C848   N898    1.430   .     S
C849   C850    1.527   .     S
C849   O908    1.415   .     S
C849   H866    1.110   .     S
C849   H865    1.115   .     S
C850   H867    1.110   .     S
C850   C851    1.527   .     S
C850   H868    1.109   .     S
C851   H1079   1.111   .     S
C851   H1080   1.111   .     S
C851   H1081   1.110   .     S
C852   O901    1.283   .     A
C852   O903    1.283   .     A
C853   H873    1.108   .     S
C853   C854    1.548   .     S
C853   H872    1.111   .     S
C853   O900    1.424   .     S
C854   H875    1.106   .     S
C854   C855    1.526   .     S
C854   H1506   1.110   .     S
C856   O904    1.277   .     A
C856   O906    1.289   .     A
C856   C858    1.410   .     S
C857   O905    1.276   .     A
C857   C859    1.410   .     S
C857   O907    1.291   .     A
C858   C999    1.354   1_455 S
C858   N1033   1.443   1_455 S
C859   C928    1.354   .     S
C859   N964    1.442   .     S
C860   H863    1.085   .     S
C861   H874    1.084   .     S
C861   C1052   1.381   .     S
C862   N895    1.433   .     S
C862   C1070   1.375   .     S
H864   N896    1.046   .     S
H877   C1065   1.111   .     S
H878   C1065   1.109   .     S
H879   C1065   1.111   .     S
H880   N897    1.042   .     S
H881   N897    1.040   .     S
H882   N898    1.043   .     S
H883   N898    1.045   .     S
H884   N1033   1.046   1_455 S
H885   N893    1.046   .     S
H886   N964    1.046   .     S
H887   N894    1.045   .     S
H888   N895    1.046   .     S
H889   N895    1.045   .     S
H890   N896    1.046   .     S
N891   Zn909   2.021   .     S
N892   Zn910   2.021   .     S
N893   H954    1.046   .     S
N893   C928    1.443   .     S
N894   H1026   1.046   1_455 S
N894   C999    1.442   1_455 S
O899   Zn909   1.984   .     S
O901   Zn910   1.984   .     S
O902   Zn910   1.978   .     S
O903   Zn909   1.978   .     S
O904   Zn909   1.982   .     S
O905   Zn910   1.982   .     S
O906   Zn910   1.996   .     S
O907   Zn909   1.996   .     S
C911   C914    1.404   .     S
C911   O972    1.282   .     A
C911   O969    1.284   .     A
C912   C914    1.401   .     A
C912   N966    1.439   .     S
C913   C922    1.405   .     S
C913   C931    1.394   .     A
C913   C932    1.397   .     A
C914   C930    1.392   .     A
C915   N962    1.362   .     A
C915   O978    1.383   .     S
C916   N961    1.372   .     A
C916   O970    1.388   .     S
C916   C1548   1.443   .     S
C917   N961    1.379   .     A
C917   N967    1.427   .     S
C917   C1545   1.421   .     S
C918   N962    1.369   .     A
C918   N968    1.430   .     S
C919   C920    1.527   .     S
C919   O978    1.415   .     S
C919   H936    1.110   .     S
C919   H935    1.115   .     S
C920   H937    1.110   .     S
C920   C921    1.527   .     S
C920   H938    1.109   .     S
C921   H1149   1.111   .     S
C921   H1150   1.111   .     S
C921   H1151   1.110   .     S
C922   O971    1.283   .     A
C922   O973    1.283   .     A
C923   H943    1.108   .     S
C923   C924    1.548   .     S
C923   H942    1.111   .     S
C923   O970    1.424   .     S
C924   H945    1.106   .     S
C924   C925    1.526   .     S
C924   H1576   1.110   .     S
C926   O974    1.277   .     A
C926   O976    1.289   .     A
C926   C928    1.410   .     S
C927   O975    1.276   .     A
C927   C929    1.410   .     S
C927   O977    1.291   .     A
C929   C998    1.354   .     S
C929   N1034   1.442   .     S
C930   H933    1.085   .     S
C931   H944    1.084   .     S
C931   C1122   1.381   .     S
C932   N965    1.433   .     S
C932   C1140   1.375   .     S
H934   N966    1.046   .     S
H947   C1135   1.111   .     S
H948   C1135   1.109   .     S
H949   C1135   1.111   .     S
H950   N967    1.042   .     S
H951   N967    1.040   .     S
H952   N968    1.043   .     S
H953   N968    1.045   .     S
H955   N963    1.046   .     S
H956   N1034   1.046   .     S
H957   N964    1.045   .     S
H958   N965    1.046   .     S
H959   N965    1.045   .     S
H960   N966    1.046   .     S
N961   Zn979   2.021   .     S
N962   Zn980   2.021   .     S
N963   H1024   1.046   .     S
N963   C998    1.443   .     S
O969   Zn979   1.984   .     S
O971   Zn980   1.984   .     S
O972   Zn980   1.978   .     S
O973   Zn979   1.978   .     S
O974   Zn979   1.982   .     S
O975   Zn980   1.982   .     S
O976   Zn980   1.996   .     S
O977   Zn979   1.996   .     S
C981   C984    1.404   .     S
C981   O1042   1.282   .     A
C981   O1039   1.284   .     A
C982   C984    1.401   .     A
C982   N1036   1.439   .     S
C983   C992    1.405   .     S
C983   C1001   1.394   .     A
C983   C1002   1.397   .     A
C984   C1000   1.392   .     A
C985   N1032   1.362   .     A
C985   O1048   1.383   .     S
C986   N1031   1.372   .     A
C986   O1040   1.388   .     S
C986   C1618   1.443   .     S
C987   N1031   1.379   .     A
C987   N1037   1.427   .     S
C987   C1615   1.421   .     S
C988   N1032   1.369   .     A
C988   N1038   1.430   .     S
C989   C990    1.527   .     S
C989   O1048   1.415   .     S
C989   H1006   1.110   .     S
C989   H1005   1.115   .     S
C990   H1007   1.110   .     S
C990   C991    1.527   .     S
C990   H1008   1.109   .     S
C991   H1219   1.111   .     S
C991   H1220   1.111   .     S
C991   H1221   1.110   .     S
C992   O1041   1.283   .     A
C992   O1043   1.283   .     A
C993   H1013   1.108   .     S
C993   C994    1.548   .     S
C993   H1012   1.111   .     S
C993   O1040   1.424   .     S
C994   H1015   1.106   .     S
C994   C995    1.526   .     S
C994   H1646   1.110   .     S
C996   O1044   1.277   .     A
C996   O1046   1.289   .     A
C996   C998    1.410   .     S
C997   O1045   1.276   .     A
C997   C999    1.410   .     S
C997   O1047   1.291   .     A
C999   C858    1.354   1_655 S
C999   N894    1.442   1_655 S
C1000  H1003   1.085   .     S
C1001  H1014   1.084   .     S
C1001  C1192   1.381   .     S
C1002  N1035   1.433   .     S
C1002  C1210   1.375   .     S
H1004  N1036   1.046   .     S
H1017  C1205   1.111   .     S
H1018  C1205   1.109   .     S
H1019  C1205   1.111   .     S
H1020  N1037   1.042   .     S
H1021  N1037   1.040   .     S
H1022  N1038   1.043   .     S
H1023  N1038   1.045   .     S
H1025  N1033   1.046   .     S
H1026  N894    1.046   1_655 S
H1027  N1034   1.045   .     S
H1028  N1035   1.046   .     S
H1029  N1035   1.045   .     S
H1030  N1036   1.046   .     S
N1031  Zn1049  2.021   .     S
N1032  Zn1050  2.021   .     S
N1033  H884    1.046   1_655 S
N1033  C858    1.443   1_655 S
O1039  Zn1049  1.984   .     S
O1041  Zn1050  1.984   .     S
O1042  Zn1050  1.978   .     S
O1043  Zn1049  1.978   .     S
O1044  Zn1049  1.982   .     S
O1045  Zn1050  1.982   .     S
O1046  Zn1050  1.996   .     S
O1047  Zn1049  1.996   .     S
C1051  C1054   1.404   .     S
C1051  O1112   1.282   .     A
C1051  O1109   1.284   .     A
C1052  C1054   1.401   .     A
C1052  N1106   1.439   .     S
C1053  C1062   1.405   .     S
C1053  C1071   1.394   .     A
C1053  C1072   1.397   .     A
C1054  C1070   1.392   .     A
C1055  N1102   1.362   .     A
C1055  O1118   1.383   .     S
C1056  N1101   1.372   .     A
C1056  O1110   1.388   .     S
C1056  C1688   1.443   .     S
C1057  N1101   1.379   .     A
C1057  N1107   1.427   .     S
C1057  C1685   1.421   .     S
C1058  N1102   1.369   .     A
C1058  N1108   1.430   .     S
C1059  C1060   1.527   .     S
C1059  O1118   1.415   .     S
C1059  H1076   1.110   .     S
C1059  H1075   1.115   .     S
C1060  H1077   1.110   .     S
C1060  C1061   1.527   .     S
C1060  H1078   1.109   .     S
C1061  H659    1.111   1_565 S
C1061  H660    1.111   1_565 S
C1061  H661    1.110   1_565 S
C1062  O1111   1.283   .     A
C1062  O1113   1.283   .     A
C1063  H1083   1.108   .     S
C1063  C1064   1.548   .     S
C1063  H1082   1.111   .     S
C1063  O1110   1.424   .     S
C1064  H1085   1.106   .     S
C1064  C1065   1.526   .     S
C1064  H1716   1.110   .     S
C1066  O1114   1.277   .     A
C1066  O1116   1.289   .     A
C1066  C1068   1.410   .     S
C1067  O1115   1.276   .     A
C1067  C1069   1.410   .     S
C1067  O1117   1.291   .     A
C1068  C1209   1.354   1_455 S
C1068  N1243   1.443   1_455 S
C1069  C1138   1.354   .     S
C1069  N1174   1.442   .     S
C1070  H1073   1.085   .     S
C1071  H1084   1.084   .     S
C1071  C632    1.381   1_565 S
C1072  N1105   1.433   .     S
C1072  C650    1.375   1_565 S
H1074  N1106   1.046   .     S
H1087  C645    1.111   1_565 S
H1088  C645    1.109   1_565 S
H1089  C645    1.111   1_565 S
H1090  N1107   1.042   .     S
H1091  N1107   1.040   .     S
H1092  N1108   1.043   .     S
H1093  N1108   1.045   .     S
H1094  N1243   1.046   1_455 S
H1095  N1103   1.046   .     S
H1096  N1174   1.046   .     S
H1097  N1104   1.045   .     S
H1098  N1105   1.046   .     S
H1099  N1105   1.045   .     S
H1100  N1106   1.046   .     S
N1101  Zn1119  2.021   .     S
N1102  Zn1120  2.021   .     S
N1103  H1164   1.046   .     S
N1103  C1138   1.443   .     S
N1104  H1236   1.046   1_455 S
N1104  C1209   1.442   1_455 S
O1109  Zn1119  1.984   .     S
O1111  Zn1120  1.984   .     S
O1112  Zn1120  1.978   .     S
O1113  Zn1119  1.978   .     S
O1114  Zn1119  1.982   .     S
O1115  Zn1120  1.982   .     S
O1116  Zn1120  1.996   .     S
O1117  Zn1119  1.996   .     S
C1121  C1124   1.404   .     S
C1121  O1182   1.282   .     A
C1121  O1179   1.284   .     A
C1122  C1124   1.401   .     A
C1122  N1176   1.439   .     S
C1123  C1132   1.405   .     S
C1123  C1141   1.394   .     A
C1123  C1142   1.397   .     A
C1124  C1140   1.392   .     A
C1125  N1172   1.362   .     A
C1125  O1188   1.383   .     S
C1126  N1171   1.372   .     A
C1126  O1180   1.388   .     S
C1126  C1758   1.443   .     S
C1127  N1171   1.379   .     A
C1127  N1177   1.427   .     S
C1127  C1755   1.421   .     S
C1128  N1172   1.369   .     A
C1128  N1178   1.430   .     S
C1129  C1130   1.527   .     S
C1129  O1188   1.415   .     S
C1129  H1146   1.110   .     S
C1129  H1145   1.115   .     S
C1130  H1147   1.110   .     S
C1130  C1131   1.527   .     S
C1130  H1148   1.109   .     S
C1131  H729    1.111   1_565 S
C1131  H730    1.111   1_565 S
C1131  H731    1.110   1_565 S
C1132  O1181   1.283   .     A
C1132  O1183   1.283   .     A
C1133  H1153   1.108   .     S
C1133  C1134   1.548   .     S
C1133  H1152   1.111   .     S
C1133  O1180   1.424   .     S
C1134  H1155   1.106   .     S
C1134  C1135   1.526   .     S
C1134  H1786   1.110   .     S
C1136  O1184   1.277   .     A
C1136  O1186   1.289   .     A
C1136  C1138   1.410   .     S
C1137  O1185   1.276   .     A
C1137  C1139   1.410   .     S
C1137  O1187   1.291   .     A
C1139  C1208   1.354   .     S
C1139  N1244   1.442   .     S
C1140  H1143   1.085   .     S
C1141  H1154   1.084   .     S
C1141  C702    1.381   1_565 S
C1142  N1175   1.433   .     S
C1142  C720    1.375   1_565 S
H1144  N1176   1.046   .     S
H1157  C715    1.111   1_565 S
H1158  C715    1.109   1_565 S
H1159  C715    1.111   1_565 S
H1160  N1177   1.042   .     S
H1161  N1177   1.040   .     S
H1162  N1178   1.043   .     S
H1163  N1178   1.045   .     S
H1165  N1173   1.046   .     S
H1166  N1244   1.046   .     S
H1167  N1174   1.045   .     S
H1168  N1175   1.046   .     S
H1169  N1175   1.045   .     S
H1170  N1176   1.046   .     S
N1171  Zn1189  2.021   .     S
N1172  Zn1190  2.021   .     S
N1173  H1234   1.046   .     S
N1173  C1208   1.443   .     S
O1179  Zn1189  1.984   .     S
O1181  Zn1190  1.984   .     S
O1182  Zn1190  1.978   .     S
O1183  Zn1189  1.978   .     S
O1184  Zn1189  1.982   .     S
O1185  Zn1190  1.982   .     S
O1186  Zn1190  1.996   .     S
O1187  Zn1189  1.996   .     S
C1191  C1194   1.404   .     S
C1191  O1252   1.282   .     A
C1191  O1249   1.284   .     A
C1192  C1194   1.401   .     A
C1192  N1246   1.439   .     S
C1193  C1202   1.405   .     S
C1193  C1211   1.394   .     A
C1193  C1212   1.397   .     A
C1194  C1210   1.392   .     A
C1195  N1242   1.362   .     A
C1195  O1258   1.383   .     S
C1196  N1241   1.372   .     A
C1196  O1250   1.388   .     S
C1196  C1828   1.443   .     S
C1197  N1241   1.379   .     A
C1197  N1247   1.427   .     S
C1197  C1825   1.421   .     S
C1198  N1242   1.369   .     A
C1198  N1248   1.430   .     S
C1199  C1200   1.527   .     S
C1199  O1258   1.415   .     S
C1199  H1216   1.110   .     S
C1199  H1215   1.115   .     S
C1200  H1217   1.110   .     S
C1200  C1201   1.527   .     S
C1200  H1218   1.109   .     S
C1201  H799    1.111   1_565 S
C1201  H800    1.111   1_565 S
C1201  H801    1.110   1_565 S
C1202  O1251   1.283   .     A
C1202  O1253   1.283   .     A
C1203  H1223   1.108   .     S
C1203  C1204   1.548   .     S
C1203  H1222   1.111   .     S
C1203  O1250   1.424   .     S
C1204  H1225   1.106   .     S
C1204  C1205   1.526   .     S
C1204  H1856   1.110   .     S
C1206  O1254   1.277   .     A
C1206  O1256   1.289   .     A
C1206  C1208   1.410   .     S
C1207  O1255   1.276   .     A
C1207  C1209   1.410   .     S
C1207  O1257   1.291   .     A
C1209  C1068   1.354   1_655 S
C1209  N1104   1.442   1_655 S
C1210  H1213   1.085   .     S
C1211  H1224   1.084   .     S
C1211  C772    1.381   1_565 S
C1212  N1245   1.433   .     S
C1212  C790    1.375   1_565 S
H1214  N1246   1.046   .     S
H1227  C785    1.111   1_565 S
H1228  C785    1.109   1_565 S
H1229  C785    1.111   1_565 S
H1230  N1247   1.042   .     S
H1231  N1247   1.040   .     S
H1232  N1248   1.043   .     S
H1233  N1248   1.045   .     S
H1235  N1243   1.046   .     S
H1236  N1104   1.046   1_655 S
H1237  N1244   1.045   .     S
H1238  N1245   1.046   .     S
H1239  N1245   1.045   .     S
H1240  N1246   1.046   .     S
N1241  Zn1259  2.021   .     S
N1242  Zn1260  2.021   .     S
N1243  H1094   1.046   1_655 S
N1243  C1068   1.443   1_655 S
O1249  Zn1259  1.984   .     S
O1251  Zn1260  1.984   .     S
O1252  Zn1260  1.978   .     S
O1253  Zn1259  1.978   .     S
O1254  Zn1259  1.982   .     S
O1255  Zn1260  1.982   .     S
O1256  Zn1260  1.996   .     S
O1257  Zn1259  1.996   .     S
C1261  C1264   1.404   .     S
C1261  O1322   1.282   .     A
C1261  O1319   1.284   .     A
C1262  C1264   1.401   .     A
C1262  N1316   1.439   .     S
C1262  C1701   1.381   1_545 S
C1263  C1272   1.405   .     S
C1263  C1281   1.394   .     A
C1263  C1282   1.397   .     A
C1264  C1280   1.392   .     A
C1265  N1312   1.362   .     A
C1265  O1328   1.383   .     S
C1266  N1311   1.372   .     A
C1266  O1320   1.388   .     S
C1266  C8      1.443   1_556 S
C1267  N1311   1.379   .     A
C1267  N1317   1.427   .     S
C1267  C5      1.421   1_556 S
C1268  N1312   1.369   .     A
C1268  N1318   1.430   .     S
C1269  C1270   1.527   .     S
C1269  O1328   1.415   .     S
C1269  H1286   1.110   .     S
C1269  H1285   1.115   .     S
C1270  H1287   1.110   .     S
C1270  C1271   1.527   .     S
C1270  H1288   1.109   .     S
C1271  H1499   1.111   .     S
C1271  H1500   1.111   .     S
C1271  H1501   1.110   .     S
C1272  O1321   1.283   .     A
C1272  O1323   1.283   .     A
C1273  H1293   1.108   .     S
C1273  C1274   1.548   .     S
C1273  H1292   1.111   .     S
C1273  O1320   1.424   .     S
C1274  H1295   1.106   .     S
C1274  C1275   1.526   .     S
C1274  H36     1.110   1_556 S
C1275  H1717   1.111   1_545 S
C1275  H1718   1.109   1_545 S
C1275  H1719   1.111   1_545 S
C1276  O1324   1.277   .     A
C1276  O1326   1.289   .     A
C1276  C1278   1.410   .     S
C1277  O1325   1.276   .     A
C1277  C1279   1.410   .     S
C1277  O1327   1.291   .     A
C1278  C1419   1.354   1_455 S
C1278  N1453   1.443   1_455 S
C1279  C1348   1.354   .     S
C1279  N1384   1.442   .     S
C1280  H1283   1.085   .     S
C1280  C1702   1.375   1_545 S
C1281  H1294   1.084   .     S
C1281  C1472   1.381   .     S
C1282  N1315   1.433   .     S
C1282  C1490   1.375   .     S
H1284  N1316   1.046   .     S
H1289  C1691   1.111   1_545 S
H1290  C1691   1.111   1_545 S
H1291  C1691   1.110   1_545 S
H1297  C1485   1.111   .     S
H1298  C1485   1.109   .     S
H1299  C1485   1.111   .     S
H1300  N1317   1.042   .     S
H1301  N1317   1.040   .     S
H1302  N1318   1.043   .     S
H1303  N1318   1.045   .     S
H1304  N1453   1.046   1_455 S
H1305  N1313   1.046   .     S
H1306  N1384   1.046   .     S
H1307  N1314   1.045   .     S
H1308  N1315   1.046   .     S
H1309  N1315   1.045   .     S
H1310  N1316   1.046   .     S
N1311  Zn1329  2.021   .     S
N1312  Zn1330  2.021   .     S
N1313  H1374   1.046   .     S
N1313  C1348   1.443   .     S
N1314  H1446   1.046   1_455 S
N1314  C1419   1.442   1_455 S
O1319  Zn1329  1.984   .     S
O1321  Zn1330  1.984   .     S
O1322  Zn1330  1.978   .     S
O1323  Zn1329  1.978   .     S
O1324  Zn1329  1.982   .     S
O1325  Zn1330  1.982   .     S
O1326  Zn1330  1.996   .     S
O1327  Zn1329  1.996   .     S
C1331  C1334   1.404   .     S
C1331  O1392   1.282   .     A
C1331  O1389   1.284   .     A
C1332  C1334   1.401   .     A
C1332  N1386   1.439   .     S
C1332  C1771   1.381   1_545 S
C1333  C1342   1.405   .     S
C1333  C1351   1.394   .     A
C1333  C1352   1.397   .     A
C1334  C1350   1.392   .     A
C1335  N1382   1.362   .     A
C1335  O1398   1.383   .     S
C1336  N1381   1.372   .     A
C1336  O1390   1.388   .     S
C1336  C78     1.443   1_556 S
C1337  N1381   1.379   .     A
C1337  N1387   1.427   .     S
C1337  C75     1.421   1_556 S
C1338  N1382   1.369   .     A
C1338  N1388   1.430   .     S
C1339  C1340   1.527   .     S
C1339  O1398   1.415   .     S
C1339  H1356   1.110   .     S
C1339  H1355   1.115   .     S
C1340  H1357   1.110   .     S
C1340  C1341   1.527   .     S
C1340  H1358   1.109   .     S
C1341  H1569   1.111   .     S
C1341  H1570   1.111   .     S
C1341  H1571   1.110   .     S
C1342  O1391   1.283   .     A
C1342  O1393   1.283   .     A
C1343  H1363   1.108   .     S
C1343  C1344   1.548   .     S
C1343  H1362   1.111   .     S
C1343  O1390   1.424   .     S
C1344  H1365   1.106   .     S
C1344  C1345   1.526   .     S
C1344  H106    1.110   1_556 S
C1345  H1787   1.111   1_545 S
C1345  H1788   1.109   1_545 S
C1345  H1789   1.111   1_545 S
C1346  O1394   1.277   .     A
C1346  O1396   1.289   .     A
C1346  C1348   1.410   .     S
C1347  O1395   1.276   .     A
C1347  C1349   1.410   .     S
C1347  O1397   1.291   .     A
C1349  C1418   1.354   .     S
C1349  N1454   1.442   .     S
C1350  H1353   1.085   .     S
C1350  C1772   1.375   1_545 S
C1351  H1364   1.084   .     S
C1351  C1542   1.381   .     S
C1352  N1385   1.433   .     S
C1352  C1560   1.375   .     S
H1354  N1386   1.046   .     S
H1359  C1761   1.111   1_545 S
H1360  C1761   1.111   1_545 S
H1361  C1761   1.110   1_545 S
H1367  C1555   1.111   .     S
H1368  C1555   1.109   .     S
H1369  C1555   1.111   .     S
H1370  N1387   1.042   .     S
H1371  N1387   1.040   .     S
H1372  N1388   1.043   .     S
H1373  N1388   1.045   .     S
H1375  N1383   1.046   .     S
H1376  N1454   1.046   .     S
H1377  N1384   1.045   .     S
H1378  N1385   1.046   .     S
H1379  N1385   1.045   .     S
H1380  N1386   1.046   .     S
N1381  Zn1399  2.021   .     S
N1382  Zn1400  2.021   .     S
N1383  H1444   1.046   .     S
N1383  C1418   1.443   .     S
O1389  Zn1399  1.984   .     S
O1391  Zn1400  1.984   .     S
O1392  Zn1400  1.978   .     S
O1393  Zn1399  1.978   .     S
O1394  Zn1399  1.982   .     S
O1395  Zn1400  1.982   .     S
O1396  Zn1400  1.996   .     S
O1397  Zn1399  1.996   .     S
C1401  C1404   1.404   .     S
C1401  O1462   1.282   .     A
C1401  O1459   1.284   .     A
C1402  C1404   1.401   .     A
C1402  N1456   1.439   .     S
C1402  C1841   1.381   1_545 S
C1403  C1412   1.405   .     S
C1403  C1421   1.394   .     A
C1403  C1422   1.397   .     A
C1404  C1420   1.392   .     A
C1405  N1452   1.362   .     A
C1405  O1468   1.383   .     S
C1406  N1451   1.372   .     A
C1406  O1460   1.388   .     S
C1406  C148    1.443   1_556 S
C1407  N1451   1.379   .     A
C1407  N1457   1.427   .     S
C1407  C145    1.421   1_556 S
C1408  N1452   1.369   .     A
C1408  N1458   1.430   .     S
C1409  C1410   1.527   .     S
C1409  O1468   1.415   .     S
C1409  H1426   1.110   .     S
C1409  H1425   1.115   .     S
C1410  H1427   1.110   .     S
C1410  C1411   1.527   .     S
C1410  H1428   1.109   .     S
C1411  H1639   1.111   .     S
C1411  H1640   1.111   .     S
C1411  H1641   1.110   .     S
C1412  O1461   1.283   .     A
C1412  O1463   1.283   .     A
C1413  H1433   1.108   .     S
C1413  C1414   1.548   .     S
C1413  H1432   1.111   .     S
C1413  O1460   1.424   .     S
C1414  H1435   1.106   .     S
C1414  C1415   1.526   .     S
C1414  H176    1.110   1_556 S
C1415  H1857   1.111   1_545 S
C1415  H1858   1.109   1_545 S
C1415  H1859   1.111   1_545 S
C1416  O1464   1.277   .     A
C1416  O1466   1.289   .     A
C1416  C1418   1.410   .     S
C1417  O1465   1.276   .     A
C1417  C1419   1.410   .     S
C1417  O1467   1.291   .     A
C1419  C1278   1.354   1_655 S
C1419  N1314   1.442   1_655 S
C1420  H1423   1.085   .     S
C1420  C1842   1.375   1_545 S
C1421  H1434   1.084   .     S
C1421  C1612   1.381   .     S
C1422  N1455   1.433   .     S
C1422  C1630   1.375   .     S
H1424  N1456   1.046   .     S
H1429  C1831   1.111   1_545 S
H1430  C1831   1.111   1_545 S
H1431  C1831   1.110   1_545 S
H1437  C1625   1.111   .     S
H1438  C1625   1.109   .     S
H1439  C1625   1.111   .     S
H1440  N1457   1.042   .     S
H1441  N1457   1.040   .     S
H1442  N1458   1.043   .     S
H1443  N1458   1.045   .     S
H1445  N1453   1.046   .     S
H1446  N1314   1.046   1_655 S
H1447  N1454   1.045   .     S
H1448  N1455   1.046   .     S
H1449  N1455   1.045   .     S
H1450  N1456   1.046   .     S
N1451  Zn1469  2.021   .     S
N1452  Zn1470  2.021   .     S
N1453  H1304   1.046   1_655 S
N1453  C1278   1.443   1_655 S
O1459  Zn1469  1.984   .     S
O1461  Zn1470  1.984   .     S
O1462  Zn1470  1.978   .     S
O1463  Zn1469  1.978   .     S
O1464  Zn1469  1.982   .     S
O1465  Zn1470  1.982   .     S
O1466  Zn1470  1.996   .     S
O1467  Zn1469  1.996   .     S
C1471  C1474   1.404   .     S
C1471  O1532   1.282   .     A
C1471  O1529   1.284   .     A
C1472  C1474   1.401   .     A
C1472  N1526   1.439   .     S
C1473  C1482   1.405   .     S
C1473  C1491   1.394   .     A
C1473  C1492   1.397   .     A
C1474  C1490   1.392   .     A
C1475  N1522   1.362   .     A
C1475  O1538   1.383   .     S
C1476  N1521   1.372   .     A
C1476  O1530   1.388   .     S
C1476  C218    1.443   1_556 S
C1477  N1521   1.379   .     A
C1477  N1527   1.427   .     S
C1477  C215    1.421   1_556 S
C1478  N1522   1.369   .     A
C1478  N1528   1.430   .     S
C1479  C1480   1.527   .     S
C1479  O1538   1.415   .     S
C1479  H1496   1.110   .     S
C1479  H1495   1.115   .     S
C1480  H1497   1.110   .     S
C1480  C1481   1.527   .     S
C1480  H1498   1.109   .     S
C1481  H1709   1.111   .     S
C1481  H1710   1.111   .     S
C1481  H1711   1.110   .     S
C1482  O1531   1.283   .     A
C1482  O1533   1.283   .     A
C1483  H1503   1.108   .     S
C1483  C1484   1.548   .     S
C1483  H1502   1.111   .     S
C1483  O1530   1.424   .     S
C1484  H1505   1.106   .     S
C1484  C1485   1.526   .     S
C1484  H246    1.110   1_556 S
C1486  O1534   1.277   .     A
C1486  O1536   1.289   .     A
C1486  C1488   1.410   .     S
C1487  O1535   1.276   .     A
C1487  C1489   1.410   .     S
C1487  O1537   1.291   .     A
C1488  C1629   1.354   1_455 S
C1488  N1663   1.443   1_455 S
C1489  C1558   1.354   .     S
C1489  N1594   1.442   .     S
C1490  H1493   1.085   .     S
C1491  H1504   1.084   .     S
C1491  C1682   1.381   .     S
C1492  N1525   1.433   .     S
C1492  C1700   1.375   .     S
H1494  N1526   1.046   .     S
H1507  C1695   1.111   .     S
H1508  C1695   1.109   .     S
H1509  C1695   1.111   .     S
H1510  N1527   1.042   .     S
H1511  N1527   1.040   .     S
H1512  N1528   1.043   .     S
H1513  N1528   1.045   .     S
H1514  N1663   1.046   1_455 S
H1515  N1523   1.046   .     S
H1516  N1594   1.046   .     S
H1517  N1524   1.045   .     S
H1518  N1525   1.046   .     S
H1519  N1525   1.045   .     S
H1520  N1526   1.046   .     S
N1521  Zn1539  2.021   .     S
N1522  Zn1540  2.021   .     S
N1523  H1584   1.046   .     S
N1523  C1558   1.443   .     S
N1524  H1656   1.046   1_455 S
N1524  C1629   1.442   1_455 S
O1529  Zn1539  1.984   .     S
O1531  Zn1540  1.984   .     S
O1532  Zn1540  1.978   .     S
O1533  Zn1539  1.978   .     S
O1534  Zn1539  1.982   .     S
O1535  Zn1540  1.982   .     S
O1536  Zn1540  1.996   .     S
O1537  Zn1539  1.996   .     S
C1541  C1544   1.404   .     S
C1541  O1602   1.282   .     A
C1541  O1599   1.284   .     A
C1542  C1544   1.401   .     A
C1542  N1596   1.439   .     S
C1543  C1552   1.405   .     S
C1543  C1561   1.394   .     A
C1543  C1562   1.397   .     A
C1544  C1560   1.392   .     A
C1545  N1592   1.362   .     A
C1545  O1608   1.383   .     S
C1546  N1591   1.372   .     A
C1546  O1600   1.388   .     S
C1546  C288    1.443   1_556 S
C1547  N1591   1.379   .     A
C1547  N1597   1.427   .     S
C1547  C285    1.421   1_556 S
C1548  N1592   1.369   .     A
C1548  N1598   1.430   .     S
C1549  C1550   1.527   .     S
C1549  O1608   1.415   .     S
C1549  H1566   1.110   .     S
C1549  H1565   1.115   .     S
C1550  H1567   1.110   .     S
C1550  C1551   1.527   .     S
C1550  H1568   1.109   .     S
C1551  H1779   1.111   .     S
C1551  H1780   1.111   .     S
C1551  H1781   1.110   .     S
C1552  O1601   1.283   .     A
C1552  O1603   1.283   .     A
C1553  H1573   1.108   .     S
C1553  C1554   1.548   .     S
C1553  H1572   1.111   .     S
C1553  O1600   1.424   .     S
C1554  H1575   1.106   .     S
C1554  C1555   1.526   .     S
C1554  H316    1.110   1_556 S
C1556  O1604   1.277   .     A
C1556  O1606   1.289   .     A
C1556  C1558   1.410   .     S
C1557  O1605   1.276   .     A
C1557  C1559   1.410   .     S
C1557  O1607   1.291   .     A
C1559  C1628   1.354   .     S
C1559  N1664   1.442   .     S
C1560  H1563   1.085   .     S
C1561  H1574   1.084   .     S
C1561  C1752   1.381   .     S
C1562  N1595   1.433   .     S
C1562  C1770   1.375   .     S
H1564  N1596   1.046   .     S
H1577  C1765   1.111   .     S
H1578  C1765   1.109   .     S
H1579  C1765   1.111   .     S
H1580  N1597   1.042   .     S
H1581  N1597   1.040   .     S
H1582  N1598   1.043   .     S
H1583  N1598   1.045   .     S
H1585  N1593   1.046   .     S
H1586  N1664   1.046   .     S
H1587  N1594   1.045   .     S
H1588  N1595   1.046   .     S
H1589  N1595   1.045   .     S
H1590  N1596   1.046   .     S
N1591  Zn1609  2.021   .     S
N1592  Zn1610  2.021   .     S
N1593  H1654   1.046   .     S
N1593  C1628   1.443   .     S
O1599  Zn1609  1.984   .     S
O1601  Zn1610  1.984   .     S
O1602  Zn1610  1.978   .     S
O1603  Zn1609  1.978   .     S
O1604  Zn1609  1.982   .     S
O1605  Zn1610  1.982   .     S
O1606  Zn1610  1.996   .     S
O1607  Zn1609  1.996   .     S
C1611  C1614   1.404   .     S
C1611  O1672   1.282   .     A
C1611  O1669   1.284   .     A
C1612  C1614   1.401   .     A
C1612  N1666   1.439   .     S
C1613  C1622   1.405   .     S
C1613  C1631   1.394   .     A
C1613  C1632   1.397   .     A
C1614  C1630   1.392   .     A
C1615  N1662   1.362   .     A
C1615  O1678   1.383   .     S
C1616  N1661   1.372   .     A
C1616  O1670   1.388   .     S
C1616  C358    1.443   1_556 S
C1617  N1661   1.379   .     A
C1617  N1667   1.427   .     S
C1617  C355    1.421   1_556 S
C1618  N1662   1.369   .     A
C1618  N1668   1.430   .     S
C1619  C1620   1.527   .     S
C1619  O1678   1.415   .     S
C1619  H1636   1.110   .     S
C1619  H1635   1.115   .     S
C1620  H1637   1.110   .     S
C1620  C1621   1.527   .     S
C1620  H1638   1.109   .     S
C1621  H1849   1.111   .     S
C1621  H1850   1.111   .     S
C1621  H1851   1.110   .     S
C1622  O1671   1.283   .     A
C1622  O1673   1.283   .     A
C1623  H1643   1.108   .     S
C1623  C1624   1.548   .     S
C1623  H1642   1.111   .     S
C1623  O1670   1.424   .     S
C1624  H1645   1.106   .     S
C1624  C1625   1.526   .     S
C1624  H386    1.110   1_556 S
C1626  O1674   1.277   .     A
C1626  O1676   1.289   .     A
C1626  C1628   1.410   .     S
C1627  O1675   1.276   .     A
C1627  C1629   1.410   .     S
C1627  O1677   1.291   .     A
C1629  C1488   1.354   1_655 S
C1629  N1524   1.442   1_655 S
C1630  H1633   1.085   .     S
C1631  H1644   1.084   .     S
C1631  C1822   1.381   .     S
C1632  N1665   1.433   .     S
C1632  C1840   1.375   .     S
H1634  N1666   1.046   .     S
H1647  C1835   1.111   .     S
H1648  C1835   1.109   .     S
H1649  C1835   1.111   .     S
H1650  N1667   1.042   .     S
H1651  N1667   1.040   .     S
H1652  N1668   1.043   .     S
H1653  N1668   1.045   .     S
H1655  N1663   1.046   .     S
H1656  N1524   1.046   1_655 S
H1657  N1664   1.045   .     S
H1658  N1665   1.046   .     S
H1659  N1665   1.045   .     S
H1660  N1666   1.046   .     S
N1661  Zn1679  2.021   .     S
N1662  Zn1680  2.021   .     S
N1663  H1514   1.046   1_655 S
N1663  C1488   1.443   1_655 S
O1669  Zn1679  1.984   .     S
O1671  Zn1680  1.984   .     S
O1672  Zn1680  1.978   .     S
O1673  Zn1679  1.978   .     S
O1674  Zn1679  1.982   .     S
O1675  Zn1680  1.982   .     S
O1676  Zn1680  1.996   .     S
O1677  Zn1679  1.996   .     S
C1681  C1684   1.404   .     S
C1681  O1742   1.282   .     A
C1681  O1739   1.284   .     A
C1682  C1684   1.401   .     A
C1682  N1736   1.439   .     S
C1683  C1692   1.405   .     S
C1683  C1701   1.394   .     A
C1683  C1702   1.397   .     A
C1684  C1700   1.392   .     A
C1685  N1732   1.362   .     A
C1685  O1748   1.383   .     S
C1686  N1731   1.372   .     A
C1686  O1740   1.388   .     S
C1686  C428    1.443   1_556 S
C1687  N1731   1.379   .     A
C1687  N1737   1.427   .     S
C1687  C425    1.421   1_556 S
C1688  N1732   1.369   .     A
C1688  N1738   1.430   .     S
C1689  C1690   1.527   .     S
C1689  O1748   1.415   .     S
C1689  H1706   1.110   .     S
C1689  H1705   1.115   .     S
C1690  H1707   1.110   .     S
C1690  C1691   1.527   .     S
C1690  H1708   1.109   .     S
C1691  H1289   1.111   1_565 S
C1691  H1290   1.111   1_565 S
C1691  H1291   1.110   1_565 S
C1692  O1741   1.283   .     A
C1692  O1743   1.283   .     A
C1693  H1713   1.108   .     S
C1693  C1694   1.548   .     S
C1693  H1712   1.111   .     S
C1693  O1740   1.424   .     S
C1694  H1715   1.106   .     S
C1694  C1695   1.526   .     S
C1694  H456    1.110   1_556 S
C1696  O1744   1.277   .     A
C1696  O1746   1.289   .     A
C1696  C1698   1.410   .     S
C1697  O1745   1.276   .     A
C1697  C1699   1.410   .     S
C1697  O1747   1.291   .     A
C1698  C1839   1.354   1_455 S
C1698  N1873   1.443   1_455 S
C1699  C1768   1.354   .     S
C1699  N1804   1.442   .     S
C1700  H1703   1.085   .     S
C1701  H1714   1.084   .     S
C1701  C1262   1.381   1_565 S
C1702  N1735   1.433   .     S
C1702  C1280   1.375   1_565 S
H1704  N1736   1.046   .     S
H1717  C1275   1.111   1_565 S
H1718  C1275   1.109   1_565 S
H1719  C1275   1.111   1_565 S
H1720  N1737   1.042   .     S
H1721  N1737   1.040   .     S
H1722  N1738   1.043   .     S
H1723  N1738   1.045   .     S
H1724  N1873   1.046   1_455 S
H1725  N1733   1.046   .     S
H1726  N1804   1.046   .     S
H1727  N1734   1.045   .     S
H1728  N1735   1.046   .     S
H1729  N1735   1.045   .     S
H1730  N1736   1.046   .     S
N1731  Zn1749  2.021   .     S
N1732  Zn1750  2.021   .     S
N1733  H1794   1.046   .     S
N1733  C1768   1.443   .     S
N1734  H1866   1.046   1_455 S
N1734  C1839   1.442   1_455 S
O1739  Zn1749  1.984   .     S
O1741  Zn1750  1.984   .     S
O1742  Zn1750  1.978   .     S
O1743  Zn1749  1.978   .     S
O1744  Zn1749  1.982   .     S
O1745  Zn1750  1.982   .     S
O1746  Zn1750  1.996   .     S
O1747  Zn1749  1.996   .     S
C1751  C1754   1.404   .     S
C1751  O1812   1.282   .     A
C1751  O1809   1.284   .     A
C1752  C1754   1.401   .     A
C1752  N1806   1.439   .     S
C1753  C1762   1.405   .     S
C1753  C1771   1.394   .     A
C1753  C1772   1.397   .     A
C1754  C1770   1.392   .     A
C1755  N1802   1.362   .     A
C1755  O1818   1.383   .     S
C1756  N1801   1.372   .     A
C1756  O1810   1.388   .     S
C1756  C498    1.443   1_556 S
C1757  N1801   1.379   .     A
C1757  N1807   1.427   .     S
C1757  C495    1.421   1_556 S
C1758  N1802   1.369   .     A
C1758  N1808   1.430   .     S
C1759  C1760   1.527   .     S
C1759  O1818   1.415   .     S
C1759  H1776   1.110   .     S
C1759  H1775   1.115   .     S
C1760  H1777   1.110   .     S
C1760  C1761   1.527   .     S
C1760  H1778   1.109   .     S
C1761  H1359   1.111   1_565 S
C1761  H1360   1.111   1_565 S
C1761  H1361   1.110   1_565 S
C1762  O1811   1.283   .     A
C1762  O1813   1.283   .     A
C1763  H1783   1.108   .     S
C1763  C1764   1.548   .     S
C1763  H1782   1.111   .     S
C1763  O1810   1.424   .     S
C1764  H1785   1.106   .     S
C1764  C1765   1.526   .     S
C1764  H526    1.110   1_556 S
C1766  O1814   1.277   .     A
C1766  O1816   1.289   .     A
C1766  C1768   1.410   .     S
C1767  O1815   1.276   .     A
C1767  C1769   1.410   .     S
C1767  O1817   1.291   .     A
C1769  C1838   1.354   .     S
C1769  N1874   1.442   .     S
C1770  H1773   1.085   .     S
C1771  H1784   1.084   .     S
C1771  C1332   1.381   1_565 S
C1772  N1805   1.433   .     S
C1772  C1350   1.375   1_565 S
H1774  N1806   1.046   .     S
H1787  C1345   1.111   1_565 S
H1788  C1345   1.109   1_565 S
H1789  C1345   1.111   1_565 S
H1790  N1807   1.042   .     S
H1791  N1807   1.040   .     S
H1792  N1808   1.043   .     S
H1793  N1808   1.045   .     S
H1795  N1803   1.046   .     S
H1796  N1874   1.046   .     S
H1797  N1804   1.045   .     S
H1798  N1805   1.046   .     S
H1799  N1805   1.045   .     S
H1800  N1806   1.046   .     S
N1801  Zn1819  2.021   .     S
N1802  Zn1820  2.021   .     S
N1803  H1864   1.046   .     S
N1803  C1838   1.443   .     S
O1809  Zn1819  1.984   .     S
O1811  Zn1820  1.984   .     S
O1812  Zn1820  1.978   .     S
O1813  Zn1819  1.978   .     S
O1814  Zn1819  1.982   .     S
O1815  Zn1820  1.982   .     S
O1816  Zn1820  1.996   .     S
O1817  Zn1819  1.996   .     S
C1821  C1824   1.404   .     S
C1821  O1882   1.282   .     A
C1821  O1879   1.284   .     A
C1822  C1824   1.401   .     A
C1822  N1876   1.439   .     S
C1823  C1832   1.405   .     S
C1823  C1841   1.394   .     A
C1823  C1842   1.397   .     A
C1824  C1840   1.392   .     A
C1825  N1872   1.362   .     A
C1825  O1888   1.383   .     S
C1826  N1871   1.372   .     A
C1826  O1880   1.388   .     S
C1826  C568    1.443   1_556 S
C1827  N1871   1.379   .     A
C1827  N1877   1.427   .     S
C1827  C565    1.421   1_556 S
C1828  N1872   1.369   .     A
C1828  N1878   1.430   .     S
C1829  C1830   1.527   .     S
C1829  O1888   1.415   .     S
C1829  H1846   1.110   .     S
C1829  H1845   1.115   .     S
C1830  H1847   1.110   .     S
C1830  C1831   1.527   .     S
C1830  H1848   1.109   .     S
C1831  H1429   1.111   1_565 S
C1831  H1430   1.111   1_565 S
C1831  H1431   1.110   1_565 S
C1832  O1881   1.283   .     A
C1832  O1883   1.283   .     A
C1833  H1853   1.108   .     S
C1833  C1834   1.548   .     S
C1833  H1852   1.111   .     S
C1833  O1880   1.424   .     S
C1834  H1855   1.106   .     S
C1834  C1835   1.526   .     S
C1834  H596    1.110   1_556 S
C1836  O1884   1.277   .     A
C1836  O1886   1.289   .     A
C1836  C1838   1.410   .     S
C1837  O1885   1.276   .     A
C1837  C1839   1.410   .     S
C1837  O1887   1.291   .     A
C1839  C1698   1.354   1_655 S
C1839  N1734   1.442   1_655 S
C1840  H1843   1.085   .     S
C1841  H1854   1.084   .     S
C1841  C1402   1.381   1_565 S
C1842  N1875   1.433   .     S
C1842  C1420   1.375   1_565 S
H1844  N1876   1.046   .     S
H1857  C1415   1.111   1_565 S
H1858  C1415   1.109   1_565 S
H1859  C1415   1.111   1_565 S
H1860  N1877   1.042   .     S
H1861  N1877   1.040   .     S
H1862  N1878   1.043   .     S
H1863  N1878   1.045   .     S
H1865  N1873   1.046   .     S
H1866  N1734   1.046   1_655 S
H1867  N1874   1.045   .     S
H1868  N1875   1.046   .     S
H1869  N1875   1.045   .     S
H1870  N1876   1.046   .     S
N1871  Zn1889  2.021   .     S
N1872  Zn1890  2.021   .     S
N1873  H1724   1.046   1_655 S
N1873  C1698   1.443   1_655 S
O1879  Zn1889  1.984   .     S
O1881  Zn1890  1.984   .     S
O1882  Zn1890  1.978   .     S
O1883  Zn1889  1.978   .     S
O1884  Zn1889  1.982   .     S
O1885  Zn1890  1.982   .     S
O1886  Zn1890  1.996   .     S
O1887  Zn1889  1.996   .     S
