data_str_m3_o1_o2_pcu_sym.28
_audit_creation_date              2020-01-03
_audit_creation_method            'Materials Studio'
_symmetry_space_group_name_H-M    'P1'
_symmetry_Int_Tables_number       1
_symmetry_cell_setting            triclinic
loop_
_symmetry_equiv_pos_as_xyz
  x,y,z
_cell_length_a                    32.1913
_cell_length_b                    29.7884
_cell_length_c                    30.1297
_cell_angle_alpha                 90.0376
_cell_angle_beta                  93.7100
_cell_angle_gamma                 89.8615
loop_
_atom_site_label
_atom_site_type_symbol
_atom_site_fract_x
_atom_site_fract_y
_atom_site_fract_z
_atom_site_U_iso_or_equiv
_atom_site_adp_type
_atom_site_occupancy
C1     C     0.08676   0.16668   0.25079   0.00000  Uiso   1.00
C2     C     0.31190   0.20732   0.24827   0.00000  Uiso   1.00
C3     C     0.31229   0.12567   0.25141   0.00000  Uiso   1.00
C4     C     0.02116   0.20740   0.25026   0.00000  Uiso   1.00
C5     C     0.15378   0.19721   0.04406   0.00000  Uiso   1.00
C6     C     0.14934   0.12405   0.45107   0.00000  Uiso   1.00
C7     C     0.18257   0.19686   0.45548   0.00000  Uiso   1.00
C8     C     0.18619   0.12386   0.04918   0.00000  Uiso   1.00
C9     C     0.15980   0.20326   0.08937   0.00000  Uiso   1.00
C10    C     0.14371   0.12804   0.40498   0.00000  Uiso   1.00
C11    C     0.17489   0.20327   0.41036   0.00000  Uiso   1.00
C12    C     0.24661   0.16660   0.24957   0.00000  Uiso   1.00
C13    C     0.19040   0.12758   0.09537   0.00000  Uiso   1.00
C14    C     0.17457   0.16659   0.11610   0.00000  Uiso   1.00
C15    C     0.15933   0.16681   0.38396   0.00000  Uiso   1.00
C16    C     0.16803   0.15857   0.02392   0.00000  Uiso   1.00
C17    C     0.16864   0.15834   0.47594   0.00000  Uiso   1.00
C18    C     0.29081   0.16649   0.24937   0.00000  Uiso   1.00
C19    C     0.04262   0.16664   0.25195   0.00000  Uiso   1.00
C20    C     0.21721   0.04756   0.31473   0.00000  Uiso   1.00
C21    C     0.09942   0.28823   0.20301   0.00000  Uiso   1.00
C22    C     0.11550   0.04809   0.18593   0.00000  Uiso   1.00
C23    C     0.16941   0.16675   0.16409   0.00000  Uiso   1.00
C24    C     0.23393   0.28801   0.29687   0.00000  Uiso   1.00
C25    C     0.15374   0.24973   0.10533   0.00000  Uiso   1.00
C26    C     0.11764   0.09351   0.38091   0.00000  Uiso   1.00
C27    C     0.17880   0.24999   0.39419   0.00000  Uiso   1.00
C28    C     0.21485   0.09207   0.11998   0.00000  Uiso   1.00
C29    C     0.16391   0.16680   0.33590   0.00000  Uiso   1.00
C30    C     0.19367   0.02407   0.27809   0.00000  Uiso   1.00
C31    C     0.13671   0.30992   0.22512   0.00000  Uiso   1.00
C32    C     0.13952   0.02423   0.22204   0.00000  Uiso   1.00
C33    C     0.19653   0.30978   0.27496   0.00000  Uiso   1.00
C34    C     0.02157   0.12579   0.25363   0.00000  Uiso   1.00
H35    H     0.22141   0.06297   0.38003   0.00000  Uiso   1.00
H36    H     0.09815   0.02920   0.37804   0.00000  Uiso   1.00
H37    H     0.15224   0.30168   0.35956   0.00000  Uiso   1.00
H38    H     0.23055   0.02653   0.12446   0.00000  Uiso   1.00
H39    H     0.03777   0.09397   0.25656   0.00000  Uiso   1.00
H40    H     0.29565   0.23909   0.24569   0.00000  Uiso   1.00
H41    H     0.29646   0.09371   0.25125   0.00000  Uiso   1.00
H42    H     0.03712   0.23922   0.25041   0.00000  Uiso   1.00
H43    H     0.03731   0.29162   0.18864   0.00000  Uiso   1.00
H44    H     0.06257   0.07997   0.16495   0.00000  Uiso   1.00
H45    H     0.29617   0.29084   0.31032   0.00000  Uiso   1.00
H46    H     0.14064   0.22441   0.02367   0.00000  Uiso   1.00
H47    H     0.13650   0.09564   0.46798   0.00000  Uiso   1.00
H48    H     0.19617   0.22395   0.47564   0.00000  Uiso   1.00
H49    H     0.19898   0.09511   0.03262   0.00000  Uiso   1.00
H50    H     0.11855   0.30592   0.10137   0.00000  Uiso   1.00
N51    N     0.16667   0.28573   0.25000   0.00000  Uiso   1.00
N52    N     0.16667   0.04760   0.25000   0.00000  Uiso   1.00
O53    O     0.10559   0.20487   0.25000   0.00000  Uiso   1.00
O54    O     0.20255   0.04639   0.35733   0.00000  Uiso   1.00
O55    O     0.10246   0.25496   0.18002   0.00000  Uiso   1.00
O56    O     0.06024   0.30765   0.20704   0.00000  Uiso   1.00
O57    O     0.12956   0.05064   0.14932   0.00000  Uiso   1.00
O58    O     0.07595   0.06499   0.19253   0.00000  Uiso   1.00
O59    O     0.23104   0.25487   0.32001   0.00000  Uiso   1.00
O60    O     0.27305   0.30723   0.29246   0.00000  Uiso   1.00
O61    O     0.18097   0.26809   0.12898   0.00000  Uiso   1.00
O62    O     0.11850   0.27399   0.08974   0.00000  Uiso   1.00
O63    O     0.09475   0.10393   0.34856   0.00000  Uiso   1.00
O64    O     0.22774   0.12846   0.25000   0.00000  Uiso   1.00
O65    O     0.11767   0.04937   0.39671   0.00000  Uiso   1.00
O66    O     0.20900   0.27261   0.40676   0.00000  Uiso   1.00
O67    O     0.14629   0.26944   0.36773   0.00000  Uiso   1.00
O68    O     0.23834   0.10184   0.15204   0.00000  Uiso   1.00
O69    O     0.21237   0.04759   0.10518   0.00000  Uiso   1.00
O70    O     0.22774   0.20487   0.25000   0.00000  Uiso   1.00
O71    O     0.10559   0.12846   0.24999   0.00000  Uiso   1.00
O72    O     0.16666   0.20489   0.18453   0.00000  Uiso   1.00
O73    O     0.16667   0.12845   0.31547   0.00000  Uiso   1.00
O74    O     0.16667   0.20489   0.31547   0.00000  Uiso   1.00
O75    O     0.16666   0.12845   0.18453   0.00000  Uiso   1.00
O76    O     0.25035   0.06551   0.30859   0.00000  Uiso   1.00
Zn77   Zn    0.16667   0.21771   0.25000   0.00000  Uiso   1.00
Zn78   Zn    0.16667   0.11563   0.25000   0.00000  Uiso   1.00
C79    C     0.42009   0.16668   0.25079   0.00000  Uiso   1.00
C80    C     0.64523   0.20732   0.24827   0.00000  Uiso   1.00
C81    C     0.64562   0.12567   0.25141   0.00000  Uiso   1.00
C82    C     0.35450   0.20740   0.25026   0.00000  Uiso   1.00
C83    C     0.48712   0.19721   0.04406   0.00000  Uiso   1.00
C84    C     0.48267   0.12405   0.45107   0.00000  Uiso   1.00
C85    C     0.51590   0.19686   0.45548   0.00000  Uiso   1.00
C86    C     0.51952   0.12386   0.04918   0.00000  Uiso   1.00
C87    C     0.49314   0.20326   0.08937   0.00000  Uiso   1.00
C88    C     0.47705   0.12804   0.40498   0.00000  Uiso   1.00
C89    C     0.50822   0.20327   0.41036   0.00000  Uiso   1.00
C90    C     0.57994   0.16660   0.24957   0.00000  Uiso   1.00
C91    C     0.52373   0.12758   0.09537   0.00000  Uiso   1.00
C92    C     0.50791   0.16659   0.11610   0.00000  Uiso   1.00
C93    C     0.49267   0.16681   0.38396   0.00000  Uiso   1.00
C94    C     0.50136   0.15857   0.02392   0.00000  Uiso   1.00
C95    C     0.50198   0.15834   0.47594   0.00000  Uiso   1.00
C96    C     0.62415   0.16649   0.24937   0.00000  Uiso   1.00
C97    C     0.37595   0.16664   0.25195   0.00000  Uiso   1.00
C98    C     0.55054   0.04756   0.31473   0.00000  Uiso   1.00
C99    C     0.43275   0.28823   0.20301   0.00000  Uiso   1.00
C100   C     0.44883   0.04809   0.18593   0.00000  Uiso   1.00
C101   C     0.50275   0.16675   0.16409   0.00000  Uiso   1.00
C102   C     0.56727   0.28801   0.29687   0.00000  Uiso   1.00
C103   C     0.48707   0.24973   0.10533   0.00000  Uiso   1.00
C104   C     0.45097   0.09351   0.38091   0.00000  Uiso   1.00
C105   C     0.51214   0.24999   0.39419   0.00000  Uiso   1.00
C106   C     0.54818   0.09207   0.11998   0.00000  Uiso   1.00
C107   C     0.49725   0.16680   0.33590   0.00000  Uiso   1.00
C108   C     0.52700   0.02407   0.27809   0.00000  Uiso   1.00
C109   C     0.47004   0.30992   0.22512   0.00000  Uiso   1.00
C110   C     0.47285   0.02423   0.22204   0.00000  Uiso   1.00
C111   C     0.52986   0.30978   0.27496   0.00000  Uiso   1.00
C112   C     0.35490   0.12579   0.25363   0.00000  Uiso   1.00
H113   H     0.55474   0.06297   0.38003   0.00000  Uiso   1.00
H114   H     0.43148   0.02920   0.37804   0.00000  Uiso   1.00
H115   H     0.48558   0.30168   0.35956   0.00000  Uiso   1.00
H116   H     0.56389   0.02653   0.12446   0.00000  Uiso   1.00
H117   H     0.37110   0.09397   0.25656   0.00000  Uiso   1.00
H118   H     0.62898   0.23909   0.24569   0.00000  Uiso   1.00
H119   H     0.62979   0.09371   0.25125   0.00000  Uiso   1.00
H120   H     0.37045   0.23922   0.25041   0.00000  Uiso   1.00
H121   H     0.37065   0.29162   0.18864   0.00000  Uiso   1.00
H122   H     0.39591   0.07997   0.16495   0.00000  Uiso   1.00
H123   H     0.62950   0.29084   0.31032   0.00000  Uiso   1.00
H124   H     0.47397   0.22441   0.02367   0.00000  Uiso   1.00
H125   H     0.46983   0.09564   0.46798   0.00000  Uiso   1.00
H126   H     0.52951   0.22395   0.47564   0.00000  Uiso   1.00
H127   H     0.53232   0.09511   0.03262   0.00000  Uiso   1.00
H128   H     0.45189   0.30592   0.10137   0.00000  Uiso   1.00
N129   N     0.50000   0.28573   0.25000   0.00000  Uiso   1.00
N130   N     0.50000   0.04760   0.25000   0.00000  Uiso   1.00
O131   O     0.43892   0.20487   0.25000   0.00000  Uiso   1.00
O132   O     0.53588   0.04639   0.35733   0.00000  Uiso   1.00
O133   O     0.43579   0.25496   0.18002   0.00000  Uiso   1.00
O134   O     0.39357   0.30765   0.20704   0.00000  Uiso   1.00
O135   O     0.46289   0.05064   0.14932   0.00000  Uiso   1.00
O136   O     0.40928   0.06499   0.19253   0.00000  Uiso   1.00
O137   O     0.56437   0.25487   0.32001   0.00000  Uiso   1.00
O138   O     0.60639   0.30723   0.29246   0.00000  Uiso   1.00
O139   O     0.51430   0.26809   0.12898   0.00000  Uiso   1.00
O140   O     0.45184   0.27399   0.08974   0.00000  Uiso   1.00
O141   O     0.42808   0.10393   0.34856   0.00000  Uiso   1.00
O142   O     0.56108   0.12846   0.25000   0.00000  Uiso   1.00
O143   O     0.45101   0.04937   0.39671   0.00000  Uiso   1.00
O144   O     0.54233   0.27261   0.40676   0.00000  Uiso   1.00
O145   O     0.47962   0.26944   0.36773   0.00000  Uiso   1.00
O146   O     0.57168   0.10184   0.15204   0.00000  Uiso   1.00
O147   O     0.54571   0.04759   0.10518   0.00000  Uiso   1.00
O148   O     0.56108   0.20487   0.25000   0.00000  Uiso   1.00
O149   O     0.43892   0.12846   0.24999   0.00000  Uiso   1.00
O150   O     0.50000   0.20489   0.18453   0.00000  Uiso   1.00
O151   O     0.50000   0.12845   0.31547   0.00000  Uiso   1.00
O152   O     0.50000   0.20489   0.31547   0.00000  Uiso   1.00
O153   O     0.50000   0.12845   0.18453   0.00000  Uiso   1.00
O154   O     0.58368   0.06551   0.30859   0.00000  Uiso   1.00
Zn155  Zn    0.50000   0.21771   0.25000   0.00000  Uiso   1.00
Zn156  Zn    0.50000   0.11563   0.25000   0.00000  Uiso   1.00
C157   C     0.75342   0.16668   0.25079   0.00000  Uiso   1.00
C158   C     0.97856   0.20732   0.24827   0.00000  Uiso   1.00
C159   C     0.97896   0.12567   0.25141   0.00000  Uiso   1.00
C160   C     0.68783   0.20740   0.25026   0.00000  Uiso   1.00
C161   C     0.82045   0.19721   0.04406   0.00000  Uiso   1.00
C162   C     0.81600   0.12405   0.45107   0.00000  Uiso   1.00
C163   C     0.84923   0.19686   0.45548   0.00000  Uiso   1.00
C164   C     0.85286   0.12386   0.04918   0.00000  Uiso   1.00
C165   C     0.82647   0.20326   0.08937   0.00000  Uiso   1.00
C166   C     0.81038   0.12804   0.40498   0.00000  Uiso   1.00
C167   C     0.84156   0.20327   0.41036   0.00000  Uiso   1.00
C168   C     0.91327   0.16660   0.24957   0.00000  Uiso   1.00
C169   C     0.85706   0.12758   0.09537   0.00000  Uiso   1.00
C170   C     0.84124   0.16659   0.11610   0.00000  Uiso   1.00
C171   C     0.82600   0.16681   0.38396   0.00000  Uiso   1.00
C172   C     0.83470   0.15857   0.02392   0.00000  Uiso   1.00
C173   C     0.83531   0.15834   0.47594   0.00000  Uiso   1.00
C174   C     0.95748   0.16649   0.24937   0.00000  Uiso   1.00
C175   C     0.70929   0.16664   0.25195   0.00000  Uiso   1.00
C176   C     0.88388   0.04756   0.31473   0.00000  Uiso   1.00
C177   C     0.76608   0.28823   0.20301   0.00000  Uiso   1.00
C178   C     0.78217   0.04809   0.18593   0.00000  Uiso   1.00
C179   C     0.83608   0.16675   0.16409   0.00000  Uiso   1.00
C180   C     0.90060   0.28801   0.29687   0.00000  Uiso   1.00
C181   C     0.82040   0.24973   0.10533   0.00000  Uiso   1.00
C182   C     0.78430   0.09351   0.38091   0.00000  Uiso   1.00
C183   C     0.84547   0.24999   0.39419   0.00000  Uiso   1.00
C184   C     0.88151   0.09207   0.11998   0.00000  Uiso   1.00
C185   C     0.83058   0.16680   0.33590   0.00000  Uiso   1.00
C186   C     0.86034   0.02407   0.27809   0.00000  Uiso   1.00
C187   C     0.80337   0.30992   0.22512   0.00000  Uiso   1.00
C188   C     0.80618   0.02423   0.22204   0.00000  Uiso   1.00
C189   C     0.86320   0.30978   0.27496   0.00000  Uiso   1.00
C190   C     0.68823   0.12579   0.25363   0.00000  Uiso   1.00
H191   H     0.88808   0.06297   0.38003   0.00000  Uiso   1.00
H192   H     0.76482   0.02920   0.37804   0.00000  Uiso   1.00
H193   H     0.81891   0.30168   0.35956   0.00000  Uiso   1.00
H194   H     0.89722   0.02653   0.12446   0.00000  Uiso   1.00
H195   H     0.70443   0.09397   0.25656   0.00000  Uiso   1.00
H196   H     0.96232   0.23909   0.24569   0.00000  Uiso   1.00
H197   H     0.96312   0.09371   0.25125   0.00000  Uiso   1.00
H198   H     0.70379   0.23922   0.25041   0.00000  Uiso   1.00
H199   H     0.70398   0.29162   0.18864   0.00000  Uiso   1.00
H200   H     0.72924   0.07997   0.16495   0.00000  Uiso   1.00
H201   H     0.96283   0.29084   0.31032   0.00000  Uiso   1.00
H202   H     0.80731   0.22441   0.02367   0.00000  Uiso   1.00
H203   H     0.80317   0.09564   0.46798   0.00000  Uiso   1.00
H204   H     0.86284   0.22395   0.47564   0.00000  Uiso   1.00
H205   H     0.86565   0.09511   0.03262   0.00000  Uiso   1.00
H206   H     0.78522   0.30592   0.10137   0.00000  Uiso   1.00
N207   N     0.83333   0.28573   0.25000   0.00000  Uiso   1.00
N208   N     0.83333   0.04760   0.25000   0.00000  Uiso   1.00
O209   O     0.77226   0.20487   0.25000   0.00000  Uiso   1.00
O210   O     0.86922   0.04639   0.35733   0.00000  Uiso   1.00
O211   O     0.76912   0.25496   0.18002   0.00000  Uiso   1.00
O212   O     0.72690   0.30765   0.20704   0.00000  Uiso   1.00
O213   O     0.79623   0.05064   0.14932   0.00000  Uiso   1.00
O214   O     0.74261   0.06499   0.19253   0.00000  Uiso   1.00
O215   O     0.89770   0.25487   0.32001   0.00000  Uiso   1.00
O216   O     0.93972   0.30723   0.29246   0.00000  Uiso   1.00
O217   O     0.84763   0.26809   0.12898   0.00000  Uiso   1.00
O218   O     0.78517   0.27399   0.08974   0.00000  Uiso   1.00
O219   O     0.76141   0.10393   0.34856   0.00000  Uiso   1.00
O220   O     0.89441   0.12846   0.25000   0.00000  Uiso   1.00
O221   O     0.78434   0.04937   0.39671   0.00000  Uiso   1.00
O222   O     0.87566   0.27261   0.40676   0.00000  Uiso   1.00
O223   O     0.81295   0.26944   0.36773   0.00000  Uiso   1.00
O224   O     0.90501   0.10184   0.15204   0.00000  Uiso   1.00
O225   O     0.87904   0.04759   0.10518   0.00000  Uiso   1.00
O226   O     0.89441   0.20487   0.25000   0.00000  Uiso   1.00
O227   O     0.77226   0.12846   0.24999   0.00000  Uiso   1.00
O228   O     0.83333   0.20489   0.18453   0.00000  Uiso   1.00
O229   O     0.83334   0.12845   0.31547   0.00000  Uiso   1.00
O230   O     0.83334   0.20489   0.31547   0.00000  Uiso   1.00
O231   O     0.83333   0.12845   0.18453   0.00000  Uiso   1.00
O232   O     0.91701   0.06551   0.30859   0.00000  Uiso   1.00
Zn233  Zn    0.83333   0.21771   0.25000   0.00000  Uiso   1.00
Zn234  Zn    0.83333   0.11563   0.25000   0.00000  Uiso   1.00
C235   C     0.08676   0.50002   0.25079   0.00000  Uiso   1.00
C236   C     0.31190   0.54066   0.24827   0.00000  Uiso   1.00
C237   C     0.31229   0.45900   0.25141   0.00000  Uiso   1.00
C238   C     0.02116   0.54074   0.25026   0.00000  Uiso   1.00
C239   C     0.15378   0.53054   0.04406   0.00000  Uiso   1.00
C240   C     0.14934   0.45738   0.45107   0.00000  Uiso   1.00
C241   C     0.18257   0.53019   0.45548   0.00000  Uiso   1.00
C242   C     0.18619   0.45719   0.04918   0.00000  Uiso   1.00
C243   C     0.15980   0.53659   0.08937   0.00000  Uiso   1.00
C244   C     0.14371   0.46137   0.40498   0.00000  Uiso   1.00
C245   C     0.17489   0.53660   0.41036   0.00000  Uiso   1.00
C246   C     0.24661   0.49994   0.24957   0.00000  Uiso   1.00
C247   C     0.19040   0.46092   0.09537   0.00000  Uiso   1.00
C248   C     0.17457   0.49992   0.11610   0.00000  Uiso   1.00
C249   C     0.15933   0.50014   0.38396   0.00000  Uiso   1.00
C250   C     0.16803   0.49191   0.02392   0.00000  Uiso   1.00
C251   C     0.16864   0.49167   0.47594   0.00000  Uiso   1.00
C252   C     0.29081   0.49982   0.24937   0.00000  Uiso   1.00
C253   C     0.04262   0.49997   0.25195   0.00000  Uiso   1.00
C254   C     0.21721   0.38089   0.31473   0.00000  Uiso   1.00
C255   C     0.09942   0.62156   0.20301   0.00000  Uiso   1.00
C256   C     0.11550   0.38143   0.18593   0.00000  Uiso   1.00
C257   C     0.16941   0.50008   0.16409   0.00000  Uiso   1.00
C258   C     0.23393   0.62134   0.29687   0.00000  Uiso   1.00
C259   C     0.15374   0.58306   0.10533   0.00000  Uiso   1.00
C260   C     0.11764   0.42685   0.38091   0.00000  Uiso   1.00
C261   C     0.17880   0.58332   0.39419   0.00000  Uiso   1.00
C262   C     0.21485   0.42541   0.11998   0.00000  Uiso   1.00
C263   C     0.16391   0.50014   0.33590   0.00000  Uiso   1.00
C264   C     0.19367   0.35740   0.27809   0.00000  Uiso   1.00
C265   C     0.13671   0.64325   0.22512   0.00000  Uiso   1.00
C266   C     0.13952   0.35756   0.22204   0.00000  Uiso   1.00
C267   C     0.19653   0.64312   0.27496   0.00000  Uiso   1.00
C268   C     0.02157   0.45912   0.25363   0.00000  Uiso   1.00
H269   H     0.22141   0.39631   0.38003   0.00000  Uiso   1.00
H270   H     0.09815   0.36253   0.37804   0.00000  Uiso   1.00
H271   H     0.15224   0.63501   0.35956   0.00000  Uiso   1.00
H272   H     0.23055   0.35986   0.12446   0.00000  Uiso   1.00
H273   H     0.03777   0.42731   0.25656   0.00000  Uiso   1.00
H274   H     0.29565   0.57242   0.24569   0.00000  Uiso   1.00
H275   H     0.29646   0.42704   0.25125   0.00000  Uiso   1.00
H276   H     0.03712   0.57256   0.25041   0.00000  Uiso   1.00
H277   H     0.03731   0.62495   0.18864   0.00000  Uiso   1.00
H278   H     0.06257   0.41331   0.16495   0.00000  Uiso   1.00
H279   H     0.29617   0.62417   0.31032   0.00000  Uiso   1.00
H280   H     0.14064   0.55774   0.02367   0.00000  Uiso   1.00
H281   H     0.13650   0.42897   0.46798   0.00000  Uiso   1.00
H282   H     0.19617   0.55728   0.47564   0.00000  Uiso   1.00
H283   H     0.19898   0.42845   0.03262   0.00000  Uiso   1.00
H284   H     0.11855   0.63925   0.10137   0.00000  Uiso   1.00
N285   N     0.16667   0.61907   0.25000   0.00000  Uiso   1.00
N286   N     0.16667   0.38093   0.25000   0.00000  Uiso   1.00
O287   O     0.10559   0.53821   0.25000   0.00000  Uiso   1.00
O288   O     0.20255   0.37972   0.35733   0.00000  Uiso   1.00
O289   O     0.10246   0.58830   0.18002   0.00000  Uiso   1.00
O290   O     0.06024   0.64098   0.20704   0.00000  Uiso   1.00
O291   O     0.12956   0.38397   0.14932   0.00000  Uiso   1.00
O292   O     0.07595   0.39833   0.19253   0.00000  Uiso   1.00
O293   O     0.23104   0.58820   0.32001   0.00000  Uiso   1.00
O294   O     0.27305   0.64057   0.29246   0.00000  Uiso   1.00
O295   O     0.18097   0.60143   0.12898   0.00000  Uiso   1.00
O296   O     0.11850   0.60732   0.08974   0.00000  Uiso   1.00
O297   O     0.09475   0.43727   0.34856   0.00000  Uiso   1.00
O298   O     0.22774   0.46179   0.25000   0.00000  Uiso   1.00
O299   O     0.11767   0.38271   0.39671   0.00000  Uiso   1.00
O300   O     0.20900   0.60594   0.40676   0.00000  Uiso   1.00
O301   O     0.14629   0.60277   0.36773   0.00000  Uiso   1.00
O302   O     0.23834   0.43517   0.15204   0.00000  Uiso   1.00
O303   O     0.21237   0.38092   0.10518   0.00000  Uiso   1.00
O304   O     0.22774   0.53821   0.25000   0.00000  Uiso   1.00
O305   O     0.10559   0.46179   0.24999   0.00000  Uiso   1.00
O306   O     0.16666   0.53822   0.18453   0.00000  Uiso   1.00
O307   O     0.16667   0.46178   0.31547   0.00000  Uiso   1.00
O308   O     0.16667   0.53822   0.31547   0.00000  Uiso   1.00
O309   O     0.16666   0.46178   0.18453   0.00000  Uiso   1.00
O310   O     0.25035   0.39884   0.30859   0.00000  Uiso   1.00
Zn311  Zn    0.16667   0.55104   0.25000   0.00000  Uiso   1.00
Zn312  Zn    0.16667   0.44896   0.25000   0.00000  Uiso   1.00
C313   C     0.42009   0.50002   0.25079   0.00000  Uiso   1.00
C314   C     0.64523   0.54066   0.24827   0.00000  Uiso   1.00
C315   C     0.64562   0.45900   0.25141   0.00000  Uiso   1.00
C316   C     0.35450   0.54074   0.25026   0.00000  Uiso   1.00
C317   C     0.48712   0.53054   0.04406   0.00000  Uiso   1.00
C318   C     0.48267   0.45738   0.45107   0.00000  Uiso   1.00
C319   C     0.51590   0.53019   0.45548   0.00000  Uiso   1.00
C320   C     0.51952   0.45719   0.04918   0.00000  Uiso   1.00
C321   C     0.49314   0.53659   0.08937   0.00000  Uiso   1.00
C322   C     0.47705   0.46137   0.40498   0.00000  Uiso   1.00
C323   C     0.50822   0.53660   0.41036   0.00000  Uiso   1.00
C324   C     0.57994   0.49994   0.24957   0.00000  Uiso   1.00
C325   C     0.52373   0.46092   0.09537   0.00000  Uiso   1.00
C326   C     0.50791   0.49992   0.11610   0.00000  Uiso   1.00
C327   C     0.49267   0.50014   0.38396   0.00000  Uiso   1.00
C328   C     0.50136   0.49191   0.02392   0.00000  Uiso   1.00
C329   C     0.50198   0.49167   0.47594   0.00000  Uiso   1.00
C330   C     0.62415   0.49982   0.24937   0.00000  Uiso   1.00
C331   C     0.37595   0.49997   0.25195   0.00000  Uiso   1.00
C332   C     0.55054   0.38089   0.31473   0.00000  Uiso   1.00
C333   C     0.43275   0.62156   0.20301   0.00000  Uiso   1.00
C334   C     0.44883   0.38143   0.18593   0.00000  Uiso   1.00
C335   C     0.50275   0.50008   0.16409   0.00000  Uiso   1.00
C336   C     0.56727   0.62134   0.29687   0.00000  Uiso   1.00
C337   C     0.48707   0.58306   0.10533   0.00000  Uiso   1.00
C338   C     0.45097   0.42685   0.38091   0.00000  Uiso   1.00
C339   C     0.51214   0.58332   0.39419   0.00000  Uiso   1.00
C340   C     0.54818   0.42541   0.11998   0.00000  Uiso   1.00
C341   C     0.49725   0.50014   0.33590   0.00000  Uiso   1.00
C342   C     0.52700   0.35740   0.27809   0.00000  Uiso   1.00
C343   C     0.47004   0.64325   0.22512   0.00000  Uiso   1.00
C344   C     0.47285   0.35756   0.22204   0.00000  Uiso   1.00
C345   C     0.52986   0.64312   0.27496   0.00000  Uiso   1.00
C346   C     0.35490   0.45912   0.25363   0.00000  Uiso   1.00
H347   H     0.55474   0.39631   0.38003   0.00000  Uiso   1.00
H348   H     0.43148   0.36253   0.37804   0.00000  Uiso   1.00
H349   H     0.48558   0.63501   0.35956   0.00000  Uiso   1.00
H350   H     0.56389   0.35986   0.12446   0.00000  Uiso   1.00
H351   H     0.37110   0.42731   0.25656   0.00000  Uiso   1.00
H352   H     0.62898   0.57242   0.24569   0.00000  Uiso   1.00
H353   H     0.62979   0.42704   0.25125   0.00000  Uiso   1.00
H354   H     0.37045   0.57256   0.25041   0.00000  Uiso   1.00
H355   H     0.37065   0.62495   0.18864   0.00000  Uiso   1.00
H356   H     0.39591   0.41331   0.16495   0.00000  Uiso   1.00
H357   H     0.62950   0.62417   0.31032   0.00000  Uiso   1.00
H358   H     0.47397   0.55774   0.02367   0.00000  Uiso   1.00
H359   H     0.46983   0.42897   0.46798   0.00000  Uiso   1.00
H360   H     0.52951   0.55728   0.47564   0.00000  Uiso   1.00
H361   H     0.53232   0.42845   0.03262   0.00000  Uiso   1.00
H362   H     0.45189   0.63925   0.10137   0.00000  Uiso   1.00
N363   N     0.50000   0.61907   0.25000   0.00000  Uiso   1.00
N364   N     0.50000   0.38093   0.25000   0.00000  Uiso   1.00
O365   O     0.43892   0.53821   0.25000   0.00000  Uiso   1.00
O366   O     0.53588   0.37972   0.35733   0.00000  Uiso   1.00
O367   O     0.43579   0.58830   0.18002   0.00000  Uiso   1.00
O368   O     0.39357   0.64098   0.20704   0.00000  Uiso   1.00
O369   O     0.46289   0.38397   0.14932   0.00000  Uiso   1.00
O370   O     0.40928   0.39833   0.19253   0.00000  Uiso   1.00
O371   O     0.56437   0.58820   0.32001   0.00000  Uiso   1.00
O372   O     0.60639   0.64057   0.29246   0.00000  Uiso   1.00
O373   O     0.51430   0.60143   0.12898   0.00000  Uiso   1.00
O374   O     0.45184   0.60732   0.08974   0.00000  Uiso   1.00
O375   O     0.42808   0.43727   0.34856   0.00000  Uiso   1.00
O376   O     0.56108   0.46179   0.25000   0.00000  Uiso   1.00
O377   O     0.45101   0.38271   0.39671   0.00000  Uiso   1.00
O378   O     0.54233   0.60594   0.40676   0.00000  Uiso   1.00
O379   O     0.47962   0.60277   0.36773   0.00000  Uiso   1.00
O380   O     0.57168   0.43517   0.15204   0.00000  Uiso   1.00
O381   O     0.54571   0.38092   0.10518   0.00000  Uiso   1.00
O382   O     0.56108   0.53821   0.25000   0.00000  Uiso   1.00
O383   O     0.43892   0.46179   0.24999   0.00000  Uiso   1.00
O384   O     0.50000   0.53822   0.18453   0.00000  Uiso   1.00
O385   O     0.50000   0.46178   0.31547   0.00000  Uiso   1.00
O386   O     0.50000   0.53822   0.31547   0.00000  Uiso   1.00
O387   O     0.50000   0.46178   0.18453   0.00000  Uiso   1.00
O388   O     0.58368   0.39884   0.30859   0.00000  Uiso   1.00
Zn389  Zn    0.50000   0.55104   0.25000   0.00000  Uiso   1.00
Zn390  Zn    0.50000   0.44896   0.25000   0.00000  Uiso   1.00
C391   C     0.75342   0.50002   0.25079   0.00000  Uiso   1.00
C392   C     0.97856   0.54066   0.24827   0.00000  Uiso   1.00
C393   C     0.97896   0.45900   0.25141   0.00000  Uiso   1.00
C394   C     0.68783   0.54074   0.25026   0.00000  Uiso   1.00
C395   C     0.82045   0.53054   0.04406   0.00000  Uiso   1.00
C396   C     0.81600   0.45738   0.45107   0.00000  Uiso   1.00
C397   C     0.84923   0.53019   0.45548   0.00000  Uiso   1.00
C398   C     0.85286   0.45719   0.04918   0.00000  Uiso   1.00
C399   C     0.82647   0.53659   0.08937   0.00000  Uiso   1.00
C400   C     0.81038   0.46137   0.40498   0.00000  Uiso   1.00
C401   C     0.84156   0.53660   0.41036   0.00000  Uiso   1.00
C402   C     0.91327   0.49994   0.24957   0.00000  Uiso   1.00
C403   C     0.85706   0.46092   0.09537   0.00000  Uiso   1.00
C404   C     0.84124   0.49992   0.11610   0.00000  Uiso   1.00
C405   C     0.82600   0.50014   0.38396   0.00000  Uiso   1.00
C406   C     0.83470   0.49191   0.02392   0.00000  Uiso   1.00
C407   C     0.83531   0.49167   0.47594   0.00000  Uiso   1.00
C408   C     0.95748   0.49982   0.24937   0.00000  Uiso   1.00
C409   C     0.70929   0.49997   0.25195   0.00000  Uiso   1.00
C410   C     0.88388   0.38089   0.31473   0.00000  Uiso   1.00
C411   C     0.76608   0.62156   0.20301   0.00000  Uiso   1.00
C412   C     0.78217   0.38143   0.18593   0.00000  Uiso   1.00
C413   C     0.83608   0.50008   0.16409   0.00000  Uiso   1.00
C414   C     0.90060   0.62134   0.29687   0.00000  Uiso   1.00
C415   C     0.82040   0.58306   0.10533   0.00000  Uiso   1.00
C416   C     0.78430   0.42685   0.38091   0.00000  Uiso   1.00
C417   C     0.84547   0.58332   0.39419   0.00000  Uiso   1.00
C418   C     0.88151   0.42541   0.11998   0.00000  Uiso   1.00
C419   C     0.83058   0.50014   0.33590   0.00000  Uiso   1.00
C420   C     0.86034   0.35740   0.27809   0.00000  Uiso   1.00
C421   C     0.80337   0.64325   0.22512   0.00000  Uiso   1.00
C422   C     0.80618   0.35756   0.22204   0.00000  Uiso   1.00
C423   C     0.86320   0.64312   0.27496   0.00000  Uiso   1.00
C424   C     0.68823   0.45912   0.25363   0.00000  Uiso   1.00
H425   H     0.88808   0.39631   0.38003   0.00000  Uiso   1.00
H426   H     0.76482   0.36253   0.37804   0.00000  Uiso   1.00
H427   H     0.81891   0.63501   0.35956   0.00000  Uiso   1.00
H428   H     0.89722   0.35986   0.12446   0.00000  Uiso   1.00
H429   H     0.70443   0.42731   0.25656   0.00000  Uiso   1.00
H430   H     0.96232   0.57242   0.24569   0.00000  Uiso   1.00
H431   H     0.96312   0.42704   0.25125   0.00000  Uiso   1.00
H432   H     0.70379   0.57256   0.25041   0.00000  Uiso   1.00
H433   H     0.70398   0.62495   0.18864   0.00000  Uiso   1.00
H434   H     0.72924   0.41331   0.16495   0.00000  Uiso   1.00
H435   H     0.96283   0.62417   0.31032   0.00000  Uiso   1.00
H436   H     0.80731   0.55774   0.02367   0.00000  Uiso   1.00
H437   H     0.80317   0.42897   0.46798   0.00000  Uiso   1.00
H438   H     0.86284   0.55728   0.47564   0.00000  Uiso   1.00
H439   H     0.86565   0.42845   0.03262   0.00000  Uiso   1.00
H440   H     0.78522   0.63925   0.10137   0.00000  Uiso   1.00
N441   N     0.83333   0.61907   0.25000   0.00000  Uiso   1.00
N442   N     0.83333   0.38093   0.25000   0.00000  Uiso   1.00
O443   O     0.77226   0.53821   0.25000   0.00000  Uiso   1.00
O444   O     0.86922   0.37972   0.35733   0.00000  Uiso   1.00
O445   O     0.76912   0.58830   0.18002   0.00000  Uiso   1.00
O446   O     0.72690   0.64098   0.20704   0.00000  Uiso   1.00
O447   O     0.79623   0.38397   0.14932   0.00000  Uiso   1.00
O448   O     0.74261   0.39833   0.19253   0.00000  Uiso   1.00
O449   O     0.89770   0.58820   0.32001   0.00000  Uiso   1.00
O450   O     0.93972   0.64057   0.29246   0.00000  Uiso   1.00
O451   O     0.84763   0.60143   0.12898   0.00000  Uiso   1.00
O452   O     0.78517   0.60732   0.08974   0.00000  Uiso   1.00
O453   O     0.76141   0.43727   0.34856   0.00000  Uiso   1.00
O454   O     0.89441   0.46179   0.25000   0.00000  Uiso   1.00
O455   O     0.78434   0.38271   0.39671   0.00000  Uiso   1.00
O456   O     0.87566   0.60594   0.40676   0.00000  Uiso   1.00
O457   O     0.81295   0.60277   0.36773   0.00000  Uiso   1.00
O458   O     0.90501   0.43517   0.15204   0.00000  Uiso   1.00
O459   O     0.87904   0.38092   0.10518   0.00000  Uiso   1.00
O460   O     0.89441   0.53821   0.25000   0.00000  Uiso   1.00
O461   O     0.77226   0.46179   0.24999   0.00000  Uiso   1.00
O462   O     0.83333   0.53822   0.18453   0.00000  Uiso   1.00
O463   O     0.83334   0.46178   0.31547   0.00000  Uiso   1.00
O464   O     0.83334   0.53822   0.31547   0.00000  Uiso   1.00
O465   O     0.83333   0.46178   0.18453   0.00000  Uiso   1.00
O466   O     0.91701   0.39884   0.30859   0.00000  Uiso   1.00
Zn467  Zn    0.83333   0.55104   0.25000   0.00000  Uiso   1.00
Zn468  Zn    0.83333   0.44896   0.25000   0.00000  Uiso   1.00
C469   C     0.08676   0.83335   0.25079   0.00000  Uiso   1.00
C470   C     0.31190   0.87399   0.24827   0.00000  Uiso   1.00
C471   C     0.31229   0.79234   0.25141   0.00000  Uiso   1.00
C472   C     0.02116   0.87407   0.25026   0.00000  Uiso   1.00
C473   C     0.15378   0.86387   0.04406   0.00000  Uiso   1.00
C474   C     0.14934   0.79072   0.45107   0.00000  Uiso   1.00
C475   C     0.18257   0.86353   0.45548   0.00000  Uiso   1.00
C476   C     0.18619   0.79053   0.04918   0.00000  Uiso   1.00
C477   C     0.15980   0.86993   0.08937   0.00000  Uiso   1.00
C478   C     0.14371   0.79471   0.40498   0.00000  Uiso   1.00
C479   C     0.17489   0.86994   0.41036   0.00000  Uiso   1.00
C480   C     0.24661   0.83327   0.24957   0.00000  Uiso   1.00
C481   C     0.19040   0.79425   0.09537   0.00000  Uiso   1.00
C482   C     0.17457   0.83325   0.11610   0.00000  Uiso   1.00
C483   C     0.15933   0.83348   0.38396   0.00000  Uiso   1.00
C484   C     0.16803   0.82524   0.02392   0.00000  Uiso   1.00
C485   C     0.16864   0.82501   0.47594   0.00000  Uiso   1.00
C486   C     0.29081   0.83315   0.24937   0.00000  Uiso   1.00
C487   C     0.04262   0.83330   0.25195   0.00000  Uiso   1.00
C488   C     0.21721   0.71422   0.31473   0.00000  Uiso   1.00
C489   C     0.09942   0.95490   0.20301   0.00000  Uiso   1.00
C490   C     0.11550   0.71476   0.18593   0.00000  Uiso   1.00
C491   C     0.16941   0.83341   0.16409   0.00000  Uiso   1.00
C492   C     0.23393   0.95468   0.29687   0.00000  Uiso   1.00
C493   C     0.15374   0.91639   0.10533   0.00000  Uiso   1.00
C494   C     0.11764   0.76018   0.38091   0.00000  Uiso   1.00
C495   C     0.17880   0.91666   0.39419   0.00000  Uiso   1.00
C496   C     0.21485   0.75874   0.11998   0.00000  Uiso   1.00
C497   C     0.16391   0.83347   0.33590   0.00000  Uiso   1.00
C498   C     0.19367   0.69074   0.27809   0.00000  Uiso   1.00
C499   C     0.13671   0.97658   0.22512   0.00000  Uiso   1.00
C500   C     0.13952   0.69090   0.22204   0.00000  Uiso   1.00
C501   C     0.19653   0.97645   0.27496   0.00000  Uiso   1.00
C502   C     0.02157   0.79245   0.25363   0.00000  Uiso   1.00
H503   H     0.22141   0.72964   0.38003   0.00000  Uiso   1.00
H504   H     0.09815   0.69587   0.37804   0.00000  Uiso   1.00
H505   H     0.15224   0.96834   0.35956   0.00000  Uiso   1.00
H506   H     0.23055   0.69319   0.12446   0.00000  Uiso   1.00
H507   H     0.03777   0.76064   0.25656   0.00000  Uiso   1.00
H508   H     0.29565   0.90575   0.24569   0.00000  Uiso   1.00
H509   H     0.29646   0.76037   0.25125   0.00000  Uiso   1.00
H510   H     0.03712   0.90589   0.25041   0.00000  Uiso   1.00
H511   H     0.03731   0.95829   0.18864   0.00000  Uiso   1.00
H512   H     0.06257   0.74664   0.16495   0.00000  Uiso   1.00
H513   H     0.29617   0.95750   0.31032   0.00000  Uiso   1.00
H514   H     0.14064   0.89108   0.02367   0.00000  Uiso   1.00
H515   H     0.13650   0.76230   0.46798   0.00000  Uiso   1.00
H516   H     0.19617   0.89061   0.47564   0.00000  Uiso   1.00
H517   H     0.19898   0.76178   0.03262   0.00000  Uiso   1.00
H518   H     0.11855   0.97258   0.10137   0.00000  Uiso   1.00
N519   N     0.16667   0.95240   0.25000   0.00000  Uiso   1.00
N520   N     0.16667   0.71427   0.25000   0.00000  Uiso   1.00
O521   O     0.10559   0.87154   0.25000   0.00000  Uiso   1.00
O522   O     0.20255   0.71306   0.35733   0.00000  Uiso   1.00
O523   O     0.10246   0.92163   0.18002   0.00000  Uiso   1.00
O524   O     0.06024   0.97432   0.20704   0.00000  Uiso   1.00
O525   O     0.12956   0.71731   0.14932   0.00000  Uiso   1.00
O526   O     0.07595   0.73166   0.19253   0.00000  Uiso   1.00
O527   O     0.23104   0.92153   0.32001   0.00000  Uiso   1.00
O528   O     0.27305   0.97390   0.29246   0.00000  Uiso   1.00
O529   O     0.18097   0.93476   0.12898   0.00000  Uiso   1.00
O530   O     0.11850   0.94065   0.08974   0.00000  Uiso   1.00
O531   O     0.09475   0.77060   0.34856   0.00000  Uiso   1.00
O532   O     0.22774   0.79513   0.25000   0.00000  Uiso   1.00
O533   O     0.11767   0.71604   0.39671   0.00000  Uiso   1.00
O534   O     0.20900   0.93928   0.40676   0.00000  Uiso   1.00
O535   O     0.14629   0.93611   0.36773   0.00000  Uiso   1.00
O536   O     0.23834   0.76851   0.15204   0.00000  Uiso   1.00
O537   O     0.21237   0.71425   0.10518   0.00000  Uiso   1.00
O538   O     0.22774   0.87154   0.25000   0.00000  Uiso   1.00
O539   O     0.10559   0.79513   0.24999   0.00000  Uiso   1.00
O540   O     0.16666   0.87155   0.18453   0.00000  Uiso   1.00
O541   O     0.16667   0.79511   0.31547   0.00000  Uiso   1.00
O542   O     0.16667   0.87155   0.31547   0.00000  Uiso   1.00
O543   O     0.16666   0.79511   0.18453   0.00000  Uiso   1.00
O544   O     0.25035   0.73218   0.30859   0.00000  Uiso   1.00
Zn545  Zn    0.16667   0.88437   0.25000   0.00000  Uiso   1.00
Zn546  Zn    0.16667   0.78229   0.25000   0.00000  Uiso   1.00
C547   C     0.42009   0.83335   0.25079   0.00000  Uiso   1.00
C548   C     0.64523   0.87399   0.24827   0.00000  Uiso   1.00
C549   C     0.64562   0.79234   0.25141   0.00000  Uiso   1.00
C550   C     0.35450   0.87407   0.25026   0.00000  Uiso   1.00
C551   C     0.48712   0.86387   0.04406   0.00000  Uiso   1.00
C552   C     0.48267   0.79072   0.45107   0.00000  Uiso   1.00
C553   C     0.51590   0.86353   0.45548   0.00000  Uiso   1.00
C554   C     0.51952   0.79053   0.04918   0.00000  Uiso   1.00
C555   C     0.49314   0.86993   0.08937   0.00000  Uiso   1.00
C556   C     0.47705   0.79471   0.40498   0.00000  Uiso   1.00
C557   C     0.50822   0.86994   0.41036   0.00000  Uiso   1.00
C558   C     0.57994   0.83327   0.24957   0.00000  Uiso   1.00
C559   C     0.52373   0.79425   0.09537   0.00000  Uiso   1.00
C560   C     0.50791   0.83325   0.11610   0.00000  Uiso   1.00
C561   C     0.49267   0.83348   0.38396   0.00000  Uiso   1.00
C562   C     0.50136   0.82524   0.02392   0.00000  Uiso   1.00
C563   C     0.50198   0.82501   0.47594   0.00000  Uiso   1.00
C564   C     0.62415   0.83315   0.24937   0.00000  Uiso   1.00
C565   C     0.37595   0.83330   0.25195   0.00000  Uiso   1.00
C566   C     0.55054   0.71422   0.31473   0.00000  Uiso   1.00
C567   C     0.43275   0.95490   0.20301   0.00000  Uiso   1.00
C568   C     0.44883   0.71476   0.18593   0.00000  Uiso   1.00
C569   C     0.50275   0.83341   0.16409   0.00000  Uiso   1.00
C570   C     0.56727   0.95468   0.29687   0.00000  Uiso   1.00
C571   C     0.48707   0.91639   0.10533   0.00000  Uiso   1.00
C572   C     0.45097   0.76018   0.38091   0.00000  Uiso   1.00
C573   C     0.51214   0.91666   0.39419   0.00000  Uiso   1.00
C574   C     0.54818   0.75874   0.11998   0.00000  Uiso   1.00
C575   C     0.49725   0.83347   0.33590   0.00000  Uiso   1.00
C576   C     0.52700   0.69074   0.27809   0.00000  Uiso   1.00
C577   C     0.47004   0.97658   0.22512   0.00000  Uiso   1.00
C578   C     0.47285   0.69090   0.22204   0.00000  Uiso   1.00
C579   C     0.52986   0.97645   0.27496   0.00000  Uiso   1.00
C580   C     0.35490   0.79245   0.25363   0.00000  Uiso   1.00
H581   H     0.55474   0.72964   0.38003   0.00000  Uiso   1.00
H582   H     0.43148   0.69587   0.37804   0.00000  Uiso   1.00
H583   H     0.48558   0.96834   0.35956   0.00000  Uiso   1.00
H584   H     0.56389   0.69319   0.12446   0.00000  Uiso   1.00
H585   H     0.37110   0.76064   0.25656   0.00000  Uiso   1.00
H586   H     0.62898   0.90575   0.24569   0.00000  Uiso   1.00
H587   H     0.62979   0.76037   0.25125   0.00000  Uiso   1.00
H588   H     0.37045   0.90589   0.25041   0.00000  Uiso   1.00
H589   H     0.37065   0.95829   0.18864   0.00000  Uiso   1.00
H590   H     0.39591   0.74664   0.16495   0.00000  Uiso   1.00
H591   H     0.62950   0.95750   0.31032   0.00000  Uiso   1.00
H592   H     0.47397   0.89108   0.02367   0.00000  Uiso   1.00
H593   H     0.46983   0.76230   0.46798   0.00000  Uiso   1.00
H594   H     0.52951   0.89061   0.47564   0.00000  Uiso   1.00
H595   H     0.53232   0.76178   0.03262   0.00000  Uiso   1.00
H596   H     0.45189   0.97258   0.10137   0.00000  Uiso   1.00
N597   N     0.50000   0.95240   0.25000   0.00000  Uiso   1.00
N598   N     0.50000   0.71427   0.25000   0.00000  Uiso   1.00
O599   O     0.43892   0.87154   0.25000   0.00000  Uiso   1.00
O600   O     0.53588   0.71306   0.35733   0.00000  Uiso   1.00
O601   O     0.43579   0.92163   0.18002   0.00000  Uiso   1.00
O602   O     0.39357   0.97432   0.20704   0.00000  Uiso   1.00
O603   O     0.46289   0.71731   0.14932   0.00000  Uiso   1.00
O604   O     0.40928   0.73166   0.19253   0.00000  Uiso   1.00
O605   O     0.56437   0.92153   0.32001   0.00000  Uiso   1.00
O606   O     0.60639   0.97390   0.29246   0.00000  Uiso   1.00
O607   O     0.51430   0.93476   0.12898   0.00000  Uiso   1.00
O608   O     0.45184   0.94065   0.08974   0.00000  Uiso   1.00
O609   O     0.42808   0.77060   0.34856   0.00000  Uiso   1.00
O610   O     0.56108   0.79513   0.25000   0.00000  Uiso   1.00
O611   O     0.45101   0.71604   0.39671   0.00000  Uiso   1.00
O612   O     0.54233   0.93928   0.40676   0.00000  Uiso   1.00
O613   O     0.47962   0.93611   0.36773   0.00000  Uiso   1.00
O614   O     0.57168   0.76851   0.15204   0.00000  Uiso   1.00
O615   O     0.54571   0.71425   0.10518   0.00000  Uiso   1.00
O616   O     0.56108   0.87154   0.25000   0.00000  Uiso   1.00
O617   O     0.43892   0.79513   0.24999   0.00000  Uiso   1.00
O618   O     0.50000   0.87155   0.18453   0.00000  Uiso   1.00
O619   O     0.50000   0.79511   0.31547   0.00000  Uiso   1.00
O620   O     0.50000   0.87155   0.31547   0.00000  Uiso   1.00
O621   O     0.50000   0.79511   0.18453   0.00000  Uiso   1.00
O622   O     0.58368   0.73218   0.30859   0.00000  Uiso   1.00
Zn623  Zn    0.50000   0.88437   0.25000   0.00000  Uiso   1.00
Zn624  Zn    0.50000   0.78229   0.25000   0.00000  Uiso   1.00
C625   C     0.75342   0.83335   0.25079   0.00000  Uiso   1.00
C626   C     0.97856   0.87399   0.24827   0.00000  Uiso   1.00
C627   C     0.97896   0.79234   0.25141   0.00000  Uiso   1.00
C628   C     0.68783   0.87407   0.25026   0.00000  Uiso   1.00
C629   C     0.82045   0.86387   0.04406   0.00000  Uiso   1.00
C630   C     0.81600   0.79072   0.45107   0.00000  Uiso   1.00
C631   C     0.84923   0.86353   0.45548   0.00000  Uiso   1.00
C632   C     0.85286   0.79053   0.04918   0.00000  Uiso   1.00
C633   C     0.82647   0.86993   0.08937   0.00000  Uiso   1.00
C634   C     0.81038   0.79471   0.40498   0.00000  Uiso   1.00
C635   C     0.84156   0.86994   0.41036   0.00000  Uiso   1.00
C636   C     0.91327   0.83327   0.24957   0.00000  Uiso   1.00
C637   C     0.85706   0.79425   0.09537   0.00000  Uiso   1.00
C638   C     0.84124   0.83325   0.11610   0.00000  Uiso   1.00
C639   C     0.82600   0.83348   0.38396   0.00000  Uiso   1.00
C640   C     0.83470   0.82524   0.02392   0.00000  Uiso   1.00
C641   C     0.83531   0.82501   0.47594   0.00000  Uiso   1.00
C642   C     0.95748   0.83315   0.24937   0.00000  Uiso   1.00
C643   C     0.70929   0.83330   0.25195   0.00000  Uiso   1.00
C644   C     0.88388   0.71422   0.31473   0.00000  Uiso   1.00
C645   C     0.76608   0.95490   0.20301   0.00000  Uiso   1.00
C646   C     0.78217   0.71476   0.18593   0.00000  Uiso   1.00
C647   C     0.83608   0.83341   0.16409   0.00000  Uiso   1.00
C648   C     0.90060   0.95468   0.29687   0.00000  Uiso   1.00
C649   C     0.82040   0.91639   0.10533   0.00000  Uiso   1.00
C650   C     0.78430   0.76018   0.38091   0.00000  Uiso   1.00
C651   C     0.84547   0.91666   0.39419   0.00000  Uiso   1.00
C652   C     0.88151   0.75874   0.11998   0.00000  Uiso   1.00
C653   C     0.83058   0.83347   0.33590   0.00000  Uiso   1.00
C654   C     0.86034   0.69074   0.27809   0.00000  Uiso   1.00
C655   C     0.80337   0.97658   0.22512   0.00000  Uiso   1.00
C656   C     0.80618   0.69090   0.22204   0.00000  Uiso   1.00
C657   C     0.86320   0.97645   0.27496   0.00000  Uiso   1.00
C658   C     0.68823   0.79245   0.25363   0.00000  Uiso   1.00
H659   H     0.88808   0.72964   0.38003   0.00000  Uiso   1.00
H660   H     0.76482   0.69587   0.37804   0.00000  Uiso   1.00
H661   H     0.81891   0.96834   0.35956   0.00000  Uiso   1.00
H662   H     0.89722   0.69319   0.12446   0.00000  Uiso   1.00
H663   H     0.70443   0.76064   0.25656   0.00000  Uiso   1.00
H664   H     0.96232   0.90575   0.24569   0.00000  Uiso   1.00
H665   H     0.96312   0.76037   0.25125   0.00000  Uiso   1.00
H666   H     0.70379   0.90589   0.25041   0.00000  Uiso   1.00
H667   H     0.70398   0.95829   0.18864   0.00000  Uiso   1.00
H668   H     0.72924   0.74664   0.16495   0.00000  Uiso   1.00
H669   H     0.96283   0.95750   0.31032   0.00000  Uiso   1.00
H670   H     0.80731   0.89108   0.02367   0.00000  Uiso   1.00
H671   H     0.80317   0.76230   0.46798   0.00000  Uiso   1.00
H672   H     0.86284   0.89061   0.47564   0.00000  Uiso   1.00
H673   H     0.86565   0.76178   0.03262   0.00000  Uiso   1.00
H674   H     0.78522   0.97258   0.10137   0.00000  Uiso   1.00
N675   N     0.83333   0.95240   0.25000   0.00000  Uiso   1.00
N676   N     0.83333   0.71427   0.25000   0.00000  Uiso   1.00
O677   O     0.77226   0.87154   0.25000   0.00000  Uiso   1.00
O678   O     0.86922   0.71306   0.35733   0.00000  Uiso   1.00
O679   O     0.76912   0.92163   0.18002   0.00000  Uiso   1.00
O680   O     0.72690   0.97432   0.20704   0.00000  Uiso   1.00
O681   O     0.79623   0.71731   0.14932   0.00000  Uiso   1.00
O682   O     0.74261   0.73166   0.19253   0.00000  Uiso   1.00
O683   O     0.89770   0.92153   0.32001   0.00000  Uiso   1.00
O684   O     0.93972   0.97390   0.29246   0.00000  Uiso   1.00
O685   O     0.84763   0.93476   0.12898   0.00000  Uiso   1.00
O686   O     0.78517   0.94065   0.08974   0.00000  Uiso   1.00
O687   O     0.76141   0.77060   0.34856   0.00000  Uiso   1.00
O688   O     0.89441   0.79513   0.25000   0.00000  Uiso   1.00
O689   O     0.78434   0.71604   0.39671   0.00000  Uiso   1.00
O690   O     0.87566   0.93928   0.40676   0.00000  Uiso   1.00
O691   O     0.81295   0.93611   0.36773   0.00000  Uiso   1.00
O692   O     0.90501   0.76851   0.15204   0.00000  Uiso   1.00
O693   O     0.87904   0.71425   0.10518   0.00000  Uiso   1.00
O694   O     0.89441   0.87154   0.25000   0.00000  Uiso   1.00
O695   O     0.77226   0.79513   0.24999   0.00000  Uiso   1.00
O696   O     0.83333   0.87155   0.18453   0.00000  Uiso   1.00
O697   O     0.83334   0.79511   0.31547   0.00000  Uiso   1.00
O698   O     0.83334   0.87155   0.31547   0.00000  Uiso   1.00
O699   O     0.83333   0.79511   0.18453   0.00000  Uiso   1.00
O700   O     0.91701   0.73218   0.30859   0.00000  Uiso   1.00
Zn701  Zn    0.83333   0.88437   0.25000   0.00000  Uiso   1.00
Zn702  Zn    0.83333   0.78229   0.25000   0.00000  Uiso   1.00
C703   C     0.08676   0.16668   0.75079   0.00000  Uiso   1.00
C704   C     0.31190   0.20732   0.74827   0.00000  Uiso   1.00
C705   C     0.31229   0.12567   0.75141   0.00000  Uiso   1.00
C706   C     0.02116   0.20740   0.75026   0.00000  Uiso   1.00
C707   C     0.15378   0.19721   0.54406   0.00000  Uiso   1.00
C708   C     0.14934   0.12405   0.95107   0.00000  Uiso   1.00
C709   C     0.18257   0.19686   0.95548   0.00000  Uiso   1.00
C710   C     0.18619   0.12386   0.54918   0.00000  Uiso   1.00
C711   C     0.15980   0.20326   0.58937   0.00000  Uiso   1.00
C712   C     0.14371   0.12804   0.90498   0.00000  Uiso   1.00
C713   C     0.17489   0.20327   0.91036   0.00000  Uiso   1.00
C714   C     0.24661   0.16660   0.74957   0.00000  Uiso   1.00
C715   C     0.19040   0.12758   0.59537   0.00000  Uiso   1.00
C716   C     0.17457   0.16659   0.61610   0.00000  Uiso   1.00
C717   C     0.15933   0.16681   0.88396   0.00000  Uiso   1.00
C718   C     0.16803   0.15857   0.52392   0.00000  Uiso   1.00
C719   C     0.16864   0.15834   0.97594   0.00000  Uiso   1.00
C720   C     0.29081   0.16649   0.74937   0.00000  Uiso   1.00
C721   C     0.04262   0.16664   0.75195   0.00000  Uiso   1.00
C722   C     0.21721   0.04756   0.81473   0.00000  Uiso   1.00
C723   C     0.09942   0.28823   0.70301   0.00000  Uiso   1.00
C724   C     0.11550   0.04809   0.68593   0.00000  Uiso   1.00
C725   C     0.16941   0.16675   0.66409   0.00000  Uiso   1.00
C726   C     0.23393   0.28801   0.79687   0.00000  Uiso   1.00
C727   C     0.15374   0.24973   0.60533   0.00000  Uiso   1.00
C728   C     0.11764   0.09351   0.88091   0.00000  Uiso   1.00
C729   C     0.17880   0.24999   0.89419   0.00000  Uiso   1.00
C730   C     0.21485   0.09207   0.61998   0.00000  Uiso   1.00
C731   C     0.16391   0.16680   0.83590   0.00000  Uiso   1.00
C732   C     0.19367   0.02407   0.77809   0.00000  Uiso   1.00
C733   C     0.13671   0.30992   0.72512   0.00000  Uiso   1.00
C734   C     0.13952   0.02423   0.72204   0.00000  Uiso   1.00
C735   C     0.19653   0.30978   0.77496   0.00000  Uiso   1.00
C736   C     0.02157   0.12579   0.75363   0.00000  Uiso   1.00
H737   H     0.22141   0.06297   0.88003   0.00000  Uiso   1.00
H738   H     0.09815   0.02920   0.87804   0.00000  Uiso   1.00
H739   H     0.15224   0.30168   0.85956   0.00000  Uiso   1.00
H740   H     0.23055   0.02653   0.62446   0.00000  Uiso   1.00
H741   H     0.03777   0.09397   0.75656   0.00000  Uiso   1.00
H742   H     0.29565   0.23909   0.74569   0.00000  Uiso   1.00
H743   H     0.29646   0.09371   0.75125   0.00000  Uiso   1.00
H744   H     0.03712   0.23922   0.75041   0.00000  Uiso   1.00
H745   H     0.03731   0.29162   0.68864   0.00000  Uiso   1.00
H746   H     0.06257   0.07997   0.66495   0.00000  Uiso   1.00
H747   H     0.29617   0.29084   0.81032   0.00000  Uiso   1.00
H748   H     0.14064   0.22441   0.52367   0.00000  Uiso   1.00
H749   H     0.13650   0.09564   0.96798   0.00000  Uiso   1.00
H750   H     0.19617   0.22395   0.97564   0.00000  Uiso   1.00
H751   H     0.19898   0.09511   0.53262   0.00000  Uiso   1.00
H752   H     0.11855   0.30592   0.60137   0.00000  Uiso   1.00
N753   N     0.16667   0.28573   0.75000   0.00000  Uiso   1.00
N754   N     0.16667   0.04760   0.75000   0.00000  Uiso   1.00
O755   O     0.10559   0.20487   0.75000   0.00000  Uiso   1.00
O756   O     0.20255   0.04639   0.85733   0.00000  Uiso   1.00
O757   O     0.10246   0.25496   0.68002   0.00000  Uiso   1.00
O758   O     0.06024   0.30765   0.70704   0.00000  Uiso   1.00
O759   O     0.12956   0.05064   0.64932   0.00000  Uiso   1.00
O760   O     0.07595   0.06499   0.69253   0.00000  Uiso   1.00
O761   O     0.23104   0.25487   0.82001   0.00000  Uiso   1.00
O762   O     0.27305   0.30723   0.79246   0.00000  Uiso   1.00
O763   O     0.18097   0.26809   0.62898   0.00000  Uiso   1.00
O764   O     0.11850   0.27399   0.58974   0.00000  Uiso   1.00
O765   O     0.09475   0.10393   0.84856   0.00000  Uiso   1.00
O766   O     0.22774   0.12846   0.75000   0.00000  Uiso   1.00
O767   O     0.11767   0.04937   0.89671   0.00000  Uiso   1.00
O768   O     0.20900   0.27261   0.90676   0.00000  Uiso   1.00
O769   O     0.14629   0.26944   0.86773   0.00000  Uiso   1.00
O770   O     0.23834   0.10184   0.65204   0.00000  Uiso   1.00
O771   O     0.21237   0.04759   0.60518   0.00000  Uiso   1.00
O772   O     0.22774   0.20487   0.75000   0.00000  Uiso   1.00
O773   O     0.10559   0.12846   0.74999   0.00000  Uiso   1.00
O774   O     0.16666   0.20489   0.68453   0.00000  Uiso   1.00
O775   O     0.16667   0.12845   0.81547   0.00000  Uiso   1.00
O776   O     0.16667   0.20489   0.81547   0.00000  Uiso   1.00
O777   O     0.16666   0.12845   0.68453   0.00000  Uiso   1.00
O778   O     0.25035   0.06551   0.80859   0.00000  Uiso   1.00
Zn779  Zn    0.16667   0.21771   0.75000   0.00000  Uiso   1.00
Zn780  Zn    0.16667   0.11563   0.75000   0.00000  Uiso   1.00
C781   C     0.42009   0.16668   0.75079   0.00000  Uiso   1.00
C782   C     0.64523   0.20732   0.74827   0.00000  Uiso   1.00
C783   C     0.64562   0.12567   0.75141   0.00000  Uiso   1.00
C784   C     0.35450   0.20740   0.75026   0.00000  Uiso   1.00
C785   C     0.48712   0.19721   0.54406   0.00000  Uiso   1.00
C786   C     0.48267   0.12405   0.95107   0.00000  Uiso   1.00
C787   C     0.51590   0.19686   0.95548   0.00000  Uiso   1.00
C788   C     0.51952   0.12386   0.54918   0.00000  Uiso   1.00
C789   C     0.49314   0.20326   0.58937   0.00000  Uiso   1.00
C790   C     0.47705   0.12804   0.90498   0.00000  Uiso   1.00
C791   C     0.50822   0.20327   0.91036   0.00000  Uiso   1.00
C792   C     0.57994   0.16660   0.74957   0.00000  Uiso   1.00
C793   C     0.52373   0.12758   0.59537   0.00000  Uiso   1.00
C794   C     0.50791   0.16659   0.61610   0.00000  Uiso   1.00
C795   C     0.49267   0.16681   0.88396   0.00000  Uiso   1.00
C796   C     0.50136   0.15857   0.52392   0.00000  Uiso   1.00
C797   C     0.50198   0.15834   0.97594   0.00000  Uiso   1.00
C798   C     0.62415   0.16649   0.74937   0.00000  Uiso   1.00
C799   C     0.37595   0.16664   0.75195   0.00000  Uiso   1.00
C800   C     0.55054   0.04756   0.81473   0.00000  Uiso   1.00
C801   C     0.43275   0.28823   0.70301   0.00000  Uiso   1.00
C802   C     0.44883   0.04809   0.68593   0.00000  Uiso   1.00
C803   C     0.50275   0.16675   0.66409   0.00000  Uiso   1.00
C804   C     0.56727   0.28801   0.79687   0.00000  Uiso   1.00
C805   C     0.48707   0.24973   0.60533   0.00000  Uiso   1.00
C806   C     0.45097   0.09351   0.88091   0.00000  Uiso   1.00
C807   C     0.51214   0.24999   0.89419   0.00000  Uiso   1.00
C808   C     0.54818   0.09207   0.61998   0.00000  Uiso   1.00
C809   C     0.49725   0.16680   0.83590   0.00000  Uiso   1.00
C810   C     0.52700   0.02407   0.77809   0.00000  Uiso   1.00
C811   C     0.47004   0.30992   0.72512   0.00000  Uiso   1.00
C812   C     0.47285   0.02423   0.72204   0.00000  Uiso   1.00
C813   C     0.52986   0.30978   0.77496   0.00000  Uiso   1.00
C814   C     0.35490   0.12579   0.75363   0.00000  Uiso   1.00
H815   H     0.55474   0.06297   0.88003   0.00000  Uiso   1.00
H816   H     0.43148   0.02920   0.87804   0.00000  Uiso   1.00
H817   H     0.48558   0.30168   0.85956   0.00000  Uiso   1.00
H818   H     0.56389   0.02653   0.62446   0.00000  Uiso   1.00
H819   H     0.37110   0.09397   0.75656   0.00000  Uiso   1.00
H820   H     0.62898   0.23909   0.74569   0.00000  Uiso   1.00
H821   H     0.62979   0.09371   0.75125   0.00000  Uiso   1.00
H822   H     0.37045   0.23922   0.75041   0.00000  Uiso   1.00
H823   H     0.37065   0.29162   0.68864   0.00000  Uiso   1.00
H824   H     0.39591   0.07997   0.66495   0.00000  Uiso   1.00
H825   H     0.62950   0.29084   0.81032   0.00000  Uiso   1.00
H826   H     0.47397   0.22441   0.52367   0.00000  Uiso   1.00
H827   H     0.46983   0.09564   0.96798   0.00000  Uiso   1.00
H828   H     0.52951   0.22395   0.97564   0.00000  Uiso   1.00
H829   H     0.53232   0.09511   0.53262   0.00000  Uiso   1.00
H830   H     0.45189   0.30592   0.60137   0.00000  Uiso   1.00
N831   N     0.50000   0.28573   0.75000   0.00000  Uiso   1.00
N832   N     0.50000   0.04760   0.75000   0.00000  Uiso   1.00
O833   O     0.43892   0.20487   0.75000   0.00000  Uiso   1.00
O834   O     0.53588   0.04639   0.85733   0.00000  Uiso   1.00
O835   O     0.43579   0.25496   0.68002   0.00000  Uiso   1.00
O836   O     0.39357   0.30765   0.70704   0.00000  Uiso   1.00
O837   O     0.46289   0.05064   0.64932   0.00000  Uiso   1.00
O838   O     0.40928   0.06499   0.69253   0.00000  Uiso   1.00
O839   O     0.56437   0.25487   0.82001   0.00000  Uiso   1.00
O840   O     0.60639   0.30723   0.79246   0.00000  Uiso   1.00
O841   O     0.51430   0.26809   0.62898   0.00000  Uiso   1.00
O842   O     0.45184   0.27399   0.58974   0.00000  Uiso   1.00
O843   O     0.42808   0.10393   0.84856   0.00000  Uiso   1.00
O844   O     0.56108   0.12846   0.75000   0.00000  Uiso   1.00
O845   O     0.45101   0.04937   0.89671   0.00000  Uiso   1.00
O846   O     0.54233   0.27261   0.90676   0.00000  Uiso   1.00
O847   O     0.47962   0.26944   0.86773   0.00000  Uiso   1.00
O848   O     0.57168   0.10184   0.65204   0.00000  Uiso   1.00
O849   O     0.54571   0.04759   0.60518   0.00000  Uiso   1.00
O850   O     0.56108   0.20487   0.75000   0.00000  Uiso   1.00
O851   O     0.43892   0.12846   0.74999   0.00000  Uiso   1.00
O852   O     0.50000   0.20489   0.68453   0.00000  Uiso   1.00
O853   O     0.50000   0.12845   0.81547   0.00000  Uiso   1.00
O854   O     0.50000   0.20489   0.81547   0.00000  Uiso   1.00
O855   O     0.50000   0.12845   0.68453   0.00000  Uiso   1.00
O856   O     0.58368   0.06551   0.80859   0.00000  Uiso   1.00
Zn857  Zn    0.50000   0.21771   0.75000   0.00000  Uiso   1.00
Zn858  Zn    0.50000   0.11563   0.75000   0.00000  Uiso   1.00
C859   C     0.75342   0.16668   0.75079   0.00000  Uiso   1.00
C860   C     0.97856   0.20732   0.74827   0.00000  Uiso   1.00
C861   C     0.97896   0.12567   0.75141   0.00000  Uiso   1.00
C862   C     0.68783   0.20740   0.75026   0.00000  Uiso   1.00
C863   C     0.82045   0.19721   0.54406   0.00000  Uiso   1.00
C864   C     0.81600   0.12405   0.95107   0.00000  Uiso   1.00
C865   C     0.84923   0.19686   0.95548   0.00000  Uiso   1.00
C866   C     0.85286   0.12386   0.54918   0.00000  Uiso   1.00
C867   C     0.82647   0.20326   0.58937   0.00000  Uiso   1.00
C868   C     0.81038   0.12804   0.90498   0.00000  Uiso   1.00
C869   C     0.84156   0.20327   0.91036   0.00000  Uiso   1.00
C870   C     0.91327   0.16660   0.74957   0.00000  Uiso   1.00
C871   C     0.85706   0.12758   0.59537   0.00000  Uiso   1.00
C872   C     0.84124   0.16659   0.61610   0.00000  Uiso   1.00
C873   C     0.82600   0.16681   0.88396   0.00000  Uiso   1.00
C874   C     0.83470   0.15857   0.52392   0.00000  Uiso   1.00
C875   C     0.83531   0.15834   0.97594   0.00000  Uiso   1.00
C876   C     0.95748   0.16649   0.74937   0.00000  Uiso   1.00
C877   C     0.70929   0.16664   0.75195   0.00000  Uiso   1.00
C878   C     0.88388   0.04756   0.81473   0.00000  Uiso   1.00
C879   C     0.76608   0.28823   0.70301   0.00000  Uiso   1.00
C880   C     0.78217   0.04809   0.68593   0.00000  Uiso   1.00
C881   C     0.83608   0.16675   0.66409   0.00000  Uiso   1.00
C882   C     0.90060   0.28801   0.79687   0.00000  Uiso   1.00
C883   C     0.82040   0.24973   0.60533   0.00000  Uiso   1.00
C884   C     0.78430   0.09351   0.88091   0.00000  Uiso   1.00
C885   C     0.84547   0.24999   0.89419   0.00000  Uiso   1.00
C886   C     0.88151   0.09207   0.61998   0.00000  Uiso   1.00
C887   C     0.83058   0.16680   0.83590   0.00000  Uiso   1.00
C888   C     0.86034   0.02407   0.77809   0.00000  Uiso   1.00
C889   C     0.80337   0.30992   0.72512   0.00000  Uiso   1.00
C890   C     0.80618   0.02423   0.72204   0.00000  Uiso   1.00
C891   C     0.86320   0.30978   0.77496   0.00000  Uiso   1.00
C892   C     0.68823   0.12579   0.75363   0.00000  Uiso   1.00
H893   H     0.88808   0.06297   0.88003   0.00000  Uiso   1.00
H894   H     0.76482   0.02920   0.87804   0.00000  Uiso   1.00
H895   H     0.81891   0.30168   0.85956   0.00000  Uiso   1.00
H896   H     0.89722   0.02653   0.62446   0.00000  Uiso   1.00
H897   H     0.70443   0.09397   0.75656   0.00000  Uiso   1.00
H898   H     0.96232   0.23909   0.74569   0.00000  Uiso   1.00
H899   H     0.96312   0.09371   0.75125   0.00000  Uiso   1.00
H900   H     0.70379   0.23922   0.75041   0.00000  Uiso   1.00
H901   H     0.70398   0.29162   0.68864   0.00000  Uiso   1.00
H902   H     0.72924   0.07997   0.66495   0.00000  Uiso   1.00
H903   H     0.96283   0.29084   0.81032   0.00000  Uiso   1.00
H904   H     0.80731   0.22441   0.52367   0.00000  Uiso   1.00
H905   H     0.80317   0.09564   0.96798   0.00000  Uiso   1.00
H906   H     0.86284   0.22395   0.97564   0.00000  Uiso   1.00
H907   H     0.86565   0.09511   0.53262   0.00000  Uiso   1.00
H908   H     0.78522   0.30592   0.60137   0.00000  Uiso   1.00
N909   N     0.83333   0.28573   0.75000   0.00000  Uiso   1.00
N910   N     0.83333   0.04760   0.75000   0.00000  Uiso   1.00
O911   O     0.77226   0.20487   0.75000   0.00000  Uiso   1.00
O912   O     0.86922   0.04639   0.85733   0.00000  Uiso   1.00
O913   O     0.76912   0.25496   0.68002   0.00000  Uiso   1.00
O914   O     0.72690   0.30765   0.70704   0.00000  Uiso   1.00
O915   O     0.79623   0.05064   0.64932   0.00000  Uiso   1.00
O916   O     0.74261   0.06499   0.69253   0.00000  Uiso   1.00
O917   O     0.89770   0.25487   0.82001   0.00000  Uiso   1.00
O918   O     0.93972   0.30723   0.79246   0.00000  Uiso   1.00
O919   O     0.84763   0.26809   0.62898   0.00000  Uiso   1.00
O920   O     0.78517   0.27399   0.58974   0.00000  Uiso   1.00
O921   O     0.76141   0.10393   0.84856   0.00000  Uiso   1.00
O922   O     0.89441   0.12846   0.75000   0.00000  Uiso   1.00
O923   O     0.78434   0.04937   0.89671   0.00000  Uiso   1.00
O924   O     0.87566   0.27261   0.90676   0.00000  Uiso   1.00
O925   O     0.81295   0.26944   0.86773   0.00000  Uiso   1.00
O926   O     0.90501   0.10184   0.65204   0.00000  Uiso   1.00
O927   O     0.87904   0.04759   0.60518   0.00000  Uiso   1.00
O928   O     0.89441   0.20487   0.75000   0.00000  Uiso   1.00
O929   O     0.77226   0.12846   0.74999   0.00000  Uiso   1.00
O930   O     0.83333   0.20489   0.68453   0.00000  Uiso   1.00
O931   O     0.83334   0.12845   0.81547   0.00000  Uiso   1.00
O932   O     0.83334   0.20489   0.81547   0.00000  Uiso   1.00
O933   O     0.83333   0.12845   0.68453   0.00000  Uiso   1.00
O934   O     0.91701   0.06551   0.80859   0.00000  Uiso   1.00
Zn935  Zn    0.83333   0.21771   0.75000   0.00000  Uiso   1.00
Zn936  Zn    0.83333   0.11563   0.75000   0.00000  Uiso   1.00
C937   C     0.08676   0.50002   0.75079   0.00000  Uiso   1.00
C938   C     0.31190   0.54066   0.74827   0.00000  Uiso   1.00
C939   C     0.31229   0.45900   0.75141   0.00000  Uiso   1.00
C940   C     0.02116   0.54074   0.75026   0.00000  Uiso   1.00
C941   C     0.15378   0.53054   0.54406   0.00000  Uiso   1.00
C942   C     0.14934   0.45738   0.95107   0.00000  Uiso   1.00
C943   C     0.18257   0.53019   0.95548   0.00000  Uiso   1.00
C944   C     0.18619   0.45719   0.54918   0.00000  Uiso   1.00
C945   C     0.15980   0.53659   0.58937   0.00000  Uiso   1.00
C946   C     0.14371   0.46137   0.90498   0.00000  Uiso   1.00
C947   C     0.17489   0.53660   0.91036   0.00000  Uiso   1.00
C948   C     0.24661   0.49994   0.74957   0.00000  Uiso   1.00
C949   C     0.19040   0.46092   0.59537   0.00000  Uiso   1.00
C950   C     0.17457   0.49992   0.61610   0.00000  Uiso   1.00
C951   C     0.15933   0.50014   0.88396   0.00000  Uiso   1.00
C952   C     0.16803   0.49191   0.52392   0.00000  Uiso   1.00
C953   C     0.16864   0.49167   0.97594   0.00000  Uiso   1.00
C954   C     0.29081   0.49982   0.74937   0.00000  Uiso   1.00
C955   C     0.04262   0.49997   0.75195   0.00000  Uiso   1.00
C956   C     0.21721   0.38089   0.81473   0.00000  Uiso   1.00
C957   C     0.09942   0.62156   0.70301   0.00000  Uiso   1.00
C958   C     0.11550   0.38143   0.68593   0.00000  Uiso   1.00
C959   C     0.16941   0.50008   0.66409   0.00000  Uiso   1.00
C960   C     0.23393   0.62134   0.79687   0.00000  Uiso   1.00
C961   C     0.15374   0.58306   0.60533   0.00000  Uiso   1.00
C962   C     0.11764   0.42685   0.88091   0.00000  Uiso   1.00
C963   C     0.17880   0.58332   0.89419   0.00000  Uiso   1.00
C964   C     0.21485   0.42541   0.61998   0.00000  Uiso   1.00
C965   C     0.16391   0.50014   0.83590   0.00000  Uiso   1.00
C966   C     0.19367   0.35740   0.77809   0.00000  Uiso   1.00
C967   C     0.13671   0.64325   0.72512   0.00000  Uiso   1.00
C968   C     0.13952   0.35756   0.72204   0.00000  Uiso   1.00
C969   C     0.19653   0.64312   0.77496   0.00000  Uiso   1.00
C970   C     0.02157   0.45912   0.75363   0.00000  Uiso   1.00
H971   H     0.22141   0.39631   0.88003   0.00000  Uiso   1.00
H972   H     0.09815   0.36253   0.87804   0.00000  Uiso   1.00
H973   H     0.15224   0.63501   0.85956   0.00000  Uiso   1.00
H974   H     0.23055   0.35986   0.62446   0.00000  Uiso   1.00
H975   H     0.03777   0.42731   0.75656   0.00000  Uiso   1.00
H976   H     0.29565   0.57242   0.74569   0.00000  Uiso   1.00
H977   H     0.29646   0.42704   0.75125   0.00000  Uiso   1.00
H978   H     0.03712   0.57256   0.75041   0.00000  Uiso   1.00
H979   H     0.03731   0.62495   0.68864   0.00000  Uiso   1.00
H980   H     0.06257   0.41331   0.66495   0.00000  Uiso   1.00
H981   H     0.29617   0.62417   0.81032   0.00000  Uiso   1.00
H982   H     0.14064   0.55774   0.52367   0.00000  Uiso   1.00
H983   H     0.13650   0.42897   0.96798   0.00000  Uiso   1.00
H984   H     0.19617   0.55728   0.97564   0.00000  Uiso   1.00
H985   H     0.19898   0.42845   0.53262   0.00000  Uiso   1.00
H986   H     0.11855   0.63925   0.60137   0.00000  Uiso   1.00
N987   N     0.16667   0.61907   0.75000   0.00000  Uiso   1.00
N988   N     0.16667   0.38093   0.75000   0.00000  Uiso   1.00
O989   O     0.10559   0.53821   0.75000   0.00000  Uiso   1.00
O990   O     0.20255   0.37972   0.85733   0.00000  Uiso   1.00
O991   O     0.10246   0.58830   0.68002   0.00000  Uiso   1.00
O992   O     0.06024   0.64098   0.70704   0.00000  Uiso   1.00
O993   O     0.12956   0.38397   0.64932   0.00000  Uiso   1.00
O994   O     0.07595   0.39833   0.69253   0.00000  Uiso   1.00
O995   O     0.23104   0.58820   0.82001   0.00000  Uiso   1.00
O996   O     0.27305   0.64057   0.79246   0.00000  Uiso   1.00
O997   O     0.18097   0.60143   0.62898   0.00000  Uiso   1.00
O998   O     0.11850   0.60732   0.58974   0.00000  Uiso   1.00
O999   O     0.09475   0.43727   0.84856   0.00000  Uiso   1.00
O1000  O     0.22774   0.46179   0.75000   0.00000  Uiso   1.00
O1001  O     0.11767   0.38271   0.89671   0.00000  Uiso   1.00
O1002  O     0.20900   0.60594   0.90676   0.00000  Uiso   1.00
O1003  O     0.14629   0.60277   0.86773   0.00000  Uiso   1.00
O1004  O     0.23834   0.43517   0.65204   0.00000  Uiso   1.00
O1005  O     0.21237   0.38092   0.60518   0.00000  Uiso   1.00
O1006  O     0.22774   0.53821   0.75000   0.00000  Uiso   1.00
O1007  O     0.10559   0.46179   0.74999   0.00000  Uiso   1.00
O1008  O     0.16666   0.53822   0.68453   0.00000  Uiso   1.00
O1009  O     0.16667   0.46178   0.81547   0.00000  Uiso   1.00
O1010  O     0.16667   0.53822   0.81547   0.00000  Uiso   1.00
O1011  O     0.16666   0.46178   0.68453   0.00000  Uiso   1.00
O1012  O     0.25035   0.39884   0.80859   0.00000  Uiso   1.00
Zn1013 Zn    0.16667   0.55104   0.75000   0.00000  Uiso   1.00
Zn1014 Zn    0.16667   0.44896   0.75000   0.00000  Uiso   1.00
C1015  C     0.42009   0.50002   0.75079   0.00000  Uiso   1.00
C1016  C     0.64523   0.54066   0.74827   0.00000  Uiso   1.00
C1017  C     0.64562   0.45900   0.75141   0.00000  Uiso   1.00
C1018  C     0.35450   0.54074   0.75026   0.00000  Uiso   1.00
C1019  C     0.48712   0.53054   0.54406   0.00000  Uiso   1.00
C1020  C     0.48267   0.45738   0.95107   0.00000  Uiso   1.00
C1021  C     0.51590   0.53019   0.95548   0.00000  Uiso   1.00
C1022  C     0.51952   0.45719   0.54918   0.00000  Uiso   1.00
C1023  C     0.49314   0.53659   0.58937   0.00000  Uiso   1.00
C1024  C     0.47705   0.46137   0.90498   0.00000  Uiso   1.00
C1025  C     0.50822   0.53660   0.91036   0.00000  Uiso   1.00
C1026  C     0.57994   0.49994   0.74957   0.00000  Uiso   1.00
C1027  C     0.52373   0.46092   0.59537   0.00000  Uiso   1.00
C1028  C     0.50791   0.49992   0.61610   0.00000  Uiso   1.00
C1029  C     0.49267   0.50014   0.88396   0.00000  Uiso   1.00
C1030  C     0.50136   0.49191   0.52392   0.00000  Uiso   1.00
C1031  C     0.50198   0.49167   0.97594   0.00000  Uiso   1.00
C1032  C     0.62415   0.49982   0.74937   0.00000  Uiso   1.00
C1033  C     0.37595   0.49997   0.75195   0.00000  Uiso   1.00
C1034  C     0.55054   0.38089   0.81473   0.00000  Uiso   1.00
C1035  C     0.43275   0.62156   0.70301   0.00000  Uiso   1.00
C1036  C     0.44883   0.38143   0.68593   0.00000  Uiso   1.00
C1037  C     0.50275   0.50008   0.66409   0.00000  Uiso   1.00
C1038  C     0.56727   0.62134   0.79687   0.00000  Uiso   1.00
C1039  C     0.48707   0.58306   0.60533   0.00000  Uiso   1.00
C1040  C     0.45097   0.42685   0.88091   0.00000  Uiso   1.00
C1041  C     0.51214   0.58332   0.89419   0.00000  Uiso   1.00
C1042  C     0.54818   0.42541   0.61998   0.00000  Uiso   1.00
C1043  C     0.49725   0.50014   0.83590   0.00000  Uiso   1.00
C1044  C     0.52700   0.35740   0.77809   0.00000  Uiso   1.00
C1045  C     0.47004   0.64325   0.72512   0.00000  Uiso   1.00
C1046  C     0.47285   0.35756   0.72204   0.00000  Uiso   1.00
C1047  C     0.52986   0.64312   0.77496   0.00000  Uiso   1.00
C1048  C     0.35490   0.45912   0.75363   0.00000  Uiso   1.00
H1049  H     0.55474   0.39631   0.88003   0.00000  Uiso   1.00
H1050  H     0.43148   0.36253   0.87804   0.00000  Uiso   1.00
H1051  H     0.48558   0.63501   0.85956   0.00000  Uiso   1.00
H1052  H     0.56389   0.35986   0.62446   0.00000  Uiso   1.00
H1053  H     0.37110   0.42731   0.75656   0.00000  Uiso   1.00
H1054  H     0.62898   0.57242   0.74569   0.00000  Uiso   1.00
H1055  H     0.62979   0.42704   0.75125   0.00000  Uiso   1.00
H1056  H     0.37045   0.57256   0.75041   0.00000  Uiso   1.00
H1057  H     0.37065   0.62495   0.68864   0.00000  Uiso   1.00
H1058  H     0.39591   0.41331   0.66495   0.00000  Uiso   1.00
H1059  H     0.62950   0.62417   0.81032   0.00000  Uiso   1.00
H1060  H     0.47397   0.55774   0.52367   0.00000  Uiso   1.00
H1061  H     0.46983   0.42897   0.96798   0.00000  Uiso   1.00
H1062  H     0.52951   0.55728   0.97564   0.00000  Uiso   1.00
H1063  H     0.53232   0.42845   0.53262   0.00000  Uiso   1.00
H1064  H     0.45189   0.63925   0.60137   0.00000  Uiso   1.00
N1065  N     0.50000   0.61907   0.75000   0.00000  Uiso   1.00
N1066  N     0.50000   0.38093   0.75000   0.00000  Uiso   1.00
O1067  O     0.43892   0.53821   0.75000   0.00000  Uiso   1.00
O1068  O     0.53588   0.37972   0.85733   0.00000  Uiso   1.00
O1069  O     0.43579   0.58830   0.68002   0.00000  Uiso   1.00
O1070  O     0.39357   0.64098   0.70704   0.00000  Uiso   1.00
O1071  O     0.46289   0.38397   0.64932   0.00000  Uiso   1.00
O1072  O     0.40928   0.39833   0.69253   0.00000  Uiso   1.00
O1073  O     0.56437   0.58820   0.82001   0.00000  Uiso   1.00
O1074  O     0.60639   0.64057   0.79246   0.00000  Uiso   1.00
O1075  O     0.51430   0.60143   0.62898   0.00000  Uiso   1.00
O1076  O     0.45184   0.60732   0.58974   0.00000  Uiso   1.00
O1077  O     0.42808   0.43727   0.84856   0.00000  Uiso   1.00
O1078  O     0.56108   0.46179   0.75000   0.00000  Uiso   1.00
O1079  O     0.45101   0.38271   0.89671   0.00000  Uiso   1.00
O1080  O     0.54233   0.60594   0.90676   0.00000  Uiso   1.00
O1081  O     0.47962   0.60277   0.86773   0.00000  Uiso   1.00
O1082  O     0.57168   0.43517   0.65204   0.00000  Uiso   1.00
O1083  O     0.54571   0.38092   0.60518   0.00000  Uiso   1.00
O1084  O     0.56108   0.53821   0.75000   0.00000  Uiso   1.00
O1085  O     0.43892   0.46179   0.74999   0.00000  Uiso   1.00
O1086  O     0.50000   0.53822   0.68453   0.00000  Uiso   1.00
O1087  O     0.50000   0.46178   0.81547   0.00000  Uiso   1.00
O1088  O     0.50000   0.53822   0.81547   0.00000  Uiso   1.00
O1089  O     0.50000   0.46178   0.68453   0.00000  Uiso   1.00
O1090  O     0.58368   0.39884   0.80859   0.00000  Uiso   1.00
Zn1091 Zn    0.50000   0.55104   0.75000   0.00000  Uiso   1.00
Zn1092 Zn    0.50000   0.44896   0.75000   0.00000  Uiso   1.00
C1093  C     0.75342   0.50002   0.75079   0.00000  Uiso   1.00
C1094  C     0.97856   0.54066   0.74827   0.00000  Uiso   1.00
C1095  C     0.97896   0.45900   0.75141   0.00000  Uiso   1.00
C1096  C     0.68783   0.54074   0.75026   0.00000  Uiso   1.00
C1097  C     0.82045   0.53054   0.54406   0.00000  Uiso   1.00
C1098  C     0.81600   0.45738   0.95107   0.00000  Uiso   1.00
C1099  C     0.84923   0.53019   0.95548   0.00000  Uiso   1.00
C1100  C     0.85286   0.45719   0.54918   0.00000  Uiso   1.00
C1101  C     0.82647   0.53659   0.58937   0.00000  Uiso   1.00
C1102  C     0.81038   0.46137   0.90498   0.00000  Uiso   1.00
C1103  C     0.84156   0.53660   0.91036   0.00000  Uiso   1.00
C1104  C     0.91327   0.49994   0.74957   0.00000  Uiso   1.00
C1105  C     0.85706   0.46092   0.59537   0.00000  Uiso   1.00
C1106  C     0.84124   0.49992   0.61610   0.00000  Uiso   1.00
C1107  C     0.82600   0.50014   0.88396   0.00000  Uiso   1.00
C1108  C     0.83470   0.49191   0.52392   0.00000  Uiso   1.00
C1109  C     0.83531   0.49167   0.97594   0.00000  Uiso   1.00
C1110  C     0.95748   0.49982   0.74937   0.00000  Uiso   1.00
C1111  C     0.70929   0.49997   0.75195   0.00000  Uiso   1.00
C1112  C     0.88388   0.38089   0.81473   0.00000  Uiso   1.00
C1113  C     0.76608   0.62156   0.70301   0.00000  Uiso   1.00
C1114  C     0.78217   0.38143   0.68593   0.00000  Uiso   1.00
C1115  C     0.83608   0.50008   0.66409   0.00000  Uiso   1.00
C1116  C     0.90060   0.62134   0.79687   0.00000  Uiso   1.00
C1117  C     0.82040   0.58306   0.60533   0.00000  Uiso   1.00
C1118  C     0.78430   0.42685   0.88091   0.00000  Uiso   1.00
C1119  C     0.84547   0.58332   0.89419   0.00000  Uiso   1.00
C1120  C     0.88151   0.42541   0.61998   0.00000  Uiso   1.00
C1121  C     0.83058   0.50014   0.83590   0.00000  Uiso   1.00
C1122  C     0.86034   0.35740   0.77809   0.00000  Uiso   1.00
C1123  C     0.80337   0.64325   0.72512   0.00000  Uiso   1.00
C1124  C     0.80618   0.35756   0.72204   0.00000  Uiso   1.00
C1125  C     0.86320   0.64312   0.77496   0.00000  Uiso   1.00
C1126  C     0.68823   0.45912   0.75363   0.00000  Uiso   1.00
H1127  H     0.88808   0.39631   0.88003   0.00000  Uiso   1.00
H1128  H     0.76482   0.36253   0.87804   0.00000  Uiso   1.00
H1129  H     0.81891   0.63501   0.85956   0.00000  Uiso   1.00
H1130  H     0.89722   0.35986   0.62446   0.00000  Uiso   1.00
H1131  H     0.70443   0.42731   0.75656   0.00000  Uiso   1.00
H1132  H     0.96232   0.57242   0.74569   0.00000  Uiso   1.00
H1133  H     0.96312   0.42704   0.75125   0.00000  Uiso   1.00
H1134  H     0.70379   0.57256   0.75041   0.00000  Uiso   1.00
H1135  H     0.70398   0.62495   0.68864   0.00000  Uiso   1.00
H1136  H     0.72924   0.41331   0.66495   0.00000  Uiso   1.00
H1137  H     0.96283   0.62417   0.81032   0.00000  Uiso   1.00
H1138  H     0.80731   0.55774   0.52367   0.00000  Uiso   1.00
H1139  H     0.80317   0.42897   0.96798   0.00000  Uiso   1.00
H1140  H     0.86284   0.55728   0.97564   0.00000  Uiso   1.00
H1141  H     0.86565   0.42845   0.53262   0.00000  Uiso   1.00
H1142  H     0.78522   0.63925   0.60137   0.00000  Uiso   1.00
N1143  N     0.83333   0.61907   0.75000   0.00000  Uiso   1.00
N1144  N     0.83333   0.38093   0.75000   0.00000  Uiso   1.00
O1145  O     0.77226   0.53821   0.75000   0.00000  Uiso   1.00
O1146  O     0.86922   0.37972   0.85733   0.00000  Uiso   1.00
O1147  O     0.76912   0.58830   0.68002   0.00000  Uiso   1.00
O1148  O     0.72690   0.64098   0.70704   0.00000  Uiso   1.00
O1149  O     0.79623   0.38397   0.64932   0.00000  Uiso   1.00
O1150  O     0.74261   0.39833   0.69253   0.00000  Uiso   1.00
O1151  O     0.89770   0.58820   0.82001   0.00000  Uiso   1.00
O1152  O     0.93972   0.64057   0.79246   0.00000  Uiso   1.00
O1153  O     0.84763   0.60143   0.62898   0.00000  Uiso   1.00
O1154  O     0.78517   0.60732   0.58974   0.00000  Uiso   1.00
O1155  O     0.76141   0.43727   0.84856   0.00000  Uiso   1.00
O1156  O     0.89441   0.46179   0.75000   0.00000  Uiso   1.00
O1157  O     0.78434   0.38271   0.89671   0.00000  Uiso   1.00
O1158  O     0.87566   0.60594   0.90676   0.00000  Uiso   1.00
O1159  O     0.81295   0.60277   0.86773   0.00000  Uiso   1.00
O1160  O     0.90501   0.43517   0.65204   0.00000  Uiso   1.00
O1161  O     0.87904   0.38092   0.60518   0.00000  Uiso   1.00
O1162  O     0.89441   0.53821   0.75000   0.00000  Uiso   1.00
O1163  O     0.77226   0.46179   0.74999   0.00000  Uiso   1.00
O1164  O     0.83333   0.53822   0.68453   0.00000  Uiso   1.00
O1165  O     0.83334   0.46178   0.81547   0.00000  Uiso   1.00
O1166  O     0.83334   0.53822   0.81547   0.00000  Uiso   1.00
O1167  O     0.83333   0.46178   0.68453   0.00000  Uiso   1.00
O1168  O     0.91701   0.39884   0.80859   0.00000  Uiso   1.00
Zn1169 Zn    0.83333   0.55104   0.75000   0.00000  Uiso   1.00
Zn1170 Zn    0.83333   0.44896   0.75000   0.00000  Uiso   1.00
C1171  C     0.08676   0.83335   0.75079   0.00000  Uiso   1.00
C1172  C     0.31190   0.87399   0.74827   0.00000  Uiso   1.00
C1173  C     0.31229   0.79234   0.75141   0.00000  Uiso   1.00
C1174  C     0.02116   0.87407   0.75026   0.00000  Uiso   1.00
C1175  C     0.15378   0.86387   0.54406   0.00000  Uiso   1.00
C1176  C     0.14934   0.79072   0.95107   0.00000  Uiso   1.00
C1177  C     0.18257   0.86353   0.95548   0.00000  Uiso   1.00
C1178  C     0.18619   0.79053   0.54918   0.00000  Uiso   1.00
C1179  C     0.15980   0.86993   0.58937   0.00000  Uiso   1.00
C1180  C     0.14371   0.79471   0.90498   0.00000  Uiso   1.00
C1181  C     0.17489   0.86994   0.91036   0.00000  Uiso   1.00
C1182  C     0.24661   0.83327   0.74957   0.00000  Uiso   1.00
C1183  C     0.19040   0.79425   0.59537   0.00000  Uiso   1.00
C1184  C     0.17457   0.83325   0.61610   0.00000  Uiso   1.00
C1185  C     0.15933   0.83348   0.88396   0.00000  Uiso   1.00
C1186  C     0.16803   0.82524   0.52392   0.00000  Uiso   1.00
C1187  C     0.16864   0.82501   0.97594   0.00000  Uiso   1.00
C1188  C     0.29081   0.83315   0.74937   0.00000  Uiso   1.00
C1189  C     0.04262   0.83330   0.75195   0.00000  Uiso   1.00
C1190  C     0.21721   0.71422   0.81473   0.00000  Uiso   1.00
C1191  C     0.09942   0.95490   0.70301   0.00000  Uiso   1.00
C1192  C     0.11550   0.71476   0.68593   0.00000  Uiso   1.00
C1193  C     0.16941   0.83341   0.66409   0.00000  Uiso   1.00
C1194  C     0.23393   0.95468   0.79687   0.00000  Uiso   1.00
C1195  C     0.15374   0.91639   0.60533   0.00000  Uiso   1.00
C1196  C     0.11764   0.76018   0.88091   0.00000  Uiso   1.00
C1197  C     0.17880   0.91666   0.89419   0.00000  Uiso   1.00
C1198  C     0.21485   0.75874   0.61998   0.00000  Uiso   1.00
C1199  C     0.16391   0.83347   0.83590   0.00000  Uiso   1.00
C1200  C     0.19367   0.69074   0.77809   0.00000  Uiso   1.00
C1201  C     0.13671   0.97658   0.72512   0.00000  Uiso   1.00
C1202  C     0.13952   0.69090   0.72204   0.00000  Uiso   1.00
C1203  C     0.19653   0.97645   0.77496   0.00000  Uiso   1.00
C1204  C     0.02157   0.79245   0.75363   0.00000  Uiso   1.00
H1205  H     0.22141   0.72964   0.88003   0.00000  Uiso   1.00
H1206  H     0.09815   0.69587   0.87804   0.00000  Uiso   1.00
H1207  H     0.15224   0.96834   0.85956   0.00000  Uiso   1.00
H1208  H     0.23055   0.69319   0.62446   0.00000  Uiso   1.00
H1209  H     0.03777   0.76064   0.75656   0.00000  Uiso   1.00
H1210  H     0.29565   0.90575   0.74569   0.00000  Uiso   1.00
H1211  H     0.29646   0.76037   0.75125   0.00000  Uiso   1.00
H1212  H     0.03712   0.90589   0.75041   0.00000  Uiso   1.00
H1213  H     0.03731   0.95829   0.68864   0.00000  Uiso   1.00
H1214  H     0.06257   0.74664   0.66495   0.00000  Uiso   1.00
H1215  H     0.29617   0.95750   0.81032   0.00000  Uiso   1.00
H1216  H     0.14064   0.89108   0.52367   0.00000  Uiso   1.00
H1217  H     0.13650   0.76230   0.96798   0.00000  Uiso   1.00
H1218  H     0.19617   0.89061   0.97564   0.00000  Uiso   1.00
H1219  H     0.19898   0.76178   0.53262   0.00000  Uiso   1.00
H1220  H     0.11855   0.97258   0.60137   0.00000  Uiso   1.00
N1221  N     0.16667   0.95240   0.75000   0.00000  Uiso   1.00
N1222  N     0.16667   0.71427   0.75000   0.00000  Uiso   1.00
O1223  O     0.10559   0.87154   0.75000   0.00000  Uiso   1.00
O1224  O     0.20255   0.71306   0.85733   0.00000  Uiso   1.00
O1225  O     0.10246   0.92163   0.68002   0.00000  Uiso   1.00
O1226  O     0.06024   0.97432   0.70704   0.00000  Uiso   1.00
O1227  O     0.12956   0.71731   0.64932   0.00000  Uiso   1.00
O1228  O     0.07595   0.73166   0.69253   0.00000  Uiso   1.00
O1229  O     0.23104   0.92153   0.82001   0.00000  Uiso   1.00
O1230  O     0.27305   0.97390   0.79246   0.00000  Uiso   1.00
O1231  O     0.18097   0.93476   0.62898   0.00000  Uiso   1.00
O1232  O     0.11850   0.94065   0.58974   0.00000  Uiso   1.00
O1233  O     0.09475   0.77060   0.84856   0.00000  Uiso   1.00
O1234  O     0.22774   0.79513   0.75000   0.00000  Uiso   1.00
O1235  O     0.11767   0.71604   0.89671   0.00000  Uiso   1.00
O1236  O     0.20900   0.93928   0.90676   0.00000  Uiso   1.00
O1237  O     0.14629   0.93611   0.86773   0.00000  Uiso   1.00
O1238  O     0.23834   0.76851   0.65204   0.00000  Uiso   1.00
O1239  O     0.21237   0.71425   0.60518   0.00000  Uiso   1.00
O1240  O     0.22774   0.87154   0.75000   0.00000  Uiso   1.00
O1241  O     0.10559   0.79513   0.74999   0.00000  Uiso   1.00
O1242  O     0.16666   0.87155   0.68453   0.00000  Uiso   1.00
O1243  O     0.16667   0.79511   0.81547   0.00000  Uiso   1.00
O1244  O     0.16667   0.87155   0.81547   0.00000  Uiso   1.00
O1245  O     0.16666   0.79511   0.68453   0.00000  Uiso   1.00
O1246  O     0.25035   0.73218   0.80859   0.00000  Uiso   1.00
Zn1247 Zn    0.16667   0.88437   0.75000   0.00000  Uiso   1.00
Zn1248 Zn    0.16667   0.78229   0.75000   0.00000  Uiso   1.00
C1249  C     0.42009   0.83335   0.75079   0.00000  Uiso   1.00
C1250  C     0.64523   0.87399   0.74827   0.00000  Uiso   1.00
C1251  C     0.64562   0.79234   0.75141   0.00000  Uiso   1.00
C1252  C     0.35450   0.87407   0.75026   0.00000  Uiso   1.00
C1253  C     0.48712   0.86387   0.54406   0.00000  Uiso   1.00
C1254  C     0.48267   0.79072   0.95107   0.00000  Uiso   1.00
C1255  C     0.51590   0.86353   0.95548   0.00000  Uiso   1.00
C1256  C     0.51952   0.79053   0.54918   0.00000  Uiso   1.00
C1257  C     0.49314   0.86993   0.58937   0.00000  Uiso   1.00
C1258  C     0.47705   0.79471   0.90498   0.00000  Uiso   1.00
C1259  C     0.50822   0.86994   0.91036   0.00000  Uiso   1.00
C1260  C     0.57994   0.83327   0.74957   0.00000  Uiso   1.00
C1261  C     0.52373   0.79425   0.59537   0.00000  Uiso   1.00
C1262  C     0.50791   0.83325   0.61610   0.00000  Uiso   1.00
C1263  C     0.49267   0.83348   0.88396   0.00000  Uiso   1.00
C1264  C     0.50136   0.82524   0.52392   0.00000  Uiso   1.00
C1265  C     0.50198   0.82501   0.97594   0.00000  Uiso   1.00
C1266  C     0.62415   0.83315   0.74937   0.00000  Uiso   1.00
C1267  C     0.37595   0.83330   0.75195   0.00000  Uiso   1.00
C1268  C     0.55054   0.71422   0.81473   0.00000  Uiso   1.00
C1269  C     0.43275   0.95490   0.70301   0.00000  Uiso   1.00
C1270  C     0.44883   0.71476   0.68593   0.00000  Uiso   1.00
C1271  C     0.50275   0.83341   0.66409   0.00000  Uiso   1.00
C1272  C     0.56727   0.95468   0.79687   0.00000  Uiso   1.00
C1273  C     0.48707   0.91639   0.60533   0.00000  Uiso   1.00
C1274  C     0.45097   0.76018   0.88091   0.00000  Uiso   1.00
C1275  C     0.51214   0.91666   0.89419   0.00000  Uiso   1.00
C1276  C     0.54818   0.75874   0.61998   0.00000  Uiso   1.00
C1277  C     0.49725   0.83347   0.83590   0.00000  Uiso   1.00
C1278  C     0.52700   0.69074   0.77809   0.00000  Uiso   1.00
C1279  C     0.47004   0.97658   0.72512   0.00000  Uiso   1.00
C1280  C     0.47285   0.69090   0.72204   0.00000  Uiso   1.00
C1281  C     0.52986   0.97645   0.77496   0.00000  Uiso   1.00
C1282  C     0.35490   0.79245   0.75363   0.00000  Uiso   1.00
H1283  H     0.55474   0.72964   0.88003   0.00000  Uiso   1.00
H1284  H     0.43148   0.69587   0.87804   0.00000  Uiso   1.00
H1285  H     0.48558   0.96834   0.85956   0.00000  Uiso   1.00
H1286  H     0.56389   0.69319   0.62446   0.00000  Uiso   1.00
H1287  H     0.37110   0.76064   0.75656   0.00000  Uiso   1.00
H1288  H     0.62898   0.90575   0.74569   0.00000  Uiso   1.00
H1289  H     0.62979   0.76037   0.75125   0.00000  Uiso   1.00
H1290  H     0.37045   0.90589   0.75041   0.00000  Uiso   1.00
H1291  H     0.37065   0.95829   0.68864   0.00000  Uiso   1.00
H1292  H     0.39591   0.74664   0.66495   0.00000  Uiso   1.00
H1293  H     0.62950   0.95750   0.81032   0.00000  Uiso   1.00
H1294  H     0.47397   0.89108   0.52367   0.00000  Uiso   1.00
H1295  H     0.46983   0.76230   0.96798   0.00000  Uiso   1.00
H1296  H     0.52951   0.89061   0.97564   0.00000  Uiso   1.00
H1297  H     0.53232   0.76178   0.53262   0.00000  Uiso   1.00
H1298  H     0.45189   0.97258   0.60137   0.00000  Uiso   1.00
N1299  N     0.50000   0.95240   0.75000   0.00000  Uiso   1.00
N1300  N     0.50000   0.71427   0.75000   0.00000  Uiso   1.00
O1301  O     0.43892   0.87154   0.75000   0.00000  Uiso   1.00
O1302  O     0.53588   0.71306   0.85733   0.00000  Uiso   1.00
O1303  O     0.43579   0.92163   0.68002   0.00000  Uiso   1.00
O1304  O     0.39357   0.97432   0.70704   0.00000  Uiso   1.00
O1305  O     0.46289   0.71731   0.64932   0.00000  Uiso   1.00
O1306  O     0.40928   0.73166   0.69253   0.00000  Uiso   1.00
O1307  O     0.56437   0.92153   0.82001   0.00000  Uiso   1.00
O1308  O     0.60639   0.97390   0.79246   0.00000  Uiso   1.00
O1309  O     0.51430   0.93476   0.62898   0.00000  Uiso   1.00
O1310  O     0.45184   0.94065   0.58974   0.00000  Uiso   1.00
O1311  O     0.42808   0.77060   0.84856   0.00000  Uiso   1.00
O1312  O     0.56108   0.79513   0.75000   0.00000  Uiso   1.00
O1313  O     0.45101   0.71604   0.89671   0.00000  Uiso   1.00
O1314  O     0.54233   0.93928   0.90676   0.00000  Uiso   1.00
O1315  O     0.47962   0.93611   0.86773   0.00000  Uiso   1.00
O1316  O     0.57168   0.76851   0.65204   0.00000  Uiso   1.00
O1317  O     0.54571   0.71425   0.60518   0.00000  Uiso   1.00
O1318  O     0.56108   0.87154   0.75000   0.00000  Uiso   1.00
O1319  O     0.43892   0.79513   0.74999   0.00000  Uiso   1.00
O1320  O     0.50000   0.87155   0.68453   0.00000  Uiso   1.00
O1321  O     0.50000   0.79511   0.81547   0.00000  Uiso   1.00
O1322  O     0.50000   0.87155   0.81547   0.00000  Uiso   1.00
O1323  O     0.50000   0.79511   0.68453   0.00000  Uiso   1.00
O1324  O     0.58368   0.73218   0.80859   0.00000  Uiso   1.00
Zn1325 Zn    0.50000   0.88437   0.75000   0.00000  Uiso   1.00
Zn1326 Zn    0.50000   0.78229   0.75000   0.00000  Uiso   1.00
C1327  C     0.75342   0.83335   0.75079   0.00000  Uiso   1.00
C1328  C     0.97856   0.87399   0.74827   0.00000  Uiso   1.00
C1329  C     0.97896   0.79234   0.75141   0.00000  Uiso   1.00
C1330  C     0.68783   0.87407   0.75026   0.00000  Uiso   1.00
C1331  C     0.82045   0.86387   0.54406   0.00000  Uiso   1.00
C1332  C     0.81600   0.79072   0.95107   0.00000  Uiso   1.00
C1333  C     0.84923   0.86353   0.95548   0.00000  Uiso   1.00
C1334  C     0.85286   0.79053   0.54918   0.00000  Uiso   1.00
C1335  C     0.82647   0.86993   0.58937   0.00000  Uiso   1.00
C1336  C     0.81038   0.79471   0.90498   0.00000  Uiso   1.00
C1337  C     0.84156   0.86994   0.91036   0.00000  Uiso   1.00
C1338  C     0.91327   0.83327   0.74957   0.00000  Uiso   1.00
C1339  C     0.85706   0.79425   0.59537   0.00000  Uiso   1.00
C1340  C     0.84124   0.83325   0.61610   0.00000  Uiso   1.00
C1341  C     0.82600   0.83348   0.88396   0.00000  Uiso   1.00
C1342  C     0.83470   0.82524   0.52392   0.00000  Uiso   1.00
C1343  C     0.83531   0.82501   0.97594   0.00000  Uiso   1.00
C1344  C     0.95748   0.83315   0.74937   0.00000  Uiso   1.00
C1345  C     0.70929   0.83330   0.75195   0.00000  Uiso   1.00
C1346  C     0.88388   0.71422   0.81473   0.00000  Uiso   1.00
C1347  C     0.76608   0.95490   0.70301   0.00000  Uiso   1.00
C1348  C     0.78217   0.71476   0.68593   0.00000  Uiso   1.00
C1349  C     0.83608   0.83341   0.66409   0.00000  Uiso   1.00
C1350  C     0.90060   0.95468   0.79687   0.00000  Uiso   1.00
C1351  C     0.82040   0.91639   0.60533   0.00000  Uiso   1.00
C1352  C     0.78430   0.76018   0.88091   0.00000  Uiso   1.00
C1353  C     0.84547   0.91666   0.89419   0.00000  Uiso   1.00
C1354  C     0.88151   0.75874   0.61998   0.00000  Uiso   1.00
C1355  C     0.83058   0.83347   0.83590   0.00000  Uiso   1.00
C1356  C     0.86034   0.69074   0.77809   0.00000  Uiso   1.00
C1357  C     0.80337   0.97658   0.72512   0.00000  Uiso   1.00
C1358  C     0.80618   0.69090   0.72204   0.00000  Uiso   1.00
C1359  C     0.86320   0.97645   0.77496   0.00000  Uiso   1.00
C1360  C     0.68823   0.79245   0.75363   0.00000  Uiso   1.00
H1361  H     0.88808   0.72964   0.88003   0.00000  Uiso   1.00
H1362  H     0.76482   0.69587   0.87804   0.00000  Uiso   1.00
H1363  H     0.81891   0.96834   0.85956   0.00000  Uiso   1.00
H1364  H     0.89722   0.69319   0.62446   0.00000  Uiso   1.00
H1365  H     0.70443   0.76064   0.75656   0.00000  Uiso   1.00
H1366  H     0.96232   0.90575   0.74569   0.00000  Uiso   1.00
H1367  H     0.96312   0.76037   0.75125   0.00000  Uiso   1.00
H1368  H     0.70379   0.90589   0.75041   0.00000  Uiso   1.00
H1369  H     0.70398   0.95829   0.68864   0.00000  Uiso   1.00
H1370  H     0.72924   0.74664   0.66495   0.00000  Uiso   1.00
H1371  H     0.96283   0.95750   0.81032   0.00000  Uiso   1.00
H1372  H     0.80731   0.89108   0.52367   0.00000  Uiso   1.00
H1373  H     0.80317   0.76230   0.96798   0.00000  Uiso   1.00
H1374  H     0.86284   0.89061   0.97564   0.00000  Uiso   1.00
H1375  H     0.86565   0.76178   0.53262   0.00000  Uiso   1.00
H1376  H     0.78522   0.97258   0.60137   0.00000  Uiso   1.00
N1377  N     0.83333   0.95240   0.75000   0.00000  Uiso   1.00
N1378  N     0.83333   0.71427   0.75000   0.00000  Uiso   1.00
O1379  O     0.77226   0.87154   0.75000   0.00000  Uiso   1.00
O1380  O     0.86922   0.71306   0.85733   0.00000  Uiso   1.00
O1381  O     0.76912   0.92163   0.68002   0.00000  Uiso   1.00
O1382  O     0.72690   0.97432   0.70704   0.00000  Uiso   1.00
O1383  O     0.79623   0.71731   0.64932   0.00000  Uiso   1.00
O1384  O     0.74261   0.73166   0.69253   0.00000  Uiso   1.00
O1385  O     0.89770   0.92153   0.82001   0.00000  Uiso   1.00
O1386  O     0.93972   0.97390   0.79246   0.00000  Uiso   1.00
O1387  O     0.84763   0.93476   0.62898   0.00000  Uiso   1.00
O1388  O     0.78517   0.94065   0.58974   0.00000  Uiso   1.00
O1389  O     0.76141   0.77060   0.84856   0.00000  Uiso   1.00
O1390  O     0.89441   0.79513   0.75000   0.00000  Uiso   1.00
O1391  O     0.78434   0.71604   0.89671   0.00000  Uiso   1.00
O1392  O     0.87566   0.93928   0.90676   0.00000  Uiso   1.00
O1393  O     0.81295   0.93611   0.86773   0.00000  Uiso   1.00
O1394  O     0.90501   0.76851   0.65204   0.00000  Uiso   1.00
O1395  O     0.87904   0.71425   0.60518   0.00000  Uiso   1.00
O1396  O     0.89441   0.87154   0.75000   0.00000  Uiso   1.00
O1397  O     0.77226   0.79513   0.74999   0.00000  Uiso   1.00
O1398  O     0.83333   0.87155   0.68453   0.00000  Uiso   1.00
O1399  O     0.83334   0.79511   0.81547   0.00000  Uiso   1.00
O1400  O     0.83334   0.87155   0.81547   0.00000  Uiso   1.00
O1401  O     0.83333   0.79511   0.68453   0.00000  Uiso   1.00
O1402  O     0.91701   0.73218   0.80859   0.00000  Uiso   1.00
Zn1403 Zn    0.83333   0.88437   0.75000   0.00000  Uiso   1.00
Zn1404 Zn    0.83333   0.78229   0.75000   0.00000  Uiso   1.00
loop_
_geom_bond_atom_site_label_1
_geom_bond_atom_site_label_2
_geom_bond_distance
_geom_bond_site_symmetry_2
_ccdc_geom_bond_type
C1     O71     1.290   .     A
C1     O53     1.291   .     A
C1     C19     1.424   .     S
C2     C18     1.396   .     A
C2     H40     1.080   .     S
C2     C82     1.369   .     S
C3     C18     1.397   .     A
C3     H41     1.081   .     S
C3     C112    1.369   .     S
C4     C19     1.395   .     A
C4     H42     1.079   .     S
C4     C158    1.369   1_455 S
C5     C16     1.391   .     A
C5     C9      1.378   .     A
C5     H46     1.086   .     S
C6     H47     1.084   .     S
C6     C17     1.390   .     A
C6     C10     1.394   .     A
C7     C11     1.379   .     A
C7     C17     1.392   .     A
C7     H48     1.086   .     S
C8     C13     1.394   .     A
C8     C16     1.390   .     A
C8     H49     1.085   .     S
C9     C25     1.482   .     S
C9     C14     1.420   .     A
C10    C15     1.426   .     A
C10    C26     1.487   .     S
C11    C15     1.419   .     A
C11    C27     1.483   .     S
C12    O64     1.290   .     A
C12    O70     1.291   .     A
C12    C18     1.423   .     S
C13    C28     1.487   .     S
C13    C14     1.427   .     A
C14    C23     1.466   .     S
C15    C29     1.465   .     S
C16    C719    1.447   1_554 S
C17    C718    1.447   .     S
C19    C34     1.397   .     A
C20    C30     1.475   .     S
C20    O76     1.219   .     D
C20    O54     1.396   .     S
C21    C31     1.484   .     S
C21    O55     1.216   .     D
C21    O56     1.399   .     S
C22    O57     1.221   .     D
C22    C32     1.475   .     S
C22    O58     1.394   .     S
C23    O75     1.303   .     A
C23    O72     1.297   .     A
C24    O60     1.399   .     S
C24    C33     1.483   .     S
C24    O59     1.216   .     D
C25    O61     1.223   .     D
C25    O62     1.399   .     S
C26    O63     1.223   .     D
C26    O65     1.399   .     S
C27    O66     1.224   .     D
C27    O67     1.399   .     S
C28    O69     1.399   .     S
C28    O68     1.223   .     D
C29    O73     1.303   .     A
C29    O74     1.297   .     A
C30    N52     1.366   .     A
C30    C501    1.425   1_545 S
C31    N51     1.384   .     A
C31    C266    1.426   .     S
C32    N52     1.366   .     A
C32    C499    1.426   1_545 S
C33    N51     1.383   .     A
C33    C264    1.425   .     S
C34    H39     1.081   .     S
C34    C159    1.369   1_455 S
H35    O54     1.014   .     S
H36    O65     1.014   .     S
H37    O67     1.013   .     S
H38    O69     1.014   .     S
H43    O56     1.014   .     S
H44    O58     1.014   .     S
H45    O60     1.014   .     S
H50    O62     1.013   .     S
N51    Zn77    2.026   .     S
N52    Zn78    2.026   .     S
O53    Zn77    2.004   .     S
O64    Zn78    2.004   .     S
O70    Zn77    2.002   .     S
O71    Zn78    2.002   .     S
O72    Zn77    2.009   .     S
O73    Zn78    2.009   .     S
O74    Zn77    2.009   .     S
O75    Zn78    2.009   .     S
C79    O149    1.290   .     A
C79    O131    1.291   .     A
C79    C97     1.424   .     S
C80    C96     1.396   .     A
C80    H118    1.080   .     S
C80    C160    1.369   .     S
C81    C96     1.397   .     A
C81    H119    1.081   .     S
C81    C190    1.369   .     S
C82    C97     1.395   .     A
C82    H120    1.079   .     S
C83    C94     1.391   .     A
C83    C87     1.378   .     A
C83    H124    1.086   .     S
C84    H125    1.084   .     S
C84    C95     1.390   .     A
C84    C88     1.394   .     A
C85    C89     1.379   .     A
C85    C95     1.392   .     A
C85    H126    1.086   .     S
C86    C91     1.394   .     A
C86    C94     1.390   .     A
C86    H127    1.085   .     S
C87    C103    1.482   .     S
C87    C92     1.420   .     A
C88    C93     1.426   .     A
C88    C104    1.487   .     S
C89    C93     1.419   .     A
C89    C105    1.483   .     S
C90    O142    1.290   .     A
C90    O148    1.291   .     A
C90    C96     1.423   .     S
C91    C106    1.487   .     S
C91    C92     1.427   .     A
C92    C101    1.466   .     S
C93    C107    1.465   .     S
C94    C797    1.447   1_554 S
C95    C796    1.447   .     S
C97    C112    1.397   .     A
C98    C108    1.475   .     S
C98    O154    1.219   .     D
C98    O132    1.396   .     S
C99    C109    1.484   .     S
C99    O133    1.216   .     D
C99    O134    1.399   .     S
C100   O135    1.221   .     D
C100   C110    1.475   .     S
C100   O136    1.394   .     S
C101   O153    1.303   .     A
C101   O150    1.297   .     A
C102   O138    1.399   .     S
C102   C111    1.483   .     S
C102   O137    1.216   .     D
C103   O139    1.223   .     D
C103   O140    1.399   .     S
C104   O141    1.223   .     D
C104   O143    1.399   .     S
C105   O144    1.224   .     D
C105   O145    1.399   .     S
C106   O147    1.399   .     S
C106   O146    1.223   .     D
C107   O151    1.303   .     A
C107   O152    1.297   .     A
C108   N130    1.366   .     A
C108   C579    1.425   1_545 S
C109   N129    1.384   .     A
C109   C344    1.426   .     S
C110   N130    1.366   .     A
C110   C577    1.426   1_545 S
C111   N129    1.383   .     A
C111   C342    1.425   .     S
C112   H117    1.081   .     S
H113   O132    1.014   .     S
H114   O143    1.014   .     S
H115   O145    1.013   .     S
H116   O147    1.014   .     S
H121   O134    1.014   .     S
H122   O136    1.014   .     S
H123   O138    1.014   .     S
H128   O140    1.013   .     S
N129   Zn155   2.026   .     S
N130   Zn156   2.026   .     S
O131   Zn155   2.004   .     S
O142   Zn156   2.004   .     S
O148   Zn155   2.002   .     S
O149   Zn156   2.002   .     S
O150   Zn155   2.009   .     S
O151   Zn156   2.009   .     S
O152   Zn155   2.009   .     S
O153   Zn156   2.009   .     S
C157   O227    1.290   .     A
C157   O209    1.291   .     A
C157   C175    1.424   .     S
C158   C174    1.396   .     A
C158   H196    1.080   .     S
C158   C4      1.369   1_655 S
C159   C174    1.397   .     A
C159   H197    1.081   .     S
C159   C34     1.369   1_655 S
C160   C175    1.395   .     A
C160   H198    1.079   .     S
C161   C172    1.391   .     A
C161   C165    1.378   .     A
C161   H202    1.086   .     S
C162   H203    1.084   .     S
C162   C173    1.390   .     A
C162   C166    1.394   .     A
C163   C167    1.379   .     A
C163   C173    1.392   .     A
C163   H204    1.086   .     S
C164   C169    1.394   .     A
C164   C172    1.390   .     A
C164   H205    1.085   .     S
C165   C181    1.482   .     S
C165   C170    1.420   .     A
C166   C171    1.426   .     A
C166   C182    1.487   .     S
C167   C171    1.419   .     A
C167   C183    1.483   .     S
C168   O220    1.290   .     A
C168   O226    1.291   .     A
C168   C174    1.423   .     S
C169   C184    1.487   .     S
C169   C170    1.427   .     A
C170   C179    1.466   .     S
C171   C185    1.465   .     S
C172   C875    1.447   1_554 S
C173   C874    1.447   .     S
C175   C190    1.397   .     A
C176   C186    1.475   .     S
C176   O232    1.219   .     D
C176   O210    1.396   .     S
C177   C187    1.484   .     S
C177   O211    1.216   .     D
C177   O212    1.399   .     S
C178   O213    1.221   .     D
C178   C188    1.475   .     S
C178   O214    1.394   .     S
C179   O231    1.303   .     A
C179   O228    1.297   .     A
C180   O216    1.399   .     S
C180   C189    1.483   .     S
C180   O215    1.216   .     D
C181   O217    1.223   .     D
C181   O218    1.399   .     S
C182   O219    1.223   .     D
C182   O221    1.399   .     S
C183   O222    1.224   .     D
C183   O223    1.399   .     S
C184   O225    1.399   .     S
C184   O224    1.223   .     D
C185   O229    1.303   .     A
C185   O230    1.297   .     A
C186   N208    1.366   .     A
C186   C657    1.425   1_545 S
C187   N207    1.384   .     A
C187   C422    1.426   .     S
C188   N208    1.366   .     A
C188   C655    1.426   1_545 S
C189   N207    1.383   .     A
C189   C420    1.425   .     S
C190   H195    1.081   .     S
H191   O210    1.014   .     S
H192   O221    1.014   .     S
H193   O223    1.013   .     S
H194   O225    1.014   .     S
H199   O212    1.014   .     S
H200   O214    1.014   .     S
H201   O216    1.014   .     S
H206   O218    1.013   .     S
N207   Zn233   2.026   .     S
N208   Zn234   2.026   .     S
O209   Zn233   2.004   .     S
O220   Zn234   2.004   .     S
O226   Zn233   2.002   .     S
O227   Zn234   2.002   .     S
O228   Zn233   2.009   .     S
O229   Zn234   2.009   .     S
O230   Zn233   2.009   .     S
O231   Zn234   2.009   .     S
C235   O305    1.290   .     A
C235   O287    1.291   .     A
C235   C253    1.424   .     S
C236   C252    1.396   .     A
C236   H274    1.080   .     S
C236   C316    1.369   .     S
C237   C252    1.397   .     A
C237   H275    1.081   .     S
C237   C346    1.369   .     S
C238   C253    1.395   .     A
C238   H276    1.079   .     S
C238   C392    1.369   1_455 S
C239   C250    1.391   .     A
C239   C243    1.378   .     A
C239   H280    1.086   .     S
C240   H281    1.084   .     S
C240   C251    1.390   .     A
C240   C244    1.394   .     A
C241   C245    1.379   .     A
C241   C251    1.392   .     A
C241   H282    1.086   .     S
C242   C247    1.394   .     A
C242   C250    1.390   .     A
C242   H283    1.085   .     S
C243   C259    1.482   .     S
C243   C248    1.420   .     A
C244   C249    1.426   .     A
C244   C260    1.487   .     S
C245   C249    1.419   .     A
C245   C261    1.483   .     S
C246   O298    1.290   .     A
C246   O304    1.291   .     A
C246   C252    1.423   .     S
C247   C262    1.487   .     S
C247   C248    1.427   .     A
C248   C257    1.466   .     S
C249   C263    1.465   .     S
C250   C953    1.447   1_554 S
C251   C952    1.447   .     S
C253   C268    1.397   .     A
C254   C264    1.475   .     S
C254   O310    1.219   .     D
C254   O288    1.396   .     S
C255   C265    1.484   .     S
C255   O289    1.216   .     D
C255   O290    1.399   .     S
C256   O291    1.221   .     D
C256   C266    1.475   .     S
C256   O292    1.394   .     S
C257   O309    1.303   .     A
C257   O306    1.297   .     A
C258   O294    1.399   .     S
C258   C267    1.483   .     S
C258   O293    1.216   .     D
C259   O295    1.223   .     D
C259   O296    1.399   .     S
C260   O297    1.223   .     D
C260   O299    1.399   .     S
C261   O300    1.224   .     D
C261   O301    1.399   .     S
C262   O303    1.399   .     S
C262   O302    1.223   .     D
C263   O307    1.303   .     A
C263   O308    1.297   .     A
C264   N286    1.366   .     A
C265   N285    1.384   .     A
C265   C500    1.426   .     S
C266   N286    1.366   .     A
C267   N285    1.383   .     A
C267   C498    1.425   .     S
C268   H273    1.081   .     S
C268   C393    1.369   1_455 S
H269   O288    1.014   .     S
H270   O299    1.014   .     S
H271   O301    1.013   .     S
H272   O303    1.014   .     S
H277   O290    1.014   .     S
H278   O292    1.014   .     S
H279   O294    1.014   .     S
H284   O296    1.013   .     S
N285   Zn311   2.026   .     S
N286   Zn312   2.026   .     S
O287   Zn311   2.004   .     S
O298   Zn312   2.004   .     S
O304   Zn311   2.002   .     S
O305   Zn312   2.002   .     S
O306   Zn311   2.009   .     S
O307   Zn312   2.009   .     S
O308   Zn311   2.009   .     S
O309   Zn312   2.009   .     S
C313   O383    1.290   .     A
C313   O365    1.291   .     A
C313   C331    1.424   .     S
C314   C330    1.396   .     A
C314   H352    1.080   .     S
C314   C394    1.369   .     S
C315   C330    1.397   .     A
C315   H353    1.081   .     S
C315   C424    1.369   .     S
C316   C331    1.395   .     A
C316   H354    1.079   .     S
C317   C328    1.391   .     A
C317   C321    1.378   .     A
C317   H358    1.086   .     S
C318   H359    1.084   .     S
C318   C329    1.390   .     A
C318   C322    1.394   .     A
C319   C323    1.379   .     A
C319   C329    1.392   .     A
C319   H360    1.086   .     S
C320   C325    1.394   .     A
C320   C328    1.390   .     A
C320   H361    1.085   .     S
C321   C337    1.482   .     S
C321   C326    1.420   .     A
C322   C327    1.426   .     A
C322   C338    1.487   .     S
C323   C327    1.419   .     A
C323   C339    1.483   .     S
C324   O376    1.290   .     A
C324   O382    1.291   .     A
C324   C330    1.423   .     S
C325   C340    1.487   .     S
C325   C326    1.427   .     A
C326   C335    1.466   .     S
C327   C341    1.465   .     S
C328   C1031   1.447   1_554 S
C329   C1030   1.447   .     S
C331   C346    1.397   .     A
C332   C342    1.475   .     S
C332   O388    1.219   .     D
C332   O366    1.396   .     S
C333   C343    1.484   .     S
C333   O367    1.216   .     D
C333   O368    1.399   .     S
C334   O369    1.221   .     D
C334   C344    1.475   .     S
C334   O370    1.394   .     S
C335   O387    1.303   .     A
C335   O384    1.297   .     A
C336   O372    1.399   .     S
C336   C345    1.483   .     S
C336   O371    1.216   .     D
C337   O373    1.223   .     D
C337   O374    1.399   .     S
C338   O375    1.223   .     D
C338   O377    1.399   .     S
C339   O378    1.224   .     D
C339   O379    1.399   .     S
C340   O381    1.399   .     S
C340   O380    1.223   .     D
C341   O385    1.303   .     A
C341   O386    1.297   .     A
C342   N364    1.366   .     A
C343   N363    1.384   .     A
C343   C578    1.426   .     S
C344   N364    1.366   .     A
C345   N363    1.383   .     A
C345   C576    1.425   .     S
C346   H351    1.081   .     S
H347   O366    1.014   .     S
H348   O377    1.014   .     S
H349   O379    1.013   .     S
H350   O381    1.014   .     S
H355   O368    1.014   .     S
H356   O370    1.014   .     S
H357   O372    1.014   .     S
H362   O374    1.013   .     S
N363   Zn389   2.026   .     S
N364   Zn390   2.026   .     S
O365   Zn389   2.004   .     S
O376   Zn390   2.004   .     S
O382   Zn389   2.002   .     S
O383   Zn390   2.002   .     S
O384   Zn389   2.009   .     S
O385   Zn390   2.009   .     S
O386   Zn389   2.009   .     S
O387   Zn390   2.009   .     S
C391   O461    1.290   .     A
C391   O443    1.291   .     A
C391   C409    1.424   .     S
C392   C408    1.396   .     A
C392   H430    1.080   .     S
C392   C238    1.369   1_655 S
C393   C408    1.397   .     A
C393   H431    1.081   .     S
C393   C268    1.369   1_655 S
C394   C409    1.395   .     A
C394   H432    1.079   .     S
C395   C406    1.391   .     A
C395   C399    1.378   .     A
C395   H436    1.086   .     S
C396   H437    1.084   .     S
C396   C407    1.390   .     A
C396   C400    1.394   .     A
C397   C401    1.379   .     A
C397   C407    1.392   .     A
C397   H438    1.086   .     S
C398   C403    1.394   .     A
C398   C406    1.390   .     A
C398   H439    1.085   .     S
C399   C415    1.482   .     S
C399   C404    1.420   .     A
C400   C405    1.426   .     A
C400   C416    1.487   .     S
C401   C405    1.419   .     A
C401   C417    1.483   .     S
C402   O454    1.290   .     A
C402   O460    1.291   .     A
C402   C408    1.423   .     S
C403   C418    1.487   .     S
C403   C404    1.427   .     A
C404   C413    1.466   .     S
C405   C419    1.465   .     S
C406   C1109   1.447   1_554 S
C407   C1108   1.447   .     S
C409   C424    1.397   .     A
C410   C420    1.475   .     S
C410   O466    1.219   .     D
C410   O444    1.396   .     S
C411   C421    1.484   .     S
C411   O445    1.216   .     D
C411   O446    1.399   .     S
C412   O447    1.221   .     D
C412   C422    1.475   .     S
C412   O448    1.394   .     S
C413   O465    1.303   .     A
C413   O462    1.297   .     A
C414   O450    1.399   .     S
C414   C423    1.483   .     S
C414   O449    1.216   .     D
C415   O451    1.223   .     D
C415   O452    1.399   .     S
C416   O453    1.223   .     D
C416   O455    1.399   .     S
C417   O456    1.224   .     D
C417   O457    1.399   .     S
C418   O459    1.399   .     S
C418   O458    1.223   .     D
C419   O463    1.303   .     A
C419   O464    1.297   .     A
C420   N442    1.366   .     A
C421   N441    1.384   .     A
C421   C656    1.426   .     S
C422   N442    1.366   .     A
C423   N441    1.383   .     A
C423   C654    1.425   .     S
C424   H429    1.081   .     S
H425   O444    1.014   .     S
H426   O455    1.014   .     S
H427   O457    1.013   .     S
H428   O459    1.014   .     S
H433   O446    1.014   .     S
H434   O448    1.014   .     S
H435   O450    1.014   .     S
H440   O452    1.013   .     S
N441   Zn467   2.026   .     S
N442   Zn468   2.026   .     S
O443   Zn467   2.004   .     S
O454   Zn468   2.004   .     S
O460   Zn467   2.002   .     S
O461   Zn468   2.002   .     S
O462   Zn467   2.009   .     S
O463   Zn468   2.009   .     S
O464   Zn467   2.009   .     S
O465   Zn468   2.009   .     S
C469   O539    1.290   .     A
C469   O521    1.291   .     A
C469   C487    1.424   .     S
C470   C486    1.396   .     A
C470   H508    1.080   .     S
C470   C550    1.369   .     S
C471   C486    1.397   .     A
C471   H509    1.081   .     S
C471   C580    1.369   .     S
C472   C487    1.395   .     A
C472   H510    1.079   .     S
C472   C626    1.369   1_455 S
C473   C484    1.391   .     A
C473   C477    1.378   .     A
C473   H514    1.086   .     S
C474   H515    1.084   .     S
C474   C485    1.390   .     A
C474   C478    1.394   .     A
C475   C479    1.379   .     A
C475   C485    1.392   .     A
C475   H516    1.086   .     S
C476   C481    1.394   .     A
C476   C484    1.390   .     A
C476   H517    1.085   .     S
C477   C493    1.482   .     S
C477   C482    1.420   .     A
C478   C483    1.426   .     A
C478   C494    1.487   .     S
C479   C483    1.419   .     A
C479   C495    1.483   .     S
C480   O532    1.290   .     A
C480   O538    1.291   .     A
C480   C486    1.423   .     S
C481   C496    1.487   .     S
C481   C482    1.427   .     A
C482   C491    1.466   .     S
C483   C497    1.465   .     S
C484   C1187   1.447   1_554 S
C485   C1186   1.447   .     S
C487   C502    1.397   .     A
C488   C498    1.475   .     S
C488   O544    1.219   .     D
C488   O522    1.396   .     S
C489   C499    1.484   .     S
C489   O523    1.216   .     D
C489   O524    1.399   .     S
C490   O525    1.221   .     D
C490   C500    1.475   .     S
C490   O526    1.394   .     S
C491   O543    1.303   .     A
C491   O540    1.297   .     A
C492   O528    1.399   .     S
C492   C501    1.483   .     S
C492   O527    1.216   .     D
C493   O529    1.223   .     D
C493   O530    1.399   .     S
C494   O531    1.223   .     D
C494   O533    1.399   .     S
C495   O534    1.224   .     D
C495   O535    1.399   .     S
C496   O537    1.399   .     S
C496   O536    1.223   .     D
C497   O541    1.303   .     A
C497   O542    1.297   .     A
C498   N520    1.366   .     A
C499   N519    1.384   .     A
C499   C32     1.426   1_565 S
C500   N520    1.366   .     A
C501   N519    1.383   .     A
C501   C30     1.425   1_565 S
C502   H507    1.081   .     S
C502   C627    1.369   1_455 S
H503   O522    1.014   .     S
H504   O533    1.014   .     S
H505   O535    1.013   .     S
H506   O537    1.014   .     S
H511   O524    1.014   .     S
H512   O526    1.014   .     S
H513   O528    1.014   .     S
H518   O530    1.013   .     S
N519   Zn545   2.026   .     S
N520   Zn546   2.026   .     S
O521   Zn545   2.004   .     S
O532   Zn546   2.004   .     S
O538   Zn545   2.002   .     S
O539   Zn546   2.002   .     S
O540   Zn545   2.009   .     S
O541   Zn546   2.009   .     S
O542   Zn545   2.009   .     S
O543   Zn546   2.009   .     S
C547   O617    1.290   .     A
C547   O599    1.291   .     A
C547   C565    1.424   .     S
C548   C564    1.396   .     A
C548   H586    1.080   .     S
C548   C628    1.369   .     S
C549   C564    1.397   .     A
C549   H587    1.081   .     S
C549   C658    1.369   .     S
C550   C565    1.395   .     A
C550   H588    1.079   .     S
C551   C562    1.391   .     A
C551   C555    1.378   .     A
C551   H592    1.086   .     S
C552   H593    1.084   .     S
C552   C563    1.390   .     A
C552   C556    1.394   .     A
C553   C557    1.379   .     A
C553   C563    1.392   .     A
C553   H594    1.086   .     S
C554   C559    1.394   .     A
C554   C562    1.390   .     A
C554   H595    1.085   .     S
C555   C571    1.482   .     S
C555   C560    1.420   .     A
C556   C561    1.426   .     A
C556   C572    1.487   .     S
C557   C561    1.419   .     A
C557   C573    1.483   .     S
C558   O610    1.290   .     A
C558   O616    1.291   .     A
C558   C564    1.423   .     S
C559   C574    1.487   .     S
C559   C560    1.427   .     A
C560   C569    1.466   .     S
C561   C575    1.465   .     S
C562   C1265   1.447   1_554 S
C563   C1264   1.447   .     S
C565   C580    1.397   .     A
C566   C576    1.475   .     S
C566   O622    1.219   .     D
C566   O600    1.396   .     S
C567   C577    1.484   .     S
C567   O601    1.216   .     D
C567   O602    1.399   .     S
C568   O603    1.221   .     D
C568   C578    1.475   .     S
C568   O604    1.394   .     S
C569   O621    1.303   .     A
C569   O618    1.297   .     A
C570   O606    1.399   .     S
C570   C579    1.483   .     S
C570   O605    1.216   .     D
C571   O607    1.223   .     D
C571   O608    1.399   .     S
C572   O609    1.223   .     D
C572   O611    1.399   .     S
C573   O612    1.224   .     D
C573   O613    1.399   .     S
C574   O615    1.399   .     S
C574   O614    1.223   .     D
C575   O619    1.303   .     A
C575   O620    1.297   .     A
C576   N598    1.366   .     A
C577   N597    1.384   .     A
C577   C110    1.426   1_565 S
C578   N598    1.366   .     A
C579   N597    1.383   .     A
C579   C108    1.425   1_565 S
C580   H585    1.081   .     S
H581   O600    1.014   .     S
H582   O611    1.014   .     S
H583   O613    1.013   .     S
H584   O615    1.014   .     S
H589   O602    1.014   .     S
H590   O604    1.014   .     S
H591   O606    1.014   .     S
H596   O608    1.013   .     S
N597   Zn623   2.026   .     S
N598   Zn624   2.026   .     S
O599   Zn623   2.004   .     S
O610   Zn624   2.004   .     S
O616   Zn623   2.002   .     S
O617   Zn624   2.002   .     S
O618   Zn623   2.009   .     S
O619   Zn624   2.009   .     S
O620   Zn623   2.009   .     S
O621   Zn624   2.009   .     S
C625   O695    1.290   .     A
C625   O677    1.291   .     A
C625   C643    1.424   .     S
C626   C642    1.396   .     A
C626   H664    1.080   .     S
C626   C472    1.369   1_655 S
C627   C642    1.397   .     A
C627   H665    1.081   .     S
C627   C502    1.369   1_655 S
C628   C643    1.395   .     A
C628   H666    1.079   .     S
C629   C640    1.391   .     A
C629   C633    1.378   .     A
C629   H670    1.086   .     S
C630   H671    1.084   .     S
C630   C641    1.390   .     A
C630   C634    1.394   .     A
C631   C635    1.379   .     A
C631   C641    1.392   .     A
C631   H672    1.086   .     S
C632   C637    1.394   .     A
C632   C640    1.390   .     A
C632   H673    1.085   .     S
C633   C649    1.482   .     S
C633   C638    1.420   .     A
C634   C639    1.426   .     A
C634   C650    1.487   .     S
C635   C639    1.419   .     A
C635   C651    1.483   .     S
C636   O688    1.290   .     A
C636   O694    1.291   .     A
C636   C642    1.423   .     S
C637   C652    1.487   .     S
C637   C638    1.427   .     A
C638   C647    1.466   .     S
C639   C653    1.465   .     S
C640   C1343   1.447   1_554 S
C641   C1342   1.447   .     S
C643   C658    1.397   .     A
C644   C654    1.475   .     S
C644   O700    1.219   .     D
C644   O678    1.396   .     S
C645   C655    1.484   .     S
C645   O679    1.216   .     D
C645   O680    1.399   .     S
C646   O681    1.221   .     D
C646   C656    1.475   .     S
C646   O682    1.394   .     S
C647   O699    1.303   .     A
C647   O696    1.297   .     A
C648   O684    1.399   .     S
C648   C657    1.483   .     S
C648   O683    1.216   .     D
C649   O685    1.223   .     D
C649   O686    1.399   .     S
C650   O687    1.223   .     D
C650   O689    1.399   .     S
C651   O690    1.224   .     D
C651   O691    1.399   .     S
C652   O693    1.399   .     S
C652   O692    1.223   .     D
C653   O697    1.303   .     A
C653   O698    1.297   .     A
C654   N676    1.366   .     A
C655   N675    1.384   .     A
C655   C188    1.426   1_565 S
C656   N676    1.366   .     A
C657   N675    1.383   .     A
C657   C186    1.425   1_565 S
C658   H663    1.081   .     S
H659   O678    1.014   .     S
H660   O689    1.014   .     S
H661   O691    1.013   .     S
H662   O693    1.014   .     S
H667   O680    1.014   .     S
H668   O682    1.014   .     S
H669   O684    1.014   .     S
H674   O686    1.013   .     S
N675   Zn701   2.026   .     S
N676   Zn702   2.026   .     S
O677   Zn701   2.004   .     S
O688   Zn702   2.004   .     S
O694   Zn701   2.002   .     S
O695   Zn702   2.002   .     S
O696   Zn701   2.009   .     S
O697   Zn702   2.009   .     S
O698   Zn701   2.009   .     S
O699   Zn702   2.009   .     S
C703   O773    1.290   .     A
C703   O755    1.291   .     A
C703   C721    1.424   .     S
C704   C720    1.396   .     A
C704   H742    1.080   .     S
C704   C784    1.369   .     S
C705   C720    1.397   .     A
C705   H743    1.081   .     S
C705   C814    1.369   .     S
C706   C721    1.395   .     A
C706   H744    1.079   .     S
C706   C860    1.369   1_455 S
C707   C718    1.391   .     A
C707   C711    1.378   .     A
C707   H748    1.086   .     S
C708   H749    1.084   .     S
C708   C719    1.390   .     A
C708   C712    1.394   .     A
C709   C713    1.379   .     A
C709   C719    1.392   .     A
C709   H750    1.086   .     S
C710   C715    1.394   .     A
C710   C718    1.390   .     A
C710   H751    1.085   .     S
C711   C727    1.482   .     S
C711   C716    1.420   .     A
C712   C717    1.426   .     A
C712   C728    1.487   .     S
C713   C717    1.419   .     A
C713   C729    1.483   .     S
C714   O766    1.290   .     A
C714   O772    1.291   .     A
C714   C720    1.423   .     S
C715   C730    1.487   .     S
C715   C716    1.427   .     A
C716   C725    1.466   .     S
C717   C731    1.465   .     S
C719   C16     1.447   1_556 S
C721   C736    1.397   .     A
C722   C732    1.475   .     S
C722   O778    1.219   .     D
C722   O756    1.396   .     S
C723   C733    1.484   .     S
C723   O757    1.216   .     D
C723   O758    1.399   .     S
C724   O759    1.221   .     D
C724   C734    1.475   .     S
C724   O760    1.394   .     S
C725   O777    1.303   .     A
C725   O774    1.297   .     A
C726   O762    1.399   .     S
C726   C735    1.483   .     S
C726   O761    1.216   .     D
C727   O763    1.223   .     D
C727   O764    1.399   .     S
C728   O765    1.223   .     D
C728   O767    1.399   .     S
C729   O768    1.224   .     D
C729   O769    1.399   .     S
C730   O771    1.399   .     S
C730   O770    1.223   .     D
C731   O775    1.303   .     A
C731   O776    1.297   .     A
C732   N754    1.366   .     A
C732   C1203   1.425   1_545 S
C733   N753    1.384   .     A
C733   C968    1.426   .     S
C734   N754    1.366   .     A
C734   C1201   1.426   1_545 S
C735   N753    1.383   .     A
C735   C966    1.425   .     S
C736   H741    1.081   .     S
C736   C861    1.369   1_455 S
H737   O756    1.014   .     S
H738   O767    1.014   .     S
H739   O769    1.013   .     S
H740   O771    1.014   .     S
H745   O758    1.014   .     S
H746   O760    1.014   .     S
H747   O762    1.014   .     S
H752   O764    1.013   .     S
N753   Zn779   2.026   .     S
N754   Zn780   2.026   .     S
O755   Zn779   2.004   .     S
O766   Zn780   2.004   .     S
O772   Zn779   2.002   .     S
O773   Zn780   2.002   .     S
O774   Zn779   2.009   .     S
O775   Zn780   2.009   .     S
O776   Zn779   2.009   .     S
O777   Zn780   2.009   .     S
C781   O851    1.290   .     A
C781   O833    1.291   .     A
C781   C799    1.424   .     S
C782   C798    1.396   .     A
C782   H820    1.080   .     S
C782   C862    1.369   .     S
C783   C798    1.397   .     A
C783   H821    1.081   .     S
C783   C892    1.369   .     S
C784   C799    1.395   .     A
C784   H822    1.079   .     S
C785   C796    1.391   .     A
C785   C789    1.378   .     A
C785   H826    1.086   .     S
C786   H827    1.084   .     S
C786   C797    1.390   .     A
C786   C790    1.394   .     A
C787   C791    1.379   .     A
C787   C797    1.392   .     A
C787   H828    1.086   .     S
C788   C793    1.394   .     A
C788   C796    1.390   .     A
C788   H829    1.085   .     S
C789   C805    1.482   .     S
C789   C794    1.420   .     A
C790   C795    1.426   .     A
C790   C806    1.487   .     S
C791   C795    1.419   .     A
C791   C807    1.483   .     S
C792   O844    1.290   .     A
C792   O850    1.291   .     A
C792   C798    1.423   .     S
C793   C808    1.487   .     S
C793   C794    1.427   .     A
C794   C803    1.466   .     S
C795   C809    1.465   .     S
C797   C94     1.447   1_556 S
C799   C814    1.397   .     A
C800   C810    1.475   .     S
C800   O856    1.219   .     D
C800   O834    1.396   .     S
C801   C811    1.484   .     S
C801   O835    1.216   .     D
C801   O836    1.399   .     S
C802   O837    1.221   .     D
C802   C812    1.475   .     S
C802   O838    1.394   .     S
C803   O855    1.303   .     A
C803   O852    1.297   .     A
C804   O840    1.399   .     S
C804   C813    1.483   .     S
C804   O839    1.216   .     D
C805   O841    1.223   .     D
C805   O842    1.399   .     S
C806   O843    1.223   .     D
C806   O845    1.399   .     S
C807   O846    1.224   .     D
C807   O847    1.399   .     S
C808   O849    1.399   .     S
C808   O848    1.223   .     D
C809   O853    1.303   .     A
C809   O854    1.297   .     A
C810   N832    1.366   .     A
C810   C1281   1.425   1_545 S
C811   N831    1.384   .     A
C811   C1046   1.426   .     S
C812   N832    1.366   .     A
C812   C1279   1.426   1_545 S
C813   N831    1.383   .     A
C813   C1044   1.425   .     S
C814   H819    1.081   .     S
H815   O834    1.014   .     S
H816   O845    1.014   .     S
H817   O847    1.013   .     S
H818   O849    1.014   .     S
H823   O836    1.014   .     S
H824   O838    1.014   .     S
H825   O840    1.014   .     S
H830   O842    1.013   .     S
N831   Zn857   2.026   .     S
N832   Zn858   2.026   .     S
O833   Zn857   2.004   .     S
O844   Zn858   2.004   .     S
O850   Zn857   2.002   .     S
O851   Zn858   2.002   .     S
O852   Zn857   2.009   .     S
O853   Zn858   2.009   .     S
O854   Zn857   2.009   .     S
O855   Zn858   2.009   .     S
C859   O929    1.290   .     A
C859   O911    1.291   .     A
C859   C877    1.424   .     S
C860   C876    1.396   .     A
C860   H898    1.080   .     S
C860   C706    1.369   1_655 S
C861   C876    1.397   .     A
C861   H899    1.081   .     S
C861   C736    1.369   1_655 S
C862   C877    1.395   .     A
C862   H900    1.079   .     S
C863   C874    1.391   .     A
C863   C867    1.378   .     A
C863   H904    1.086   .     S
C864   H905    1.084   .     S
C864   C875    1.390   .     A
C864   C868    1.394   .     A
C865   C869    1.379   .     A
C865   C875    1.392   .     A
C865   H906    1.086   .     S
C866   C871    1.394   .     A
C866   C874    1.390   .     A
C866   H907    1.085   .     S
C867   C883    1.482   .     S
C867   C872    1.420   .     A
C868   C873    1.426   .     A
C868   C884    1.487   .     S
C869   C873    1.419   .     A
C869   C885    1.483   .     S
C870   O922    1.290   .     A
C870   O928    1.291   .     A
C870   C876    1.423   .     S
C871   C886    1.487   .     S
C871   C872    1.427   .     A
C872   C881    1.466   .     S
C873   C887    1.465   .     S
C875   C172    1.447   1_556 S
C877   C892    1.397   .     A
C878   C888    1.475   .     S
C878   O934    1.219   .     D
C878   O912    1.396   .     S
C879   C889    1.484   .     S
C879   O913    1.216   .     D
C879   O914    1.399   .     S
C880   O915    1.221   .     D
C880   C890    1.475   .     S
C880   O916    1.394   .     S
C881   O933    1.303   .     A
C881   O930    1.297   .     A
C882   O918    1.399   .     S
C882   C891    1.483   .     S
C882   O917    1.216   .     D
C883   O919    1.223   .     D
C883   O920    1.399   .     S
C884   O921    1.223   .     D
C884   O923    1.399   .     S
C885   O924    1.224   .     D
C885   O925    1.399   .     S
C886   O927    1.399   .     S
C886   O926    1.223   .     D
C887   O931    1.303   .     A
C887   O932    1.297   .     A
C888   N910    1.366   .     A
C888   C1359   1.425   1_545 S
C889   N909    1.384   .     A
C889   C1124   1.426   .     S
C890   N910    1.366   .     A
C890   C1357   1.426   1_545 S
C891   N909    1.383   .     A
C891   C1122   1.425   .     S
C892   H897    1.081   .     S
H893   O912    1.014   .     S
H894   O923    1.014   .     S
H895   O925    1.013   .     S
H896   O927    1.014   .     S
H901   O914    1.014   .     S
H902   O916    1.014   .     S
H903   O918    1.014   .     S
H908   O920    1.013   .     S
N909   Zn935   2.026   .     S
N910   Zn936   2.026   .     S
O911   Zn935   2.004   .     S
O922   Zn936   2.004   .     S
O928   Zn935   2.002   .     S
O929   Zn936   2.002   .     S
O930   Zn935   2.009   .     S
O931   Zn936   2.009   .     S
O932   Zn935   2.009   .     S
O933   Zn936   2.009   .     S
C937   O1007   1.290   .     A
C937   O989    1.291   .     A
C937   C955    1.424   .     S
C938   C954    1.396   .     A
C938   H976    1.080   .     S
C938   C1018   1.369   .     S
C939   C954    1.397   .     A
C939   H977    1.081   .     S
C939   C1048   1.369   .     S
C940   C955    1.395   .     A
C940   H978    1.079   .     S
C940   C1094   1.369   1_455 S
C941   C952    1.391   .     A
C941   C945    1.378   .     A
C941   H982    1.086   .     S
C942   H983    1.084   .     S
C942   C953    1.390   .     A
C942   C946    1.394   .     A
C943   C947    1.379   .     A
C943   C953    1.392   .     A
C943   H984    1.086   .     S
C944   C949    1.394   .     A
C944   C952    1.390   .     A
C944   H985    1.085   .     S
C945   C961    1.482   .     S
C945   C950    1.420   .     A
C946   C951    1.426   .     A
C946   C962    1.487   .     S
C947   C951    1.419   .     A
C947   C963    1.483   .     S
C948   O1000   1.290   .     A
C948   O1006   1.291   .     A
C948   C954    1.423   .     S
C949   C964    1.487   .     S
C949   C950    1.427   .     A
C950   C959    1.466   .     S
C951   C965    1.465   .     S
C953   C250    1.447   1_556 S
C955   C970    1.397   .     A
C956   C966    1.475   .     S
C956   O1012   1.219   .     D
C956   O990    1.396   .     S
C957   C967    1.484   .     S
C957   O991    1.216   .     D
C957   O992    1.399   .     S
C958   O993    1.221   .     D
C958   C968    1.475   .     S
C958   O994    1.394   .     S
C959   O1011   1.303   .     A
C959   O1008   1.297   .     A
C960   O996    1.399   .     S
C960   C969    1.483   .     S
C960   O995    1.216   .     D
C961   O997    1.223   .     D
C961   O998    1.399   .     S
C962   O999    1.223   .     D
C962   O1001   1.399   .     S
C963   O1002   1.224   .     D
C963   O1003   1.399   .     S
C964   O1005   1.399   .     S
C964   O1004   1.223   .     D
C965   O1009   1.303   .     A
C965   O1010   1.297   .     A
C966   N988    1.366   .     A
C967   N987    1.384   .     A
C967   C1202   1.426   .     S
C968   N988    1.366   .     A
C969   N987    1.383   .     A
C969   C1200   1.425   .     S
C970   H975    1.081   .     S
C970   C1095   1.369   1_455 S
H971   O990    1.014   .     S
H972   O1001   1.014   .     S
H973   O1003   1.013   .     S
H974   O1005   1.014   .     S
H979   O992    1.014   .     S
H980   O994    1.014   .     S
H981   O996    1.014   .     S
H986   O998    1.013   .     S
N987   Zn1013  2.026   .     S
N988   Zn1014  2.026   .     S
O989   Zn1013  2.004   .     S
O1000  Zn1014  2.004   .     S
O1006  Zn1013  2.002   .     S
O1007  Zn1014  2.002   .     S
O1008  Zn1013  2.009   .     S
O1009  Zn1014  2.009   .     S
O1010  Zn1013  2.009   .     S
O1011  Zn1014  2.009   .     S
C1015  O1085   1.290   .     A
C1015  O1067   1.291   .     A
C1015  C1033   1.424   .     S
C1016  C1032   1.396   .     A
C1016  H1054   1.080   .     S
C1016  C1096   1.369   .     S
C1017  C1032   1.397   .     A
C1017  H1055   1.081   .     S
C1017  C1126   1.369   .     S
C1018  C1033   1.395   .     A
C1018  H1056   1.079   .     S
C1019  C1030   1.391   .     A
C1019  C1023   1.378   .     A
C1019  H1060   1.086   .     S
C1020  H1061   1.084   .     S
C1020  C1031   1.390   .     A
C1020  C1024   1.394   .     A
C1021  C1025   1.379   .     A
C1021  C1031   1.392   .     A
C1021  H1062   1.086   .     S
C1022  C1027   1.394   .     A
C1022  C1030   1.390   .     A
C1022  H1063   1.085   .     S
C1023  C1039   1.482   .     S
C1023  C1028   1.420   .     A
C1024  C1029   1.426   .     A
C1024  C1040   1.487   .     S
C1025  C1029   1.419   .     A
C1025  C1041   1.483   .     S
C1026  O1078   1.290   .     A
C1026  O1084   1.291   .     A
C1026  C1032   1.423   .     S
C1027  C1042   1.487   .     S
C1027  C1028   1.427   .     A
C1028  C1037   1.466   .     S
C1029  C1043   1.465   .     S
C1031  C328    1.447   1_556 S
C1033  C1048   1.397   .     A
C1034  C1044   1.475   .     S
C1034  O1090   1.219   .     D
C1034  O1068   1.396   .     S
C1035  C1045   1.484   .     S
C1035  O1069   1.216   .     D
C1035  O1070   1.399   .     S
C1036  O1071   1.221   .     D
C1036  C1046   1.475   .     S
C1036  O1072   1.394   .     S
C1037  O1089   1.303   .     A
C1037  O1086   1.297   .     A
C1038  O1074   1.399   .     S
C1038  C1047   1.483   .     S
C1038  O1073   1.216   .     D
C1039  O1075   1.223   .     D
C1039  O1076   1.399   .     S
C1040  O1077   1.223   .     D
C1040  O1079   1.399   .     S
C1041  O1080   1.224   .     D
C1041  O1081   1.399   .     S
C1042  O1083   1.399   .     S
C1042  O1082   1.223   .     D
C1043  O1087   1.303   .     A
C1043  O1088   1.297   .     A
C1044  N1066   1.366   .     A
C1045  N1065   1.384   .     A
C1045  C1280   1.426   .     S
C1046  N1066   1.366   .     A
C1047  N1065   1.383   .     A
C1047  C1278   1.425   .     S
C1048  H1053   1.081   .     S
H1049  O1068   1.014   .     S
H1050  O1079   1.014   .     S
H1051  O1081   1.013   .     S
H1052  O1083   1.014   .     S
H1057  O1070   1.014   .     S
H1058  O1072   1.014   .     S
H1059  O1074   1.014   .     S
H1064  O1076   1.013   .     S
N1065  Zn1091  2.026   .     S
N1066  Zn1092  2.026   .     S
O1067  Zn1091  2.004   .     S
O1078  Zn1092  2.004   .     S
O1084  Zn1091  2.002   .     S
O1085  Zn1092  2.002   .     S
O1086  Zn1091  2.009   .     S
O1087  Zn1092  2.009   .     S
O1088  Zn1091  2.009   .     S
O1089  Zn1092  2.009   .     S
C1093  O1163   1.290   .     A
C1093  O1145   1.291   .     A
C1093  C1111   1.424   .     S
C1094  C1110   1.396   .     A
C1094  H1132   1.080   .     S
C1094  C940    1.369   1_655 S
C1095  C1110   1.397   .     A
C1095  H1133   1.081   .     S
C1095  C970    1.369   1_655 S
C1096  C1111   1.395   .     A
C1096  H1134   1.079   .     S
C1097  C1108   1.391   .     A
C1097  C1101   1.378   .     A
C1097  H1138   1.086   .     S
C1098  H1139   1.084   .     S
C1098  C1109   1.390   .     A
C1098  C1102   1.394   .     A
C1099  C1103   1.379   .     A
C1099  C1109   1.392   .     A
C1099  H1140   1.086   .     S
C1100  C1105   1.394   .     A
C1100  C1108   1.390   .     A
C1100  H1141   1.085   .     S
C1101  C1117   1.482   .     S
C1101  C1106   1.420   .     A
C1102  C1107   1.426   .     A
C1102  C1118   1.487   .     S
C1103  C1107   1.419   .     A
C1103  C1119   1.483   .     S
C1104  O1156   1.290   .     A
C1104  O1162   1.291   .     A
C1104  C1110   1.423   .     S
C1105  C1120   1.487   .     S
C1105  C1106   1.427   .     A
C1106  C1115   1.466   .     S
C1107  C1121   1.465   .     S
C1109  C406    1.447   1_556 S
C1111  C1126   1.397   .     A
C1112  C1122   1.475   .     S
C1112  O1168   1.219   .     D
C1112  O1146   1.396   .     S
C1113  C1123   1.484   .     S
C1113  O1147   1.216   .     D
C1113  O1148   1.399   .     S
C1114  O1149   1.221   .     D
C1114  C1124   1.475   .     S
C1114  O1150   1.394   .     S
C1115  O1167   1.303   .     A
C1115  O1164   1.297   .     A
C1116  O1152   1.399   .     S
C1116  C1125   1.483   .     S
C1116  O1151   1.216   .     D
C1117  O1153   1.223   .     D
C1117  O1154   1.399   .     S
C1118  O1155   1.223   .     D
C1118  O1157   1.399   .     S
C1119  O1158   1.224   .     D
C1119  O1159   1.399   .     S
C1120  O1161   1.399   .     S
C1120  O1160   1.223   .     D
C1121  O1165   1.303   .     A
C1121  O1166   1.297   .     A
C1122  N1144   1.366   .     A
C1123  N1143   1.384   .     A
C1123  C1358   1.426   .     S
C1124  N1144   1.366   .     A
C1125  N1143   1.383   .     A
C1125  C1356   1.425   .     S
C1126  H1131   1.081   .     S
H1127  O1146   1.014   .     S
H1128  O1157   1.014   .     S
H1129  O1159   1.013   .     S
H1130  O1161   1.014   .     S
H1135  O1148   1.014   .     S
H1136  O1150   1.014   .     S
H1137  O1152   1.014   .     S
H1142  O1154   1.013   .     S
N1143  Zn1169  2.026   .     S
N1144  Zn1170  2.026   .     S
O1145  Zn1169  2.004   .     S
O1156  Zn1170  2.004   .     S
O1162  Zn1169  2.002   .     S
O1163  Zn1170  2.002   .     S
O1164  Zn1169  2.009   .     S
O1165  Zn1170  2.009   .     S
O1166  Zn1169  2.009   .     S
O1167  Zn1170  2.009   .     S
C1171  O1241   1.290   .     A
C1171  O1223   1.291   .     A
C1171  C1189   1.424   .     S
C1172  C1188   1.396   .     A
C1172  H1210   1.080   .     S
C1172  C1252   1.369   .     S
C1173  C1188   1.397   .     A
C1173  H1211   1.081   .     S
C1173  C1282   1.369   .     S
C1174  C1189   1.395   .     A
C1174  H1212   1.079   .     S
C1174  C1328   1.369   1_455 S
C1175  C1186   1.391   .     A
C1175  C1179   1.378   .     A
C1175  H1216   1.086   .     S
C1176  H1217   1.084   .     S
C1176  C1187   1.390   .     A
C1176  C1180   1.394   .     A
C1177  C1181   1.379   .     A
C1177  C1187   1.392   .     A
C1177  H1218   1.086   .     S
C1178  C1183   1.394   .     A
C1178  C1186   1.390   .     A
C1178  H1219   1.085   .     S
C1179  C1195   1.482   .     S
C1179  C1184   1.420   .     A
C1180  C1185   1.426   .     A
C1180  C1196   1.487   .     S
C1181  C1185   1.419   .     A
C1181  C1197   1.483   .     S
C1182  O1234   1.290   .     A
C1182  O1240   1.291   .     A
C1182  C1188   1.423   .     S
C1183  C1198   1.487   .     S
C1183  C1184   1.427   .     A
C1184  C1193   1.466   .     S
C1185  C1199   1.465   .     S
C1187  C484    1.447   1_556 S
C1189  C1204   1.397   .     A
C1190  C1200   1.475   .     S
C1190  O1246   1.219   .     D
C1190  O1224   1.396   .     S
C1191  C1201   1.484   .     S
C1191  O1225   1.216   .     D
C1191  O1226   1.399   .     S
C1192  O1227   1.221   .     D
C1192  C1202   1.475   .     S
C1192  O1228   1.394   .     S
C1193  O1245   1.303   .     A
C1193  O1242   1.297   .     A
C1194  O1230   1.399   .     S
C1194  C1203   1.483   .     S
C1194  O1229   1.216   .     D
C1195  O1231   1.223   .     D
C1195  O1232   1.399   .     S
C1196  O1233   1.223   .     D
C1196  O1235   1.399   .     S
C1197  O1236   1.224   .     D
C1197  O1237   1.399   .     S
C1198  O1239   1.399   .     S
C1198  O1238   1.223   .     D
C1199  O1243   1.303   .     A
C1199  O1244   1.297   .     A
C1200  N1222   1.366   .     A
C1201  N1221   1.384   .     A
C1201  C734    1.426   1_565 S
C1202  N1222   1.366   .     A
C1203  N1221   1.383   .     A
C1203  C732    1.425   1_565 S
C1204  H1209   1.081   .     S
C1204  C1329   1.369   1_455 S
H1205  O1224   1.014   .     S
H1206  O1235   1.014   .     S
H1207  O1237   1.013   .     S
H1208  O1239   1.014   .     S
H1213  O1226   1.014   .     S
H1214  O1228   1.014   .     S
H1215  O1230   1.014   .     S
H1220  O1232   1.013   .     S
N1221  Zn1247  2.026   .     S
N1222  Zn1248  2.026   .     S
O1223  Zn1247  2.004   .     S
O1234  Zn1248  2.004   .     S
O1240  Zn1247  2.002   .     S
O1241  Zn1248  2.002   .     S
O1242  Zn1247  2.009   .     S
O1243  Zn1248  2.009   .     S
O1244  Zn1247  2.009   .     S
O1245  Zn1248  2.009   .     S
C1249  O1319   1.290   .     A
C1249  O1301   1.291   .     A
C1249  C1267   1.424   .     S
C1250  C1266   1.396   .     A
C1250  H1288   1.080   .     S
C1250  C1330   1.369   .     S
C1251  C1266   1.397   .     A
C1251  H1289   1.081   .     S
C1251  C1360   1.369   .     S
C1252  C1267   1.395   .     A
C1252  H1290   1.079   .     S
C1253  C1264   1.391   .     A
C1253  C1257   1.378   .     A
C1253  H1294   1.086   .     S
C1254  H1295   1.084   .     S
C1254  C1265   1.390   .     A
C1254  C1258   1.394   .     A
C1255  C1259   1.379   .     A
C1255  C1265   1.392   .     A
C1255  H1296   1.086   .     S
C1256  C1261   1.394   .     A
C1256  C1264   1.390   .     A
C1256  H1297   1.085   .     S
C1257  C1273   1.482   .     S
C1257  C1262   1.420   .     A
C1258  C1263   1.426   .     A
C1258  C1274   1.487   .     S
C1259  C1263   1.419   .     A
C1259  C1275   1.483   .     S
C1260  O1312   1.290   .     A
C1260  O1318   1.291   .     A
C1260  C1266   1.423   .     S
C1261  C1276   1.487   .     S
C1261  C1262   1.427   .     A
C1262  C1271   1.466   .     S
C1263  C1277   1.465   .     S
C1265  C562    1.447   1_556 S
C1267  C1282   1.397   .     A
C1268  C1278   1.475   .     S
C1268  O1324   1.219   .     D
C1268  O1302   1.396   .     S
C1269  C1279   1.484   .     S
C1269  O1303   1.216   .     D
C1269  O1304   1.399   .     S
C1270  O1305   1.221   .     D
C1270  C1280   1.475   .     S
C1270  O1306   1.394   .     S
C1271  O1323   1.303   .     A
C1271  O1320   1.297   .     A
C1272  O1308   1.399   .     S
C1272  C1281   1.483   .     S
C1272  O1307   1.216   .     D
C1273  O1309   1.223   .     D
C1273  O1310   1.399   .     S
C1274  O1311   1.223   .     D
C1274  O1313   1.399   .     S
C1275  O1314   1.224   .     D
C1275  O1315   1.399   .     S
C1276  O1317   1.399   .     S
C1276  O1316   1.223   .     D
C1277  O1321   1.303   .     A
C1277  O1322   1.297   .     A
C1278  N1300   1.366   .     A
C1279  N1299   1.384   .     A
C1279  C812    1.426   1_565 S
C1280  N1300   1.366   .     A
C1281  N1299   1.383   .     A
C1281  C810    1.425   1_565 S
C1282  H1287   1.081   .     S
H1283  O1302   1.014   .     S
H1284  O1313   1.014   .     S
H1285  O1315   1.013   .     S
H1286  O1317   1.014   .     S
H1291  O1304   1.014   .     S
H1292  O1306   1.014   .     S
H1293  O1308   1.014   .     S
H1298  O1310   1.013   .     S
N1299  Zn1325  2.026   .     S
N1300  Zn1326  2.026   .     S
O1301  Zn1325  2.004   .     S
O1312  Zn1326  2.004   .     S
O1318  Zn1325  2.002   .     S
O1319  Zn1326  2.002   .     S
O1320  Zn1325  2.009   .     S
O1321  Zn1326  2.009   .     S
O1322  Zn1325  2.009   .     S
O1323  Zn1326  2.009   .     S
C1327  O1397   1.290   .     A
C1327  O1379   1.291   .     A
C1327  C1345   1.424   .     S
C1328  C1344   1.396   .     A
C1328  H1366   1.080   .     S
C1328  C1174   1.369   1_655 S
C1329  C1344   1.397   .     A
C1329  H1367   1.081   .     S
C1329  C1204   1.369   1_655 S
C1330  C1345   1.395   .     A
C1330  H1368   1.079   .     S
C1331  C1342   1.391   .     A
C1331  C1335   1.378   .     A
C1331  H1372   1.086   .     S
C1332  H1373   1.084   .     S
C1332  C1343   1.390   .     A
C1332  C1336   1.394   .     A
C1333  C1337   1.379   .     A
C1333  C1343   1.392   .     A
C1333  H1374   1.086   .     S
C1334  C1339   1.394   .     A
C1334  C1342   1.390   .     A
C1334  H1375   1.085   .     S
C1335  C1351   1.482   .     S
C1335  C1340   1.420   .     A
C1336  C1341   1.426   .     A
C1336  C1352   1.487   .     S
C1337  C1341   1.419   .     A
C1337  C1353   1.483   .     S
C1338  O1390   1.290   .     A
C1338  O1396   1.291   .     A
C1338  C1344   1.423   .     S
C1339  C1354   1.487   .     S
C1339  C1340   1.427   .     A
C1340  C1349   1.466   .     S
C1341  C1355   1.465   .     S
C1343  C640    1.447   1_556 S
C1345  C1360   1.397   .     A
C1346  C1356   1.475   .     S
C1346  O1402   1.219   .     D
C1346  O1380   1.396   .     S
C1347  C1357   1.484   .     S
C1347  O1381   1.216   .     D
C1347  O1382   1.399   .     S
C1348  O1383   1.221   .     D
C1348  C1358   1.475   .     S
C1348  O1384   1.394   .     S
C1349  O1401   1.303   .     A
C1349  O1398   1.297   .     A
C1350  O1386   1.399   .     S
C1350  C1359   1.483   .     S
C1350  O1385   1.216   .     D
C1351  O1387   1.223   .     D
C1351  O1388   1.399   .     S
C1352  O1389   1.223   .     D
C1352  O1391   1.399   .     S
C1353  O1392   1.224   .     D
C1353  O1393   1.399   .     S
C1354  O1395   1.399   .     S
C1354  O1394   1.223   .     D
C1355  O1399   1.303   .     A
C1355  O1400   1.297   .     A
C1356  N1378   1.366   .     A
C1357  N1377   1.384   .     A
C1357  C890    1.426   1_565 S
C1358  N1378   1.366   .     A
C1359  N1377   1.383   .     A
C1359  C888    1.425   1_565 S
C1360  H1365   1.081   .     S
H1361  O1380   1.014   .     S
H1362  O1391   1.014   .     S
H1363  O1393   1.013   .     S
H1364  O1395   1.014   .     S
H1369  O1382   1.014   .     S
H1370  O1384   1.014   .     S
H1371  O1386   1.014   .     S
H1376  O1388   1.013   .     S
N1377  Zn1403  2.026   .     S
N1378  Zn1404  2.026   .     S
O1379  Zn1403  2.004   .     S
O1390  Zn1404  2.004   .     S
O1396  Zn1403  2.002   .     S
O1397  Zn1404  2.002   .     S
O1398  Zn1403  2.009   .     S
O1399  Zn1404  2.009   .     S
O1400  Zn1403  2.009   .     S
O1401  Zn1404  2.009   .     S
