data_str_m3_o10_o17_pcu_sym.119
_audit_creation_date              2020-01-03
_audit_creation_method            'Materials Studio'
_symmetry_space_group_name_H-M    'P1'
_symmetry_Int_Tables_number       1
_symmetry_cell_setting            triclinic
loop_
_symmetry_equiv_pos_as_xyz
  x,y,z
_cell_length_a                    23.5087
_cell_length_b                    25.6295
_cell_length_c                    29.7116
_cell_angle_alpha                 92.0756
_cell_angle_beta                  85.1448
_cell_angle_gamma                 93.4071
loop_
_atom_site_label
_atom_site_type_symbol
_atom_site_fract_x
_atom_site_fract_y
_atom_site_fract_z
_atom_site_U_iso_or_equiv
_atom_site_adp_type
_atom_site_occupancy
C1     C     0.18177   0.26479   0.24888   0.00000  Uiso   1.00
C2     C     0.18932   0.21101   0.40628   0.00000  Uiso   1.00
C3     C     0.16559   0.16669   0.11616   0.00000  Uiso   1.00
C4     C     0.16775   0.16665   0.38384   0.00000  Uiso   1.00
C5     C     0.18739   0.21089   0.09360   0.00000  Uiso   1.00
C6     C     0.14595   0.12244   0.40640   0.00000  Uiso   1.00
C7     C     0.18754   0.21136   0.04708   0.00000  Uiso   1.00
C8     C     0.14579   0.12198   0.45292   0.00000  Uiso   1.00
C9     C     0.16629   0.16648   0.02345   0.00000  Uiso   1.00
C10    C     0.16704   0.16686   0.47655   0.00000  Uiso   1.00
C11    C     0.14445   0.12127   0.04683   0.00000  Uiso   1.00
C12    C     0.15156   0.06854   0.25112   0.00000  Uiso   1.00
C13    C     0.18888   0.21207   0.45317   0.00000  Uiso   1.00
C14    C     0.20864   0.25600   0.02411   0.00000  Uiso   1.00
C15    C     0.12470   0.07734   0.47589   0.00000  Uiso   1.00
C16    C     0.23098   0.30416   0.45511   0.00000  Uiso   1.00
C17    C     0.10236   0.02917   0.04489   0.00000  Uiso   1.00
C18    C     0.00866   0.11613   0.20822   0.00000  Uiso   1.00
C19    C     0.32468   0.21721   0.29178   0.00000  Uiso   1.00
C20    C     0.20935   0.25683   0.47729   0.00000  Uiso   1.00
C21    C     0.12398   0.07651   0.02271   0.00000  Uiso   1.00
C22    C     0.18975   0.31929   0.24823   0.00000  Uiso   1.00
C23    C     0.14358   0.01405   0.25177   0.00000  Uiso   1.00
C24    C     0.16703   0.16679   0.33630   0.00000  Uiso   1.00
C25    C     0.16630   0.16654   0.16370   0.00000  Uiso   1.00
C26    C     0.14402   0.12232   0.09372   0.00000  Uiso   1.00
H27    H     0.12782   0.08879   0.11312   0.00000  Uiso   1.00
H28    H     0.20551   0.24454   0.38688   0.00000  Uiso   1.00
H29    H     0.20381   0.24480   0.11243   0.00000  Uiso   1.00
H30    H     0.12952   0.08853   0.38757   0.00000  Uiso   1.00
H31    H     0.22444   0.29031   0.04275   0.00000  Uiso   1.00
H32    H     0.10890   0.04303   0.45725   0.00000  Uiso   1.00
H33    H     0.23345   0.00276   0.24483   0.00000  Uiso   1.00
H34    H     0.09989   0.33057   0.25517   0.00000  Uiso   1.00
N35    N     0.31678   0.15265   0.23783   0.00000  Uiso   1.00
N36    N     0.01656   0.18068   0.26217   0.00000  Uiso   1.00
N37    N     0.24825   0.00874   0.43741   0.00000  Uiso   1.00
N38    N     0.08509   0.32459   0.06259   0.00000  Uiso   1.00
N39    N     0.02903   0.08540   0.18331   0.00000  Uiso   1.00
N40    N     0.30430   0.24793   0.31669   0.00000  Uiso   1.00
O41    O     0.12975   0.24619   0.25299   0.00000  Uiso   1.00
O42    O     0.20358   0.08714   0.24702   0.00000  Uiso   1.00
O43    O     0.22613   0.23721   0.24519   0.00000  Uiso   1.00
O44    O     0.10720   0.09613   0.25482   0.00000  Uiso   1.00
O45    O     0.11847   0.17117   0.31998   0.00000  Uiso   1.00
O46    O     0.21486   0.16216   0.18003   0.00000  Uiso   1.00
O47    O     0.21485   0.16219   0.31218   0.00000  Uiso   1.00
O48    O     0.11848   0.17115   0.18783   0.00000  Uiso   1.00
Zn49   Zn    0.10231   0.17266   0.25521   0.00000  Uiso   1.00
Zn50   Zn    0.23102   0.16067   0.24479   0.00000  Uiso   1.00
C51    C     0.51511   0.26479   0.24888   0.00000  Uiso   1.00
C52    C     0.52265   0.21101   0.40628   0.00000  Uiso   1.00
C53    C     0.49892   0.16669   0.11616   0.00000  Uiso   1.00
C54    C     0.50108   0.16665   0.38384   0.00000  Uiso   1.00
C55    C     0.52072   0.21089   0.09360   0.00000  Uiso   1.00
C56    C     0.47928   0.12244   0.40640   0.00000  Uiso   1.00
C57    C     0.52087   0.21136   0.04708   0.00000  Uiso   1.00
C58    C     0.47913   0.12198   0.45292   0.00000  Uiso   1.00
C59    C     0.49963   0.16648   0.02345   0.00000  Uiso   1.00
C60    C     0.50037   0.16686   0.47655   0.00000  Uiso   1.00
C61    C     0.47778   0.12127   0.04683   0.00000  Uiso   1.00
C62    C     0.48489   0.06854   0.25112   0.00000  Uiso   1.00
C63    C     0.52222   0.21207   0.45317   0.00000  Uiso   1.00
C64    C     0.54197   0.25600   0.02411   0.00000  Uiso   1.00
C65    C     0.45803   0.07734   0.47589   0.00000  Uiso   1.00
C66    C     0.56431   0.30416   0.45511   0.00000  Uiso   1.00
C67    C     0.43569   0.02917   0.04489   0.00000  Uiso   1.00
C68    C     0.34199   0.11613   0.20822   0.00000  Uiso   1.00
C69    C     0.65801   0.21721   0.29178   0.00000  Uiso   1.00
C70    C     0.54268   0.25683   0.47729   0.00000  Uiso   1.00
C71    C     0.45732   0.07651   0.02271   0.00000  Uiso   1.00
C72    C     0.52308   0.31929   0.24823   0.00000  Uiso   1.00
C73    C     0.47692   0.01405   0.25177   0.00000  Uiso   1.00
C74    C     0.50037   0.16679   0.33630   0.00000  Uiso   1.00
C75    C     0.49963   0.16654   0.16370   0.00000  Uiso   1.00
C76    C     0.47735   0.12232   0.09372   0.00000  Uiso   1.00
H77    H     0.46115   0.08879   0.11312   0.00000  Uiso   1.00
H78    H     0.53884   0.24454   0.38688   0.00000  Uiso   1.00
H79    H     0.53715   0.24480   0.11243   0.00000  Uiso   1.00
H80    H     0.46285   0.08853   0.38757   0.00000  Uiso   1.00
H81    H     0.55777   0.29031   0.04275   0.00000  Uiso   1.00
H82    H     0.44223   0.04303   0.45725   0.00000  Uiso   1.00
H83    H     0.56678   0.00276   0.24483   0.00000  Uiso   1.00
H84    H     0.43322   0.33057   0.25517   0.00000  Uiso   1.00
N85    N     0.65011   0.15265   0.23783   0.00000  Uiso   1.00
N86    N     0.34989   0.18068   0.26217   0.00000  Uiso   1.00
N87    N     0.58158   0.00874   0.43741   0.00000  Uiso   1.00
N88    N     0.41842   0.32459   0.06259   0.00000  Uiso   1.00
N89    N     0.36237   0.08540   0.18331   0.00000  Uiso   1.00
N90    N     0.63763   0.24793   0.31669   0.00000  Uiso   1.00
O91    O     0.46308   0.24619   0.25299   0.00000  Uiso   1.00
O92    O     0.53692   0.08714   0.24702   0.00000  Uiso   1.00
O93    O     0.55946   0.23721   0.24519   0.00000  Uiso   1.00
O94    O     0.44054   0.09613   0.25482   0.00000  Uiso   1.00
O95    O     0.45181   0.17117   0.31998   0.00000  Uiso   1.00
O96    O     0.54819   0.16216   0.18003   0.00000  Uiso   1.00
O97    O     0.54819   0.16219   0.31218   0.00000  Uiso   1.00
O98    O     0.45181   0.17115   0.18783   0.00000  Uiso   1.00
Zn99   Zn    0.43565   0.17266   0.25521   0.00000  Uiso   1.00
Zn100  Zn    0.56435   0.16067   0.24479   0.00000  Uiso   1.00
C101   C     0.84844   0.26479   0.24888   0.00000  Uiso   1.00
C102   C     0.85598   0.21101   0.40628   0.00000  Uiso   1.00
C103   C     0.83225   0.16669   0.11616   0.00000  Uiso   1.00
C104   C     0.83441   0.16665   0.38384   0.00000  Uiso   1.00
C105   C     0.85405   0.21089   0.09360   0.00000  Uiso   1.00
C106   C     0.81261   0.12244   0.40640   0.00000  Uiso   1.00
C107   C     0.85421   0.21136   0.04708   0.00000  Uiso   1.00
C108   C     0.81246   0.12198   0.45292   0.00000  Uiso   1.00
C109   C     0.83296   0.16648   0.02345   0.00000  Uiso   1.00
C110   C     0.83371   0.16686   0.47655   0.00000  Uiso   1.00
C111   C     0.81112   0.12127   0.04683   0.00000  Uiso   1.00
C112   C     0.81823   0.06854   0.25112   0.00000  Uiso   1.00
C113   C     0.85555   0.21207   0.45317   0.00000  Uiso   1.00
C114   C     0.87530   0.25600   0.02411   0.00000  Uiso   1.00
C115   C     0.79136   0.07734   0.47589   0.00000  Uiso   1.00
C116   C     0.89764   0.30416   0.45511   0.00000  Uiso   1.00
C117   C     0.76902   0.02917   0.04489   0.00000  Uiso   1.00
C118   C     0.67532   0.11613   0.20822   0.00000  Uiso   1.00
C119   C     0.99134   0.21721   0.29178   0.00000  Uiso   1.00
C120   C     0.87602   0.25683   0.47729   0.00000  Uiso   1.00
C121   C     0.79065   0.07651   0.02271   0.00000  Uiso   1.00
C122   C     0.85642   0.31929   0.24823   0.00000  Uiso   1.00
C123   C     0.81025   0.01405   0.25177   0.00000  Uiso   1.00
C124   C     0.83370   0.16679   0.33630   0.00000  Uiso   1.00
C125   C     0.83297   0.16654   0.16370   0.00000  Uiso   1.00
C126   C     0.81068   0.12232   0.09372   0.00000  Uiso   1.00
H127   H     0.79449   0.08879   0.11312   0.00000  Uiso   1.00
H128   H     0.87218   0.24454   0.38688   0.00000  Uiso   1.00
H129   H     0.87048   0.24480   0.11243   0.00000  Uiso   1.00
H130   H     0.79619   0.08853   0.38757   0.00000  Uiso   1.00
H131   H     0.89110   0.29031   0.04275   0.00000  Uiso   1.00
H132   H     0.77556   0.04303   0.45725   0.00000  Uiso   1.00
H133   H     0.90011   0.00276   0.24483   0.00000  Uiso   1.00
H134   H     0.76655   0.33057   0.25517   0.00000  Uiso   1.00
N135   N     0.98344   0.15265   0.23783   0.00000  Uiso   1.00
N136   N     0.68322   0.18068   0.26217   0.00000  Uiso   1.00
N137   N     0.91491   0.00874   0.43741   0.00000  Uiso   1.00
N138   N     0.75175   0.32459   0.06259   0.00000  Uiso   1.00
N139   N     0.69570   0.08540   0.18331   0.00000  Uiso   1.00
N140   N     0.97097   0.24793   0.31669   0.00000  Uiso   1.00
O141   O     0.79642   0.24619   0.25299   0.00000  Uiso   1.00
O142   O     0.87025   0.08714   0.24702   0.00000  Uiso   1.00
O143   O     0.89280   0.23721   0.24519   0.00000  Uiso   1.00
O144   O     0.77387   0.09613   0.25482   0.00000  Uiso   1.00
O145   O     0.78514   0.17117   0.31998   0.00000  Uiso   1.00
O146   O     0.88153   0.16216   0.18003   0.00000  Uiso   1.00
O147   O     0.88152   0.16219   0.31218   0.00000  Uiso   1.00
O148   O     0.78515   0.17115   0.18783   0.00000  Uiso   1.00
Zn149  Zn    0.76898   0.17266   0.25521   0.00000  Uiso   1.00
Zn150  Zn    0.89769   0.16067   0.24479   0.00000  Uiso   1.00
C151   C     0.18177   0.59813   0.24888   0.00000  Uiso   1.00
C152   C     0.18932   0.54434   0.40628   0.00000  Uiso   1.00
C153   C     0.16559   0.50002   0.11616   0.00000  Uiso   1.00
C154   C     0.16775   0.49998   0.38384   0.00000  Uiso   1.00
C155   C     0.18739   0.54422   0.09360   0.00000  Uiso   1.00
C156   C     0.14595   0.45578   0.40640   0.00000  Uiso   1.00
C157   C     0.18754   0.54469   0.04708   0.00000  Uiso   1.00
C158   C     0.14579   0.45531   0.45292   0.00000  Uiso   1.00
C159   C     0.16629   0.49981   0.02345   0.00000  Uiso   1.00
C160   C     0.16704   0.50019   0.47655   0.00000  Uiso   1.00
C161   C     0.14445   0.45460   0.04683   0.00000  Uiso   1.00
C162   C     0.15156   0.40187   0.25112   0.00000  Uiso   1.00
C163   C     0.18888   0.54540   0.45317   0.00000  Uiso   1.00
C164   C     0.20864   0.58933   0.02411   0.00000  Uiso   1.00
C165   C     0.12470   0.41067   0.47589   0.00000  Uiso   1.00
C166   C     0.23098   0.63750   0.45511   0.00000  Uiso   1.00
C167   C     0.10236   0.36250   0.04489   0.00000  Uiso   1.00
C168   C     0.00866   0.44946   0.20822   0.00000  Uiso   1.00
C169   C     0.32468   0.55054   0.29178   0.00000  Uiso   1.00
C170   C     0.20935   0.59016   0.47729   0.00000  Uiso   1.00
C171   C     0.12398   0.40984   0.02271   0.00000  Uiso   1.00
C172   C     0.18975   0.65262   0.24823   0.00000  Uiso   1.00
C173   C     0.14358   0.34738   0.25177   0.00000  Uiso   1.00
C174   C     0.16703   0.50013   0.33630   0.00000  Uiso   1.00
C175   C     0.16630   0.49987   0.16370   0.00000  Uiso   1.00
C176   C     0.14402   0.45566   0.09372   0.00000  Uiso   1.00
H177   H     0.12782   0.42213   0.11312   0.00000  Uiso   1.00
H178   H     0.20551   0.57787   0.38688   0.00000  Uiso   1.00
H179   H     0.20381   0.57813   0.11243   0.00000  Uiso   1.00
H180   H     0.12952   0.42187   0.38757   0.00000  Uiso   1.00
H181   H     0.22444   0.62364   0.04275   0.00000  Uiso   1.00
H182   H     0.10890   0.37636   0.45725   0.00000  Uiso   1.00
H183   H     0.23345   0.33610   0.24483   0.00000  Uiso   1.00
H184   H     0.09989   0.66390   0.25517   0.00000  Uiso   1.00
N185   N     0.31678   0.48598   0.23783   0.00000  Uiso   1.00
N186   N     0.01656   0.51402   0.26217   0.00000  Uiso   1.00
N187   N     0.24825   0.34207   0.43741   0.00000  Uiso   1.00
N188   N     0.08509   0.65793   0.06259   0.00000  Uiso   1.00
N189   N     0.02903   0.41874   0.18331   0.00000  Uiso   1.00
N190   N     0.30430   0.58126   0.31669   0.00000  Uiso   1.00
O191   O     0.12975   0.57952   0.25299   0.00000  Uiso   1.00
O192   O     0.20358   0.42048   0.24702   0.00000  Uiso   1.00
O193   O     0.22613   0.57054   0.24519   0.00000  Uiso   1.00
O194   O     0.10720   0.42946   0.25482   0.00000  Uiso   1.00
O195   O     0.11847   0.50450   0.31998   0.00000  Uiso   1.00
O196   O     0.21486   0.49550   0.18003   0.00000  Uiso   1.00
O197   O     0.21485   0.49552   0.31218   0.00000  Uiso   1.00
O198   O     0.11848   0.50448   0.18783   0.00000  Uiso   1.00
Zn199  Zn    0.10231   0.50600   0.25521   0.00000  Uiso   1.00
Zn200  Zn    0.23102   0.49400   0.24479   0.00000  Uiso   1.00
C201   C     0.51511   0.59813   0.24888   0.00000  Uiso   1.00
C202   C     0.52265   0.54434   0.40628   0.00000  Uiso   1.00
C203   C     0.49892   0.50002   0.11616   0.00000  Uiso   1.00
C204   C     0.50108   0.49998   0.38384   0.00000  Uiso   1.00
C205   C     0.52072   0.54422   0.09360   0.00000  Uiso   1.00
C206   C     0.47928   0.45578   0.40640   0.00000  Uiso   1.00
C207   C     0.52087   0.54469   0.04708   0.00000  Uiso   1.00
C208   C     0.47913   0.45531   0.45292   0.00000  Uiso   1.00
C209   C     0.49963   0.49981   0.02345   0.00000  Uiso   1.00
C210   C     0.50037   0.50019   0.47655   0.00000  Uiso   1.00
C211   C     0.47778   0.45460   0.04683   0.00000  Uiso   1.00
C212   C     0.48489   0.40187   0.25112   0.00000  Uiso   1.00
C213   C     0.52222   0.54540   0.45317   0.00000  Uiso   1.00
C214   C     0.54197   0.58933   0.02411   0.00000  Uiso   1.00
C215   C     0.45803   0.41067   0.47589   0.00000  Uiso   1.00
C216   C     0.56431   0.63750   0.45511   0.00000  Uiso   1.00
C217   C     0.43569   0.36250   0.04489   0.00000  Uiso   1.00
C218   C     0.34199   0.44946   0.20822   0.00000  Uiso   1.00
C219   C     0.65801   0.55054   0.29178   0.00000  Uiso   1.00
C220   C     0.54268   0.59016   0.47729   0.00000  Uiso   1.00
C221   C     0.45732   0.40984   0.02271   0.00000  Uiso   1.00
C222   C     0.52308   0.65262   0.24823   0.00000  Uiso   1.00
C223   C     0.47692   0.34738   0.25177   0.00000  Uiso   1.00
C224   C     0.50037   0.50013   0.33630   0.00000  Uiso   1.00
C225   C     0.49963   0.49987   0.16370   0.00000  Uiso   1.00
C226   C     0.47735   0.45566   0.09372   0.00000  Uiso   1.00
H227   H     0.46115   0.42213   0.11312   0.00000  Uiso   1.00
H228   H     0.53884   0.57787   0.38688   0.00000  Uiso   1.00
H229   H     0.53715   0.57813   0.11243   0.00000  Uiso   1.00
H230   H     0.46285   0.42187   0.38757   0.00000  Uiso   1.00
H231   H     0.55777   0.62364   0.04275   0.00000  Uiso   1.00
H232   H     0.44223   0.37636   0.45725   0.00000  Uiso   1.00
H233   H     0.56678   0.33610   0.24483   0.00000  Uiso   1.00
H234   H     0.43322   0.66390   0.25517   0.00000  Uiso   1.00
N235   N     0.65011   0.48598   0.23783   0.00000  Uiso   1.00
N236   N     0.34989   0.51402   0.26217   0.00000  Uiso   1.00
N237   N     0.58158   0.34207   0.43741   0.00000  Uiso   1.00
N238   N     0.41842   0.65793   0.06259   0.00000  Uiso   1.00
N239   N     0.36237   0.41874   0.18331   0.00000  Uiso   1.00
N240   N     0.63763   0.58126   0.31669   0.00000  Uiso   1.00
O241   O     0.46308   0.57952   0.25299   0.00000  Uiso   1.00
O242   O     0.53692   0.42048   0.24702   0.00000  Uiso   1.00
O243   O     0.55946   0.57054   0.24519   0.00000  Uiso   1.00
O244   O     0.44054   0.42946   0.25482   0.00000  Uiso   1.00
O245   O     0.45181   0.50450   0.31998   0.00000  Uiso   1.00
O246   O     0.54819   0.49550   0.18003   0.00000  Uiso   1.00
O247   O     0.54819   0.49552   0.31218   0.00000  Uiso   1.00
O248   O     0.45181   0.50448   0.18783   0.00000  Uiso   1.00
Zn249  Zn    0.43565   0.50600   0.25521   0.00000  Uiso   1.00
Zn250  Zn    0.56435   0.49400   0.24479   0.00000  Uiso   1.00
C251   C     0.84844   0.59813   0.24888   0.00000  Uiso   1.00
C252   C     0.85598   0.54434   0.40628   0.00000  Uiso   1.00
C253   C     0.83225   0.50002   0.11616   0.00000  Uiso   1.00
C254   C     0.83441   0.49998   0.38384   0.00000  Uiso   1.00
C255   C     0.85405   0.54422   0.09360   0.00000  Uiso   1.00
C256   C     0.81261   0.45578   0.40640   0.00000  Uiso   1.00
C257   C     0.85421   0.54469   0.04708   0.00000  Uiso   1.00
C258   C     0.81246   0.45531   0.45292   0.00000  Uiso   1.00
C259   C     0.83296   0.49981   0.02345   0.00000  Uiso   1.00
C260   C     0.83371   0.50019   0.47655   0.00000  Uiso   1.00
C261   C     0.81112   0.45460   0.04683   0.00000  Uiso   1.00
C262   C     0.81823   0.40187   0.25112   0.00000  Uiso   1.00
C263   C     0.85555   0.54540   0.45317   0.00000  Uiso   1.00
C264   C     0.87530   0.58933   0.02411   0.00000  Uiso   1.00
C265   C     0.79136   0.41067   0.47589   0.00000  Uiso   1.00
C266   C     0.89764   0.63750   0.45511   0.00000  Uiso   1.00
C267   C     0.76902   0.36250   0.04489   0.00000  Uiso   1.00
C268   C     0.67532   0.44946   0.20822   0.00000  Uiso   1.00
C269   C     0.99134   0.55054   0.29178   0.00000  Uiso   1.00
C270   C     0.87602   0.59016   0.47729   0.00000  Uiso   1.00
C271   C     0.79065   0.40984   0.02271   0.00000  Uiso   1.00
C272   C     0.85642   0.65262   0.24823   0.00000  Uiso   1.00
C273   C     0.81025   0.34738   0.25177   0.00000  Uiso   1.00
C274   C     0.83370   0.50013   0.33630   0.00000  Uiso   1.00
C275   C     0.83297   0.49987   0.16370   0.00000  Uiso   1.00
C276   C     0.81068   0.45566   0.09372   0.00000  Uiso   1.00
H277   H     0.79449   0.42213   0.11312   0.00000  Uiso   1.00
H278   H     0.87218   0.57787   0.38688   0.00000  Uiso   1.00
H279   H     0.87048   0.57813   0.11243   0.00000  Uiso   1.00
H280   H     0.79619   0.42187   0.38757   0.00000  Uiso   1.00
H281   H     0.89110   0.62364   0.04275   0.00000  Uiso   1.00
H282   H     0.77556   0.37636   0.45725   0.00000  Uiso   1.00
H283   H     0.90011   0.33610   0.24483   0.00000  Uiso   1.00
H284   H     0.76655   0.66390   0.25517   0.00000  Uiso   1.00
N285   N     0.98344   0.48598   0.23783   0.00000  Uiso   1.00
N286   N     0.68322   0.51402   0.26217   0.00000  Uiso   1.00
N287   N     0.91491   0.34207   0.43741   0.00000  Uiso   1.00
N288   N     0.75175   0.65793   0.06259   0.00000  Uiso   1.00
N289   N     0.69570   0.41874   0.18331   0.00000  Uiso   1.00
N290   N     0.97097   0.58126   0.31669   0.00000  Uiso   1.00
O291   O     0.79642   0.57952   0.25299   0.00000  Uiso   1.00
O292   O     0.87025   0.42048   0.24702   0.00000  Uiso   1.00
O293   O     0.89280   0.57054   0.24519   0.00000  Uiso   1.00
O294   O     0.77387   0.42946   0.25482   0.00000  Uiso   1.00
O295   O     0.78514   0.50450   0.31998   0.00000  Uiso   1.00
O296   O     0.88153   0.49550   0.18003   0.00000  Uiso   1.00
O297   O     0.88152   0.49552   0.31218   0.00000  Uiso   1.00
O298   O     0.78515   0.50448   0.18783   0.00000  Uiso   1.00
Zn299  Zn    0.76898   0.50600   0.25521   0.00000  Uiso   1.00
Zn300  Zn    0.89769   0.49400   0.24479   0.00000  Uiso   1.00
C301   C     0.18177   0.93146   0.24888   0.00000  Uiso   1.00
C302   C     0.18932   0.87768   0.40628   0.00000  Uiso   1.00
C303   C     0.16559   0.83335   0.11616   0.00000  Uiso   1.00
C304   C     0.16775   0.83331   0.38384   0.00000  Uiso   1.00
C305   C     0.18739   0.87756   0.09360   0.00000  Uiso   1.00
C306   C     0.14595   0.78911   0.40640   0.00000  Uiso   1.00
C307   C     0.18754   0.87802   0.04708   0.00000  Uiso   1.00
C308   C     0.14579   0.78864   0.45292   0.00000  Uiso   1.00
C309   C     0.16629   0.83314   0.02345   0.00000  Uiso   1.00
C310   C     0.16704   0.83352   0.47655   0.00000  Uiso   1.00
C311   C     0.14445   0.78793   0.04683   0.00000  Uiso   1.00
C312   C     0.15156   0.73521   0.25112   0.00000  Uiso   1.00
C313   C     0.18888   0.87874   0.45317   0.00000  Uiso   1.00
C314   C     0.20864   0.92266   0.02411   0.00000  Uiso   1.00
C315   C     0.12470   0.74400   0.47589   0.00000  Uiso   1.00
C316   C     0.23098   0.97083   0.45511   0.00000  Uiso   1.00
C317   C     0.10236   0.69584   0.04489   0.00000  Uiso   1.00
C318   C     0.00866   0.78279   0.20822   0.00000  Uiso   1.00
C319   C     0.32468   0.88387   0.29178   0.00000  Uiso   1.00
C320   C     0.20935   0.92349   0.47729   0.00000  Uiso   1.00
C321   C     0.12398   0.74317   0.02271   0.00000  Uiso   1.00
C322   C     0.18975   0.98595   0.24823   0.00000  Uiso   1.00
C323   C     0.14358   0.68071   0.25177   0.00000  Uiso   1.00
C324   C     0.16703   0.83346   0.33630   0.00000  Uiso   1.00
C325   C     0.16630   0.83321   0.16370   0.00000  Uiso   1.00
C326   C     0.14402   0.78899   0.09372   0.00000  Uiso   1.00
H327   H     0.12782   0.75546   0.11312   0.00000  Uiso   1.00
H328   H     0.20551   0.91121   0.38688   0.00000  Uiso   1.00
H329   H     0.20381   0.91147   0.11243   0.00000  Uiso   1.00
H330   H     0.12952   0.75520   0.38757   0.00000  Uiso   1.00
H331   H     0.22444   0.95697   0.04275   0.00000  Uiso   1.00
H332   H     0.10890   0.70969   0.45725   0.00000  Uiso   1.00
H333   H     0.23345   0.66943   0.24483   0.00000  Uiso   1.00
H334   H     0.09989   0.99724   0.25517   0.00000  Uiso   1.00
N335   N     0.31678   0.81932   0.23783   0.00000  Uiso   1.00
N336   N     0.01656   0.84735   0.26217   0.00000  Uiso   1.00
N337   N     0.24825   0.67541   0.43741   0.00000  Uiso   1.00
N338   N     0.08509   0.99126   0.06259   0.00000  Uiso   1.00
N339   N     0.02903   0.75207   0.18331   0.00000  Uiso   1.00
N340   N     0.30430   0.91460   0.31669   0.00000  Uiso   1.00
O341   O     0.12975   0.91286   0.25299   0.00000  Uiso   1.00
O342   O     0.20358   0.75381   0.24702   0.00000  Uiso   1.00
O343   O     0.22613   0.90387   0.24519   0.00000  Uiso   1.00
O344   O     0.10720   0.76279   0.25482   0.00000  Uiso   1.00
O345   O     0.11847   0.83784   0.31998   0.00000  Uiso   1.00
O346   O     0.21486   0.82883   0.18003   0.00000  Uiso   1.00
O347   O     0.21485   0.82885   0.31218   0.00000  Uiso   1.00
O348   O     0.11848   0.83781   0.18783   0.00000  Uiso   1.00
Zn349  Zn    0.10231   0.83933   0.25521   0.00000  Uiso   1.00
Zn350  Zn    0.23102   0.82734   0.24479   0.00000  Uiso   1.00
C351   C     0.51511   0.93146   0.24888   0.00000  Uiso   1.00
C352   C     0.52265   0.87768   0.40628   0.00000  Uiso   1.00
C353   C     0.49892   0.83335   0.11616   0.00000  Uiso   1.00
C354   C     0.50108   0.83331   0.38384   0.00000  Uiso   1.00
C355   C     0.52072   0.87756   0.09360   0.00000  Uiso   1.00
C356   C     0.47928   0.78911   0.40640   0.00000  Uiso   1.00
C357   C     0.52087   0.87802   0.04708   0.00000  Uiso   1.00
C358   C     0.47913   0.78864   0.45292   0.00000  Uiso   1.00
C359   C     0.49963   0.83314   0.02345   0.00000  Uiso   1.00
C360   C     0.50037   0.83352   0.47655   0.00000  Uiso   1.00
C361   C     0.47778   0.78793   0.04683   0.00000  Uiso   1.00
C362   C     0.48489   0.73521   0.25112   0.00000  Uiso   1.00
C363   C     0.52222   0.87874   0.45317   0.00000  Uiso   1.00
C364   C     0.54197   0.92266   0.02411   0.00000  Uiso   1.00
C365   C     0.45803   0.74400   0.47589   0.00000  Uiso   1.00
C366   C     0.56431   0.97083   0.45511   0.00000  Uiso   1.00
C367   C     0.43569   0.69584   0.04489   0.00000  Uiso   1.00
C368   C     0.34199   0.78279   0.20822   0.00000  Uiso   1.00
C369   C     0.65801   0.88387   0.29178   0.00000  Uiso   1.00
C370   C     0.54268   0.92349   0.47729   0.00000  Uiso   1.00
C371   C     0.45732   0.74317   0.02271   0.00000  Uiso   1.00
C372   C     0.52308   0.98595   0.24823   0.00000  Uiso   1.00
C373   C     0.47692   0.68071   0.25177   0.00000  Uiso   1.00
C374   C     0.50037   0.83346   0.33630   0.00000  Uiso   1.00
C375   C     0.49963   0.83321   0.16370   0.00000  Uiso   1.00
C376   C     0.47735   0.78899   0.09372   0.00000  Uiso   1.00
H377   H     0.46115   0.75546   0.11312   0.00000  Uiso   1.00
H378   H     0.53884   0.91121   0.38688   0.00000  Uiso   1.00
H379   H     0.53715   0.91147   0.11243   0.00000  Uiso   1.00
H380   H     0.46285   0.75520   0.38757   0.00000  Uiso   1.00
H381   H     0.55777   0.95697   0.04275   0.00000  Uiso   1.00
H382   H     0.44223   0.70969   0.45725   0.00000  Uiso   1.00
H383   H     0.56678   0.66943   0.24483   0.00000  Uiso   1.00
H384   H     0.43322   0.99724   0.25517   0.00000  Uiso   1.00
N385   N     0.65011   0.81932   0.23783   0.00000  Uiso   1.00
N386   N     0.34989   0.84735   0.26217   0.00000  Uiso   1.00
N387   N     0.58158   0.67541   0.43741   0.00000  Uiso   1.00
N388   N     0.41842   0.99126   0.06259   0.00000  Uiso   1.00
N389   N     0.36237   0.75207   0.18331   0.00000  Uiso   1.00
N390   N     0.63763   0.91460   0.31669   0.00000  Uiso   1.00
O391   O     0.46308   0.91286   0.25299   0.00000  Uiso   1.00
O392   O     0.53692   0.75381   0.24702   0.00000  Uiso   1.00
O393   O     0.55946   0.90387   0.24519   0.00000  Uiso   1.00
O394   O     0.44054   0.76279   0.25482   0.00000  Uiso   1.00
O395   O     0.45181   0.83784   0.31998   0.00000  Uiso   1.00
O396   O     0.54819   0.82883   0.18003   0.00000  Uiso   1.00
O397   O     0.54819   0.82885   0.31218   0.00000  Uiso   1.00
O398   O     0.45181   0.83781   0.18783   0.00000  Uiso   1.00
Zn399  Zn    0.43565   0.83933   0.25521   0.00000  Uiso   1.00
Zn400  Zn    0.56435   0.82734   0.24479   0.00000  Uiso   1.00
C401   C     0.84844   0.93146   0.24888   0.00000  Uiso   1.00
C402   C     0.85598   0.87768   0.40628   0.00000  Uiso   1.00
C403   C     0.83225   0.83335   0.11616   0.00000  Uiso   1.00
C404   C     0.83441   0.83331   0.38384   0.00000  Uiso   1.00
C405   C     0.85405   0.87756   0.09360   0.00000  Uiso   1.00
C406   C     0.81261   0.78911   0.40640   0.00000  Uiso   1.00
C407   C     0.85421   0.87802   0.04708   0.00000  Uiso   1.00
C408   C     0.81246   0.78864   0.45292   0.00000  Uiso   1.00
C409   C     0.83296   0.83314   0.02345   0.00000  Uiso   1.00
C410   C     0.83371   0.83352   0.47655   0.00000  Uiso   1.00
C411   C     0.81112   0.78793   0.04683   0.00000  Uiso   1.00
C412   C     0.81823   0.73521   0.25112   0.00000  Uiso   1.00
C413   C     0.85555   0.87874   0.45317   0.00000  Uiso   1.00
C414   C     0.87530   0.92266   0.02411   0.00000  Uiso   1.00
C415   C     0.79136   0.74400   0.47589   0.00000  Uiso   1.00
C416   C     0.89764   0.97083   0.45511   0.00000  Uiso   1.00
C417   C     0.76902   0.69584   0.04489   0.00000  Uiso   1.00
C418   C     0.67532   0.78279   0.20822   0.00000  Uiso   1.00
C419   C     0.99134   0.88387   0.29178   0.00000  Uiso   1.00
C420   C     0.87602   0.92349   0.47729   0.00000  Uiso   1.00
C421   C     0.79065   0.74317   0.02271   0.00000  Uiso   1.00
C422   C     0.85642   0.98595   0.24823   0.00000  Uiso   1.00
C423   C     0.81025   0.68071   0.25177   0.00000  Uiso   1.00
C424   C     0.83370   0.83346   0.33630   0.00000  Uiso   1.00
C425   C     0.83297   0.83321   0.16370   0.00000  Uiso   1.00
C426   C     0.81068   0.78899   0.09372   0.00000  Uiso   1.00
H427   H     0.79449   0.75546   0.11312   0.00000  Uiso   1.00
H428   H     0.87218   0.91121   0.38688   0.00000  Uiso   1.00
H429   H     0.87048   0.91147   0.11243   0.00000  Uiso   1.00
H430   H     0.79619   0.75520   0.38757   0.00000  Uiso   1.00
H431   H     0.89110   0.95697   0.04275   0.00000  Uiso   1.00
H432   H     0.77556   0.70969   0.45725   0.00000  Uiso   1.00
H433   H     0.90011   0.66943   0.24483   0.00000  Uiso   1.00
H434   H     0.76655   0.99724   0.25517   0.00000  Uiso   1.00
N435   N     0.98344   0.81932   0.23783   0.00000  Uiso   1.00
N436   N     0.68322   0.84735   0.26217   0.00000  Uiso   1.00
N437   N     0.91491   0.67541   0.43741   0.00000  Uiso   1.00
N438   N     0.75175   0.99126   0.06259   0.00000  Uiso   1.00
N439   N     0.69570   0.75207   0.18331   0.00000  Uiso   1.00
N440   N     0.97097   0.91460   0.31669   0.00000  Uiso   1.00
O441   O     0.79642   0.91286   0.25299   0.00000  Uiso   1.00
O442   O     0.87025   0.75381   0.24702   0.00000  Uiso   1.00
O443   O     0.89280   0.90387   0.24519   0.00000  Uiso   1.00
O444   O     0.77387   0.76279   0.25482   0.00000  Uiso   1.00
O445   O     0.78514   0.83784   0.31998   0.00000  Uiso   1.00
O446   O     0.88153   0.82883   0.18003   0.00000  Uiso   1.00
O447   O     0.88152   0.82885   0.31218   0.00000  Uiso   1.00
O448   O     0.78515   0.83781   0.18783   0.00000  Uiso   1.00
Zn449  Zn    0.76898   0.83933   0.25521   0.00000  Uiso   1.00
Zn450  Zn    0.89769   0.82734   0.24479   0.00000  Uiso   1.00
C451   C     0.18177   0.26479   0.74888   0.00000  Uiso   1.00
C452   C     0.18932   0.21101   0.90628   0.00000  Uiso   1.00
C453   C     0.16559   0.16669   0.61616   0.00000  Uiso   1.00
C454   C     0.16775   0.16665   0.88384   0.00000  Uiso   1.00
C455   C     0.18739   0.21089   0.59360   0.00000  Uiso   1.00
C456   C     0.14595   0.12244   0.90640   0.00000  Uiso   1.00
C457   C     0.18754   0.21136   0.54708   0.00000  Uiso   1.00
C458   C     0.14579   0.12198   0.95292   0.00000  Uiso   1.00
C459   C     0.16629   0.16648   0.52345   0.00000  Uiso   1.00
C460   C     0.16704   0.16686   0.97655   0.00000  Uiso   1.00
C461   C     0.14445   0.12127   0.54683   0.00000  Uiso   1.00
C462   C     0.15156   0.06854   0.75112   0.00000  Uiso   1.00
C463   C     0.18888   0.21207   0.95317   0.00000  Uiso   1.00
C464   C     0.20864   0.25600   0.52411   0.00000  Uiso   1.00
C465   C     0.12470   0.07734   0.97589   0.00000  Uiso   1.00
C466   C     0.23098   0.30416   0.95511   0.00000  Uiso   1.00
C467   C     0.10236   0.02917   0.54489   0.00000  Uiso   1.00
C468   C     0.00866   0.11613   0.70822   0.00000  Uiso   1.00
C469   C     0.32468   0.21721   0.79178   0.00000  Uiso   1.00
C470   C     0.20935   0.25683   0.97729   0.00000  Uiso   1.00
C471   C     0.12398   0.07651   0.52271   0.00000  Uiso   1.00
C472   C     0.18975   0.31929   0.74823   0.00000  Uiso   1.00
C473   C     0.14358   0.01405   0.75177   0.00000  Uiso   1.00
C474   C     0.16703   0.16679   0.83630   0.00000  Uiso   1.00
C475   C     0.16630   0.16654   0.66370   0.00000  Uiso   1.00
C476   C     0.14402   0.12232   0.59372   0.00000  Uiso   1.00
H477   H     0.12782   0.08879   0.61312   0.00000  Uiso   1.00
H478   H     0.20551   0.24454   0.88688   0.00000  Uiso   1.00
H479   H     0.20381   0.24480   0.61243   0.00000  Uiso   1.00
H480   H     0.12952   0.08853   0.88757   0.00000  Uiso   1.00
H481   H     0.22444   0.29031   0.54275   0.00000  Uiso   1.00
H482   H     0.10890   0.04303   0.95725   0.00000  Uiso   1.00
H483   H     0.23345   0.00276   0.74483   0.00000  Uiso   1.00
H484   H     0.09989   0.33057   0.75517   0.00000  Uiso   1.00
N485   N     0.31678   0.15265   0.73783   0.00000  Uiso   1.00
N486   N     0.01656   0.18068   0.76217   0.00000  Uiso   1.00
N487   N     0.24825   0.00874   0.93741   0.00000  Uiso   1.00
N488   N     0.08509   0.32459   0.56259   0.00000  Uiso   1.00
N489   N     0.02903   0.08540   0.68331   0.00000  Uiso   1.00
N490   N     0.30430   0.24793   0.81669   0.00000  Uiso   1.00
O491   O     0.12975   0.24619   0.75299   0.00000  Uiso   1.00
O492   O     0.20358   0.08714   0.74702   0.00000  Uiso   1.00
O493   O     0.22613   0.23721   0.74519   0.00000  Uiso   1.00
O494   O     0.10720   0.09613   0.75482   0.00000  Uiso   1.00
O495   O     0.11847   0.17117   0.81998   0.00000  Uiso   1.00
O496   O     0.21486   0.16216   0.68003   0.00000  Uiso   1.00
O497   O     0.21485   0.16219   0.81218   0.00000  Uiso   1.00
O498   O     0.11848   0.17115   0.68783   0.00000  Uiso   1.00
Zn499  Zn    0.10231   0.17266   0.75521   0.00000  Uiso   1.00
Zn500  Zn    0.23102   0.16067   0.74479   0.00000  Uiso   1.00
C501   C     0.51511   0.26479   0.74888   0.00000  Uiso   1.00
C502   C     0.52265   0.21101   0.90628   0.00000  Uiso   1.00
C503   C     0.49892   0.16669   0.61616   0.00000  Uiso   1.00
C504   C     0.50108   0.16665   0.88384   0.00000  Uiso   1.00
C505   C     0.52072   0.21089   0.59360   0.00000  Uiso   1.00
C506   C     0.47928   0.12244   0.90640   0.00000  Uiso   1.00
C507   C     0.52087   0.21136   0.54708   0.00000  Uiso   1.00
C508   C     0.47913   0.12198   0.95292   0.00000  Uiso   1.00
C509   C     0.49963   0.16648   0.52345   0.00000  Uiso   1.00
C510   C     0.50037   0.16686   0.97655   0.00000  Uiso   1.00
C511   C     0.47778   0.12127   0.54683   0.00000  Uiso   1.00
C512   C     0.48489   0.06854   0.75112   0.00000  Uiso   1.00
C513   C     0.52222   0.21207   0.95317   0.00000  Uiso   1.00
C514   C     0.54197   0.25600   0.52411   0.00000  Uiso   1.00
C515   C     0.45803   0.07734   0.97589   0.00000  Uiso   1.00
C516   C     0.56431   0.30416   0.95511   0.00000  Uiso   1.00
C517   C     0.43569   0.02917   0.54489   0.00000  Uiso   1.00
C518   C     0.34199   0.11613   0.70822   0.00000  Uiso   1.00
C519   C     0.65801   0.21721   0.79178   0.00000  Uiso   1.00
C520   C     0.54268   0.25683   0.97729   0.00000  Uiso   1.00
C521   C     0.45732   0.07651   0.52271   0.00000  Uiso   1.00
C522   C     0.52308   0.31929   0.74823   0.00000  Uiso   1.00
C523   C     0.47692   0.01405   0.75177   0.00000  Uiso   1.00
C524   C     0.50037   0.16679   0.83630   0.00000  Uiso   1.00
C525   C     0.49963   0.16654   0.66370   0.00000  Uiso   1.00
C526   C     0.47735   0.12232   0.59372   0.00000  Uiso   1.00
H527   H     0.46115   0.08879   0.61312   0.00000  Uiso   1.00
H528   H     0.53884   0.24454   0.88688   0.00000  Uiso   1.00
H529   H     0.53715   0.24480   0.61243   0.00000  Uiso   1.00
H530   H     0.46285   0.08853   0.88757   0.00000  Uiso   1.00
H531   H     0.55777   0.29031   0.54275   0.00000  Uiso   1.00
H532   H     0.44223   0.04303   0.95725   0.00000  Uiso   1.00
H533   H     0.56678   0.00276   0.74483   0.00000  Uiso   1.00
H534   H     0.43322   0.33057   0.75517   0.00000  Uiso   1.00
N535   N     0.65011   0.15265   0.73783   0.00000  Uiso   1.00
N536   N     0.34989   0.18068   0.76217   0.00000  Uiso   1.00
N537   N     0.58158   0.00874   0.93741   0.00000  Uiso   1.00
N538   N     0.41842   0.32459   0.56259   0.00000  Uiso   1.00
N539   N     0.36237   0.08540   0.68331   0.00000  Uiso   1.00
N540   N     0.63763   0.24793   0.81669   0.00000  Uiso   1.00
O541   O     0.46308   0.24619   0.75299   0.00000  Uiso   1.00
O542   O     0.53692   0.08714   0.74702   0.00000  Uiso   1.00
O543   O     0.55946   0.23721   0.74519   0.00000  Uiso   1.00
O544   O     0.44054   0.09613   0.75482   0.00000  Uiso   1.00
O545   O     0.45181   0.17117   0.81998   0.00000  Uiso   1.00
O546   O     0.54819   0.16216   0.68003   0.00000  Uiso   1.00
O547   O     0.54819   0.16219   0.81218   0.00000  Uiso   1.00
O548   O     0.45181   0.17115   0.68783   0.00000  Uiso   1.00
Zn549  Zn    0.43565   0.17266   0.75521   0.00000  Uiso   1.00
Zn550  Zn    0.56435   0.16067   0.74479   0.00000  Uiso   1.00
C551   C     0.84844   0.26479   0.74888   0.00000  Uiso   1.00
C552   C     0.85598   0.21101   0.90628   0.00000  Uiso   1.00
C553   C     0.83225   0.16669   0.61616   0.00000  Uiso   1.00
C554   C     0.83441   0.16665   0.88384   0.00000  Uiso   1.00
C555   C     0.85405   0.21089   0.59360   0.00000  Uiso   1.00
C556   C     0.81261   0.12244   0.90640   0.00000  Uiso   1.00
C557   C     0.85421   0.21136   0.54708   0.00000  Uiso   1.00
C558   C     0.81246   0.12198   0.95292   0.00000  Uiso   1.00
C559   C     0.83296   0.16648   0.52345   0.00000  Uiso   1.00
C560   C     0.83371   0.16686   0.97655   0.00000  Uiso   1.00
C561   C     0.81112   0.12127   0.54683   0.00000  Uiso   1.00
C562   C     0.81823   0.06854   0.75112   0.00000  Uiso   1.00
C563   C     0.85555   0.21207   0.95317   0.00000  Uiso   1.00
C564   C     0.87530   0.25600   0.52411   0.00000  Uiso   1.00
C565   C     0.79136   0.07734   0.97589   0.00000  Uiso   1.00
C566   C     0.89764   0.30416   0.95511   0.00000  Uiso   1.00
C567   C     0.76902   0.02917   0.54489   0.00000  Uiso   1.00
C568   C     0.67532   0.11613   0.70822   0.00000  Uiso   1.00
C569   C     0.99134   0.21721   0.79178   0.00000  Uiso   1.00
C570   C     0.87602   0.25683   0.97729   0.00000  Uiso   1.00
C571   C     0.79065   0.07651   0.52271   0.00000  Uiso   1.00
C572   C     0.85642   0.31929   0.74823   0.00000  Uiso   1.00
C573   C     0.81025   0.01405   0.75177   0.00000  Uiso   1.00
C574   C     0.83370   0.16679   0.83630   0.00000  Uiso   1.00
C575   C     0.83297   0.16654   0.66370   0.00000  Uiso   1.00
C576   C     0.81068   0.12232   0.59372   0.00000  Uiso   1.00
H577   H     0.79449   0.08879   0.61312   0.00000  Uiso   1.00
H578   H     0.87218   0.24454   0.88688   0.00000  Uiso   1.00
H579   H     0.87048   0.24480   0.61243   0.00000  Uiso   1.00
H580   H     0.79619   0.08853   0.88757   0.00000  Uiso   1.00
H581   H     0.89110   0.29031   0.54275   0.00000  Uiso   1.00
H582   H     0.77556   0.04303   0.95725   0.00000  Uiso   1.00
H583   H     0.90011   0.00276   0.74483   0.00000  Uiso   1.00
H584   H     0.76655   0.33057   0.75517   0.00000  Uiso   1.00
N585   N     0.98344   0.15265   0.73783   0.00000  Uiso   1.00
N586   N     0.68322   0.18068   0.76217   0.00000  Uiso   1.00
N587   N     0.91491   0.00874   0.93741   0.00000  Uiso   1.00
N588   N     0.75175   0.32459   0.56259   0.00000  Uiso   1.00
N589   N     0.69570   0.08540   0.68331   0.00000  Uiso   1.00
N590   N     0.97097   0.24793   0.81669   0.00000  Uiso   1.00
O591   O     0.79642   0.24619   0.75299   0.00000  Uiso   1.00
O592   O     0.87025   0.08714   0.74702   0.00000  Uiso   1.00
O593   O     0.89280   0.23721   0.74519   0.00000  Uiso   1.00
O594   O     0.77387   0.09613   0.75482   0.00000  Uiso   1.00
O595   O     0.78514   0.17117   0.81998   0.00000  Uiso   1.00
O596   O     0.88153   0.16216   0.68003   0.00000  Uiso   1.00
O597   O     0.88152   0.16219   0.81218   0.00000  Uiso   1.00
O598   O     0.78515   0.17115   0.68783   0.00000  Uiso   1.00
Zn599  Zn    0.76898   0.17266   0.75521   0.00000  Uiso   1.00
Zn600  Zn    0.89769   0.16067   0.74479   0.00000  Uiso   1.00
C601   C     0.18177   0.59813   0.74888   0.00000  Uiso   1.00
C602   C     0.18932   0.54434   0.90628   0.00000  Uiso   1.00
C603   C     0.16559   0.50002   0.61616   0.00000  Uiso   1.00
C604   C     0.16775   0.49998   0.88384   0.00000  Uiso   1.00
C605   C     0.18739   0.54422   0.59360   0.00000  Uiso   1.00
C606   C     0.14595   0.45578   0.90640   0.00000  Uiso   1.00
C607   C     0.18754   0.54469   0.54708   0.00000  Uiso   1.00
C608   C     0.14579   0.45531   0.95292   0.00000  Uiso   1.00
C609   C     0.16629   0.49981   0.52345   0.00000  Uiso   1.00
C610   C     0.16704   0.50019   0.97655   0.00000  Uiso   1.00
C611   C     0.14445   0.45460   0.54683   0.00000  Uiso   1.00
C612   C     0.15156   0.40187   0.75112   0.00000  Uiso   1.00
C613   C     0.18888   0.54540   0.95317   0.00000  Uiso   1.00
C614   C     0.20864   0.58933   0.52411   0.00000  Uiso   1.00
C615   C     0.12470   0.41067   0.97589   0.00000  Uiso   1.00
C616   C     0.23098   0.63750   0.95511   0.00000  Uiso   1.00
C617   C     0.10236   0.36250   0.54489   0.00000  Uiso   1.00
C618   C     0.00866   0.44946   0.70822   0.00000  Uiso   1.00
C619   C     0.32468   0.55054   0.79178   0.00000  Uiso   1.00
C620   C     0.20935   0.59016   0.97729   0.00000  Uiso   1.00
C621   C     0.12398   0.40984   0.52271   0.00000  Uiso   1.00
C622   C     0.18975   0.65262   0.74823   0.00000  Uiso   1.00
C623   C     0.14358   0.34738   0.75177   0.00000  Uiso   1.00
C624   C     0.16703   0.50013   0.83630   0.00000  Uiso   1.00
C625   C     0.16630   0.49987   0.66370   0.00000  Uiso   1.00
C626   C     0.14402   0.45566   0.59372   0.00000  Uiso   1.00
H627   H     0.12782   0.42213   0.61312   0.00000  Uiso   1.00
H628   H     0.20551   0.57787   0.88688   0.00000  Uiso   1.00
H629   H     0.20381   0.57813   0.61243   0.00000  Uiso   1.00
H630   H     0.12952   0.42187   0.88757   0.00000  Uiso   1.00
H631   H     0.22444   0.62364   0.54275   0.00000  Uiso   1.00
H632   H     0.10890   0.37636   0.95725   0.00000  Uiso   1.00
H633   H     0.23345   0.33610   0.74483   0.00000  Uiso   1.00
H634   H     0.09989   0.66390   0.75517   0.00000  Uiso   1.00
N635   N     0.31678   0.48598   0.73783   0.00000  Uiso   1.00
N636   N     0.01656   0.51402   0.76217   0.00000  Uiso   1.00
N637   N     0.24825   0.34207   0.93741   0.00000  Uiso   1.00
N638   N     0.08509   0.65793   0.56259   0.00000  Uiso   1.00
N639   N     0.02903   0.41874   0.68331   0.00000  Uiso   1.00
N640   N     0.30430   0.58126   0.81669   0.00000  Uiso   1.00
O641   O     0.12975   0.57952   0.75299   0.00000  Uiso   1.00
O642   O     0.20358   0.42048   0.74702   0.00000  Uiso   1.00
O643   O     0.22613   0.57054   0.74519   0.00000  Uiso   1.00
O644   O     0.10720   0.42946   0.75482   0.00000  Uiso   1.00
O645   O     0.11847   0.50450   0.81998   0.00000  Uiso   1.00
O646   O     0.21486   0.49550   0.68003   0.00000  Uiso   1.00
O647   O     0.21485   0.49552   0.81218   0.00000  Uiso   1.00
O648   O     0.11848   0.50448   0.68783   0.00000  Uiso   1.00
Zn649  Zn    0.10231   0.50600   0.75521   0.00000  Uiso   1.00
Zn650  Zn    0.23102   0.49400   0.74479   0.00000  Uiso   1.00
C651   C     0.51511   0.59813   0.74888   0.00000  Uiso   1.00
C652   C     0.52265   0.54434   0.90628   0.00000  Uiso   1.00
C653   C     0.49892   0.50002   0.61616   0.00000  Uiso   1.00
C654   C     0.50108   0.49998   0.88384   0.00000  Uiso   1.00
C655   C     0.52072   0.54422   0.59360   0.00000  Uiso   1.00
C656   C     0.47928   0.45578   0.90640   0.00000  Uiso   1.00
C657   C     0.52087   0.54469   0.54708   0.00000  Uiso   1.00
C658   C     0.47913   0.45531   0.95292   0.00000  Uiso   1.00
C659   C     0.49963   0.49981   0.52345   0.00000  Uiso   1.00
C660   C     0.50037   0.50019   0.97655   0.00000  Uiso   1.00
C661   C     0.47778   0.45460   0.54683   0.00000  Uiso   1.00
C662   C     0.48489   0.40187   0.75112   0.00000  Uiso   1.00
C663   C     0.52222   0.54540   0.95317   0.00000  Uiso   1.00
C664   C     0.54197   0.58933   0.52411   0.00000  Uiso   1.00
C665   C     0.45803   0.41067   0.97589   0.00000  Uiso   1.00
C666   C     0.56431   0.63750   0.95511   0.00000  Uiso   1.00
C667   C     0.43569   0.36250   0.54489   0.00000  Uiso   1.00
C668   C     0.34199   0.44946   0.70822   0.00000  Uiso   1.00
C669   C     0.65801   0.55054   0.79178   0.00000  Uiso   1.00
C670   C     0.54268   0.59016   0.97729   0.00000  Uiso   1.00
C671   C     0.45732   0.40984   0.52271   0.00000  Uiso   1.00
C672   C     0.52308   0.65262   0.74823   0.00000  Uiso   1.00
C673   C     0.47692   0.34738   0.75177   0.00000  Uiso   1.00
C674   C     0.50037   0.50013   0.83630   0.00000  Uiso   1.00
C675   C     0.49963   0.49987   0.66370   0.00000  Uiso   1.00
C676   C     0.47735   0.45566   0.59372   0.00000  Uiso   1.00
H677   H     0.46115   0.42213   0.61312   0.00000  Uiso   1.00
H678   H     0.53884   0.57787   0.88688   0.00000  Uiso   1.00
H679   H     0.53715   0.57813   0.61243   0.00000  Uiso   1.00
H680   H     0.46285   0.42187   0.88757   0.00000  Uiso   1.00
H681   H     0.55777   0.62364   0.54275   0.00000  Uiso   1.00
H682   H     0.44223   0.37636   0.95725   0.00000  Uiso   1.00
H683   H     0.56678   0.33610   0.74483   0.00000  Uiso   1.00
H684   H     0.43322   0.66390   0.75517   0.00000  Uiso   1.00
N685   N     0.65011   0.48598   0.73783   0.00000  Uiso   1.00
N686   N     0.34989   0.51402   0.76217   0.00000  Uiso   1.00
N687   N     0.58158   0.34207   0.93741   0.00000  Uiso   1.00
N688   N     0.41842   0.65793   0.56259   0.00000  Uiso   1.00
N689   N     0.36237   0.41874   0.68331   0.00000  Uiso   1.00
N690   N     0.63763   0.58126   0.81669   0.00000  Uiso   1.00
O691   O     0.46308   0.57952   0.75299   0.00000  Uiso   1.00
O692   O     0.53692   0.42048   0.74702   0.00000  Uiso   1.00
O693   O     0.55946   0.57054   0.74519   0.00000  Uiso   1.00
O694   O     0.44054   0.42946   0.75482   0.00000  Uiso   1.00
O695   O     0.45181   0.50450   0.81998   0.00000  Uiso   1.00
O696   O     0.54819   0.49550   0.68003   0.00000  Uiso   1.00
O697   O     0.54819   0.49552   0.81218   0.00000  Uiso   1.00
O698   O     0.45181   0.50448   0.68783   0.00000  Uiso   1.00
Zn699  Zn    0.43565   0.50600   0.75521   0.00000  Uiso   1.00
Zn700  Zn    0.56435   0.49400   0.74479   0.00000  Uiso   1.00
C701   C     0.84844   0.59813   0.74888   0.00000  Uiso   1.00
C702   C     0.85598   0.54434   0.90628   0.00000  Uiso   1.00
C703   C     0.83225   0.50002   0.61616   0.00000  Uiso   1.00
C704   C     0.83441   0.49998   0.88384   0.00000  Uiso   1.00
C705   C     0.85405   0.54422   0.59360   0.00000  Uiso   1.00
C706   C     0.81261   0.45578   0.90640   0.00000  Uiso   1.00
C707   C     0.85421   0.54469   0.54708   0.00000  Uiso   1.00
C708   C     0.81246   0.45531   0.95292   0.00000  Uiso   1.00
C709   C     0.83296   0.49981   0.52345   0.00000  Uiso   1.00
C710   C     0.83371   0.50019   0.97655   0.00000  Uiso   1.00
C711   C     0.81112   0.45460   0.54683   0.00000  Uiso   1.00
C712   C     0.81823   0.40187   0.75112   0.00000  Uiso   1.00
C713   C     0.85555   0.54540   0.95317   0.00000  Uiso   1.00
C714   C     0.87530   0.58933   0.52411   0.00000  Uiso   1.00
C715   C     0.79136   0.41067   0.97589   0.00000  Uiso   1.00
C716   C     0.89764   0.63750   0.95511   0.00000  Uiso   1.00
C717   C     0.76902   0.36250   0.54489   0.00000  Uiso   1.00
C718   C     0.67532   0.44946   0.70822   0.00000  Uiso   1.00
C719   C     0.99134   0.55054   0.79178   0.00000  Uiso   1.00
C720   C     0.87602   0.59016   0.97729   0.00000  Uiso   1.00
C721   C     0.79065   0.40984   0.52271   0.00000  Uiso   1.00
C722   C     0.85642   0.65262   0.74823   0.00000  Uiso   1.00
C723   C     0.81025   0.34738   0.75177   0.00000  Uiso   1.00
C724   C     0.83370   0.50013   0.83630   0.00000  Uiso   1.00
C725   C     0.83297   0.49987   0.66370   0.00000  Uiso   1.00
C726   C     0.81068   0.45566   0.59372   0.00000  Uiso   1.00
H727   H     0.79449   0.42213   0.61312   0.00000  Uiso   1.00
H728   H     0.87218   0.57787   0.88688   0.00000  Uiso   1.00
H729   H     0.87048   0.57813   0.61243   0.00000  Uiso   1.00
H730   H     0.79619   0.42187   0.88757   0.00000  Uiso   1.00
H731   H     0.89110   0.62364   0.54275   0.00000  Uiso   1.00
H732   H     0.77556   0.37636   0.95725   0.00000  Uiso   1.00
H733   H     0.90011   0.33610   0.74483   0.00000  Uiso   1.00
H734   H     0.76655   0.66390   0.75517   0.00000  Uiso   1.00
N735   N     0.98344   0.48598   0.73783   0.00000  Uiso   1.00
N736   N     0.68322   0.51402   0.76217   0.00000  Uiso   1.00
N737   N     0.91491   0.34207   0.93741   0.00000  Uiso   1.00
N738   N     0.75175   0.65793   0.56259   0.00000  Uiso   1.00
N739   N     0.69570   0.41874   0.68331   0.00000  Uiso   1.00
N740   N     0.97097   0.58126   0.81669   0.00000  Uiso   1.00
O741   O     0.79642   0.57952   0.75299   0.00000  Uiso   1.00
O742   O     0.87025   0.42048   0.74702   0.00000  Uiso   1.00
O743   O     0.89280   0.57054   0.74519   0.00000  Uiso   1.00
O744   O     0.77387   0.42946   0.75482   0.00000  Uiso   1.00
O745   O     0.78514   0.50450   0.81998   0.00000  Uiso   1.00
O746   O     0.88153   0.49550   0.68003   0.00000  Uiso   1.00
O747   O     0.88152   0.49552   0.81218   0.00000  Uiso   1.00
O748   O     0.78515   0.50448   0.68783   0.00000  Uiso   1.00
Zn749  Zn    0.76898   0.50600   0.75521   0.00000  Uiso   1.00
Zn750  Zn    0.89769   0.49400   0.74479   0.00000  Uiso   1.00
C751   C     0.18177   0.93146   0.74888   0.00000  Uiso   1.00
C752   C     0.18932   0.87768   0.90628   0.00000  Uiso   1.00
C753   C     0.16559   0.83335   0.61616   0.00000  Uiso   1.00
C754   C     0.16775   0.83331   0.88384   0.00000  Uiso   1.00
C755   C     0.18739   0.87756   0.59360   0.00000  Uiso   1.00
C756   C     0.14595   0.78911   0.90640   0.00000  Uiso   1.00
C757   C     0.18754   0.87802   0.54708   0.00000  Uiso   1.00
C758   C     0.14579   0.78864   0.95292   0.00000  Uiso   1.00
C759   C     0.16629   0.83314   0.52345   0.00000  Uiso   1.00
C760   C     0.16704   0.83352   0.97655   0.00000  Uiso   1.00
C761   C     0.14445   0.78793   0.54683   0.00000  Uiso   1.00
C762   C     0.15156   0.73521   0.75112   0.00000  Uiso   1.00
C763   C     0.18888   0.87874   0.95317   0.00000  Uiso   1.00
C764   C     0.20864   0.92266   0.52411   0.00000  Uiso   1.00
C765   C     0.12470   0.74400   0.97589   0.00000  Uiso   1.00
C766   C     0.23098   0.97083   0.95511   0.00000  Uiso   1.00
C767   C     0.10236   0.69584   0.54489   0.00000  Uiso   1.00
C768   C     0.00866   0.78279   0.70822   0.00000  Uiso   1.00
C769   C     0.32468   0.88387   0.79178   0.00000  Uiso   1.00
C770   C     0.20935   0.92349   0.97729   0.00000  Uiso   1.00
C771   C     0.12398   0.74317   0.52271   0.00000  Uiso   1.00
C772   C     0.18975   0.98595   0.74823   0.00000  Uiso   1.00
C773   C     0.14358   0.68071   0.75177   0.00000  Uiso   1.00
C774   C     0.16703   0.83346   0.83630   0.00000  Uiso   1.00
C775   C     0.16630   0.83321   0.66370   0.00000  Uiso   1.00
C776   C     0.14402   0.78899   0.59372   0.00000  Uiso   1.00
H777   H     0.12782   0.75546   0.61312   0.00000  Uiso   1.00
H778   H     0.20551   0.91121   0.88688   0.00000  Uiso   1.00
H779   H     0.20381   0.91147   0.61243   0.00000  Uiso   1.00
H780   H     0.12952   0.75520   0.88757   0.00000  Uiso   1.00
H781   H     0.22444   0.95697   0.54275   0.00000  Uiso   1.00
H782   H     0.10890   0.70969   0.95725   0.00000  Uiso   1.00
H783   H     0.23345   0.66943   0.74483   0.00000  Uiso   1.00
H784   H     0.09989   0.99724   0.75517   0.00000  Uiso   1.00
N785   N     0.31678   0.81932   0.73783   0.00000  Uiso   1.00
N786   N     0.01656   0.84735   0.76217   0.00000  Uiso   1.00
N787   N     0.24825   0.67541   0.93741   0.00000  Uiso   1.00
N788   N     0.08509   0.99126   0.56259   0.00000  Uiso   1.00
N789   N     0.02903   0.75207   0.68331   0.00000  Uiso   1.00
N790   N     0.30430   0.91460   0.81669   0.00000  Uiso   1.00
O791   O     0.12975   0.91286   0.75299   0.00000  Uiso   1.00
O792   O     0.20358   0.75381   0.74702   0.00000  Uiso   1.00
O793   O     0.22613   0.90387   0.74519   0.00000  Uiso   1.00
O794   O     0.10720   0.76279   0.75482   0.00000  Uiso   1.00
O795   O     0.11847   0.83784   0.81998   0.00000  Uiso   1.00
O796   O     0.21486   0.82883   0.68003   0.00000  Uiso   1.00
O797   O     0.21485   0.82885   0.81218   0.00000  Uiso   1.00
O798   O     0.11848   0.83781   0.68783   0.00000  Uiso   1.00
Zn799  Zn    0.10231   0.83933   0.75521   0.00000  Uiso   1.00
Zn800  Zn    0.23102   0.82734   0.74479   0.00000  Uiso   1.00
C801   C     0.51511   0.93146   0.74888   0.00000  Uiso   1.00
C802   C     0.52265   0.87768   0.90628   0.00000  Uiso   1.00
C803   C     0.49892   0.83335   0.61616   0.00000  Uiso   1.00
C804   C     0.50108   0.83331   0.88384   0.00000  Uiso   1.00
C805   C     0.52072   0.87756   0.59360   0.00000  Uiso   1.00
C806   C     0.47928   0.78911   0.90640   0.00000  Uiso   1.00
C807   C     0.52087   0.87802   0.54708   0.00000  Uiso   1.00
C808   C     0.47913   0.78864   0.95292   0.00000  Uiso   1.00
C809   C     0.49963   0.83314   0.52345   0.00000  Uiso   1.00
C810   C     0.50037   0.83352   0.97655   0.00000  Uiso   1.00
C811   C     0.47778   0.78793   0.54683   0.00000  Uiso   1.00
C812   C     0.48489   0.73521   0.75112   0.00000  Uiso   1.00
C813   C     0.52222   0.87874   0.95317   0.00000  Uiso   1.00
C814   C     0.54197   0.92266   0.52411   0.00000  Uiso   1.00
C815   C     0.45803   0.74400   0.97589   0.00000  Uiso   1.00
C816   C     0.56431   0.97083   0.95511   0.00000  Uiso   1.00
C817   C     0.43569   0.69584   0.54489   0.00000  Uiso   1.00
C818   C     0.34199   0.78279   0.70822   0.00000  Uiso   1.00
C819   C     0.65801   0.88387   0.79178   0.00000  Uiso   1.00
C820   C     0.54268   0.92349   0.97729   0.00000  Uiso   1.00
C821   C     0.45732   0.74317   0.52271   0.00000  Uiso   1.00
C822   C     0.52308   0.98595   0.74823   0.00000  Uiso   1.00
C823   C     0.47692   0.68071   0.75177   0.00000  Uiso   1.00
C824   C     0.50037   0.83346   0.83630   0.00000  Uiso   1.00
C825   C     0.49963   0.83321   0.66370   0.00000  Uiso   1.00
C826   C     0.47735   0.78899   0.59372   0.00000  Uiso   1.00
H827   H     0.46115   0.75546   0.61312   0.00000  Uiso   1.00
H828   H     0.53884   0.91121   0.88688   0.00000  Uiso   1.00
H829   H     0.53715   0.91147   0.61243   0.00000  Uiso   1.00
H830   H     0.46285   0.75520   0.88757   0.00000  Uiso   1.00
H831   H     0.55777   0.95697   0.54275   0.00000  Uiso   1.00
H832   H     0.44223   0.70969   0.95725   0.00000  Uiso   1.00
H833   H     0.56678   0.66943   0.74483   0.00000  Uiso   1.00
H834   H     0.43322   0.99724   0.75517   0.00000  Uiso   1.00
N835   N     0.65011   0.81932   0.73783   0.00000  Uiso   1.00
N836   N     0.34989   0.84735   0.76217   0.00000  Uiso   1.00
N837   N     0.58158   0.67541   0.93741   0.00000  Uiso   1.00
N838   N     0.41842   0.99126   0.56259   0.00000  Uiso   1.00
N839   N     0.36237   0.75207   0.68331   0.00000  Uiso   1.00
N840   N     0.63763   0.91460   0.81669   0.00000  Uiso   1.00
O841   O     0.46308   0.91286   0.75299   0.00000  Uiso   1.00
O842   O     0.53692   0.75381   0.74702   0.00000  Uiso   1.00
O843   O     0.55946   0.90387   0.74519   0.00000  Uiso   1.00
O844   O     0.44054   0.76279   0.75482   0.00000  Uiso   1.00
O845   O     0.45181   0.83784   0.81998   0.00000  Uiso   1.00
O846   O     0.54819   0.82883   0.68003   0.00000  Uiso   1.00
O847   O     0.54819   0.82885   0.81218   0.00000  Uiso   1.00
O848   O     0.45181   0.83781   0.68783   0.00000  Uiso   1.00
Zn849  Zn    0.43565   0.83933   0.75521   0.00000  Uiso   1.00
Zn850  Zn    0.56435   0.82734   0.74479   0.00000  Uiso   1.00
C851   C     0.84844   0.93146   0.74888   0.00000  Uiso   1.00
C852   C     0.85598   0.87768   0.90628   0.00000  Uiso   1.00
C853   C     0.83225   0.83335   0.61616   0.00000  Uiso   1.00
C854   C     0.83441   0.83331   0.88384   0.00000  Uiso   1.00
C855   C     0.85405   0.87756   0.59360   0.00000  Uiso   1.00
C856   C     0.81261   0.78911   0.90640   0.00000  Uiso   1.00
C857   C     0.85421   0.87802   0.54708   0.00000  Uiso   1.00
C858   C     0.81246   0.78864   0.95292   0.00000  Uiso   1.00
C859   C     0.83296   0.83314   0.52345   0.00000  Uiso   1.00
C860   C     0.83371   0.83352   0.97655   0.00000  Uiso   1.00
C861   C     0.81112   0.78793   0.54683   0.00000  Uiso   1.00
C862   C     0.81823   0.73521   0.75112   0.00000  Uiso   1.00
C863   C     0.85555   0.87874   0.95317   0.00000  Uiso   1.00
C864   C     0.87530   0.92266   0.52411   0.00000  Uiso   1.00
C865   C     0.79136   0.74400   0.97589   0.00000  Uiso   1.00
C866   C     0.89764   0.97083   0.95511   0.00000  Uiso   1.00
C867   C     0.76902   0.69584   0.54489   0.00000  Uiso   1.00
C868   C     0.67532   0.78279   0.70822   0.00000  Uiso   1.00
C869   C     0.99134   0.88387   0.79178   0.00000  Uiso   1.00
C870   C     0.87602   0.92349   0.97729   0.00000  Uiso   1.00
C871   C     0.79065   0.74317   0.52271   0.00000  Uiso   1.00
C872   C     0.85642   0.98595   0.74823   0.00000  Uiso   1.00
C873   C     0.81025   0.68071   0.75177   0.00000  Uiso   1.00
C874   C     0.83370   0.83346   0.83630   0.00000  Uiso   1.00
C875   C     0.83297   0.83321   0.66370   0.00000  Uiso   1.00
C876   C     0.81068   0.78899   0.59372   0.00000  Uiso   1.00
H877   H     0.79449   0.75546   0.61312   0.00000  Uiso   1.00
H878   H     0.87218   0.91121   0.88688   0.00000  Uiso   1.00
H879   H     0.87048   0.91147   0.61243   0.00000  Uiso   1.00
H880   H     0.79619   0.75520   0.88757   0.00000  Uiso   1.00
H881   H     0.89110   0.95697   0.54275   0.00000  Uiso   1.00
H882   H     0.77556   0.70969   0.95725   0.00000  Uiso   1.00
H883   H     0.90011   0.66943   0.74483   0.00000  Uiso   1.00
H884   H     0.76655   0.99724   0.75517   0.00000  Uiso   1.00
N885   N     0.98344   0.81932   0.73783   0.00000  Uiso   1.00
N886   N     0.68322   0.84735   0.76217   0.00000  Uiso   1.00
N887   N     0.91491   0.67541   0.93741   0.00000  Uiso   1.00
N888   N     0.75175   0.99126   0.56259   0.00000  Uiso   1.00
N889   N     0.69570   0.75207   0.68331   0.00000  Uiso   1.00
N890   N     0.97097   0.91460   0.81669   0.00000  Uiso   1.00
O891   O     0.79642   0.91286   0.75299   0.00000  Uiso   1.00
O892   O     0.87025   0.75381   0.74702   0.00000  Uiso   1.00
O893   O     0.89280   0.90387   0.74519   0.00000  Uiso   1.00
O894   O     0.77387   0.76279   0.75482   0.00000  Uiso   1.00
O895   O     0.78514   0.83784   0.81998   0.00000  Uiso   1.00
O896   O     0.88153   0.82883   0.68003   0.00000  Uiso   1.00
O897   O     0.88152   0.82885   0.81218   0.00000  Uiso   1.00
O898   O     0.78515   0.83781   0.68783   0.00000  Uiso   1.00
Zn899  Zn    0.76898   0.83933   0.75521   0.00000  Uiso   1.00
Zn900  Zn    0.89769   0.82734   0.74479   0.00000  Uiso   1.00
loop_
_geom_bond_atom_site_label_1
_geom_bond_atom_site_label_2
_geom_bond_distance
_geom_bond_site_symmetry_2
_ccdc_geom_bond_type
C1     C22     1.399   .     S
C1     O41     1.284   .     A
C1     O43     1.289   .     A
C2     C4      1.389   .     A
C2     H28     1.084   .     S
C2     C13     1.392   .     A
C3     C26     1.389   .     A
C3     C25     1.414   .     S
C3     C5      1.387   .     A
C4     C24     1.414   .     S
C4     C6      1.387   .     A
C5     H29     1.086   .     S
C5     C7      1.382   .     A
C6     H30     1.086   .     S
C6     C8      1.382   .     A
C7     C9      1.414   .     A
C7     C14     1.397   .     A
C8     C10     1.414   .     A
C8     C15     1.397   .     A
C9     C11     1.420   .     A
C9     C460    1.393   1_554 S
C10    C13     1.420   .     A
C10    C459    1.393   .     S
C11    C26     1.392   .     A
C11    C21     1.412   .     A
C12    C23     1.399   .     S
C12    O44     1.289   .     A
C12    O42     1.284   .     A
C13    C20     1.412   .     A
C14    H31     1.086   .     S
C14    C470    1.391   1_554 S
C15    H32     1.086   .     S
C15    C471    1.391   .     S
C16    C20     1.446   .     S
C16    N187    1.157   .     S
C17    C21     1.446   .     S
C17    N338    1.157   1_545 S
C18    N39     1.158   .     T
C18    N135    1.385   1_455 S
C19    N40     1.158   .     T
C19    N86     1.385   .     S
C20    C464    1.391   .     S
C21    C465    1.391   1_554 S
C22    C173    1.333   .     S
C22    H183    1.088   .     S
C23    C322    1.333   1_545 S
C23    H334    1.088   1_545 S
C24    O45     1.290   .     A
C24    O47     1.290   .     A
C25    O48     1.290   .     A
C25    O46     1.290   .     A
C26    H27     1.084   .     S
H33    C322    1.088   1_545 S
H34    C173    1.088   .     S
N35    Zn50    2.031   .     S
N35    C68     1.385   .     S
N35    N86     1.279   .     S
N36    Zn49    2.031   .     S
N36    N135    1.279   1_455 S
N36    C119    1.385   1_455 S
N37    C316    1.157   1_545 S
N38    C167    1.157   .     S
O41    Zn49    1.957   .     S
O42    Zn50    1.957   .     S
O43    Zn50    1.971   .     S
O44    Zn49    1.971   .     S
O45    Zn49    1.995   .     S
O46    Zn50    1.995   .     S
O47    Zn50    2.005   .     S
O48    Zn49    2.005   .     S
C51    C72     1.399   .     S
C51    O91     1.284   .     A
C51    O93     1.289   .     A
C52    C54     1.389   .     A
C52    H78     1.084   .     S
C52    C63     1.392   .     A
C53    C76     1.389   .     A
C53    C75     1.414   .     S
C53    C55     1.387   .     A
C54    C74     1.414   .     S
C54    C56     1.387   .     A
C55    H79     1.086   .     S
C55    C57     1.382   .     A
C56    H80     1.086   .     S
C56    C58     1.382   .     A
C57    C59     1.414   .     A
C57    C64     1.397   .     A
C58    C60     1.414   .     A
C58    C65     1.397   .     A
C59    C61     1.420   .     A
C59    C510    1.393   1_554 S
C60    C63     1.420   .     A
C60    C509    1.393   .     S
C61    C76     1.392   .     A
C61    C71     1.412   .     A
C62    C73     1.399   .     S
C62    O94     1.289   .     A
C62    O92     1.284   .     A
C63    C70     1.412   .     A
C64    H81     1.086   .     S
C64    C520    1.391   1_554 S
C65    H82     1.086   .     S
C65    C521    1.391   .     S
C66    C70     1.446   .     S
C66    N237    1.157   .     S
C67    C71     1.446   .     S
C67    N388    1.157   1_545 S
C68    N89     1.158   .     T
C69    N90     1.158   .     T
C69    N136    1.385   .     S
C70    C514    1.391   .     S
C71    C515    1.391   1_554 S
C72    C223    1.333   .     S
C72    H233    1.088   .     S
C73    C372    1.333   1_545 S
C73    H384    1.088   1_545 S
C74    O95     1.290   .     A
C74    O97     1.290   .     A
C75    O98     1.290   .     A
C75    O96     1.290   .     A
C76    H77     1.084   .     S
H83    C372    1.088   1_545 S
H84    C223    1.088   .     S
N85    Zn100   2.031   .     S
N85    C118    1.385   .     S
N85    N136    1.279   .     S
N86    Zn99    2.031   .     S
N87    C366    1.157   1_545 S
N88    C217    1.157   .     S
O91    Zn99    1.957   .     S
O92    Zn100   1.957   .     S
O93    Zn100   1.971   .     S
O94    Zn99    1.971   .     S
O95    Zn99    1.995   .     S
O96    Zn100   1.995   .     S
O97    Zn100   2.005   .     S
O98    Zn99    2.005   .     S
C101   C122    1.399   .     S
C101   O141    1.284   .     A
C101   O143    1.289   .     A
C102   C104    1.389   .     A
C102   H128    1.084   .     S
C102   C113    1.392   .     A
C103   C126    1.389   .     A
C103   C125    1.414   .     S
C103   C105    1.387   .     A
C104   C124    1.414   .     S
C104   C106    1.387   .     A
C105   H129    1.086   .     S
C105   C107    1.382   .     A
C106   H130    1.086   .     S
C106   C108    1.382   .     A
C107   C109    1.414   .     A
C107   C114    1.397   .     A
C108   C110    1.414   .     A
C108   C115    1.397   .     A
C109   C111    1.420   .     A
C109   C560    1.393   1_554 S
C110   C113    1.420   .     A
C110   C559    1.393   .     S
C111   C126    1.392   .     A
C111   C121    1.412   .     A
C112   C123    1.399   .     S
C112   O144    1.289   .     A
C112   O142    1.284   .     A
C113   C120    1.412   .     A
C114   H131    1.086   .     S
C114   C570    1.391   1_554 S
C115   H132    1.086   .     S
C115   C571    1.391   .     S
C116   C120    1.446   .     S
C116   N287    1.157   .     S
C117   C121    1.446   .     S
C117   N438    1.157   1_545 S
C118   N139    1.158   .     T
C119   N140    1.158   .     T
C119   N36     1.385   1_655 S
C120   C564    1.391   .     S
C121   C565    1.391   1_554 S
C122   C273    1.333   .     S
C122   H283    1.088   .     S
C123   C422    1.333   1_545 S
C123   H434    1.088   1_545 S
C124   O145    1.290   .     A
C124   O147    1.290   .     A
C125   O148    1.290   .     A
C125   O146    1.290   .     A
C126   H127    1.084   .     S
H133   C422    1.088   1_545 S
H134   C273    1.088   .     S
N135   Zn150   2.031   .     S
N135   C18     1.385   1_655 S
N135   N36     1.279   1_655 S
N136   Zn149   2.031   .     S
N137   C416    1.157   1_545 S
N138   C267    1.157   .     S
O141   Zn149   1.957   .     S
O142   Zn150   1.957   .     S
O143   Zn150   1.971   .     S
O144   Zn149   1.971   .     S
O145   Zn149   1.995   .     S
O146   Zn150   1.995   .     S
O147   Zn150   2.005   .     S
O148   Zn149   2.005   .     S
C151   C172    1.399   .     S
C151   O191    1.284   .     A
C151   O193    1.289   .     A
C152   C154    1.389   .     A
C152   H178    1.084   .     S
C152   C163    1.392   .     A
C153   C176    1.389   .     A
C153   C175    1.414   .     S
C153   C155    1.387   .     A
C154   C174    1.414   .     S
C154   C156    1.387   .     A
C155   H179    1.086   .     S
C155   C157    1.382   .     A
C156   H180    1.086   .     S
C156   C158    1.382   .     A
C157   C159    1.414   .     A
C157   C164    1.397   .     A
C158   C160    1.414   .     A
C158   C165    1.397   .     A
C159   C161    1.420   .     A
C159   C610    1.393   1_554 S
C160   C163    1.420   .     A
C160   C609    1.393   .     S
C161   C176    1.392   .     A
C161   C171    1.412   .     A
C162   C173    1.399   .     S
C162   O194    1.289   .     A
C162   O192    1.284   .     A
C163   C170    1.412   .     A
C164   H181    1.086   .     S
C164   C620    1.391   1_554 S
C165   H182    1.086   .     S
C165   C621    1.391   .     S
C166   C170    1.446   .     S
C166   N337    1.157   .     S
C167   C171    1.446   .     S
C168   N189    1.158   .     T
C168   N285    1.385   1_455 S
C169   N190    1.158   .     T
C169   N236    1.385   .     S
C170   C614    1.391   .     S
C171   C615    1.391   1_554 S
C172   C323    1.333   .     S
C172   H333    1.088   .     S
C174   O195    1.290   .     A
C174   O197    1.290   .     A
C175   O198    1.290   .     A
C175   O196    1.290   .     A
C176   H177    1.084   .     S
H184   C323    1.088   .     S
N185   Zn200   2.031   .     S
N185   C218    1.385   .     S
N185   N236    1.279   .     S
N186   Zn199   2.031   .     S
N186   N285    1.279   1_455 S
N186   C269    1.385   1_455 S
N188   C317    1.157   .     S
O191   Zn199   1.957   .     S
O192   Zn200   1.957   .     S
O193   Zn200   1.971   .     S
O194   Zn199   1.971   .     S
O195   Zn199   1.995   .     S
O196   Zn200   1.995   .     S
O197   Zn200   2.005   .     S
O198   Zn199   2.005   .     S
C201   C222    1.399   .     S
C201   O241    1.284   .     A
C201   O243    1.289   .     A
C202   C204    1.389   .     A
C202   H228    1.084   .     S
C202   C213    1.392   .     A
C203   C226    1.389   .     A
C203   C225    1.414   .     S
C203   C205    1.387   .     A
C204   C224    1.414   .     S
C204   C206    1.387   .     A
C205   H229    1.086   .     S
C205   C207    1.382   .     A
C206   H230    1.086   .     S
C206   C208    1.382   .     A
C207   C209    1.414   .     A
C207   C214    1.397   .     A
C208   C210    1.414   .     A
C208   C215    1.397   .     A
C209   C211    1.420   .     A
C209   C660    1.393   1_554 S
C210   C213    1.420   .     A
C210   C659    1.393   .     S
C211   C226    1.392   .     A
C211   C221    1.412   .     A
C212   C223    1.399   .     S
C212   O244    1.289   .     A
C212   O242    1.284   .     A
C213   C220    1.412   .     A
C214   H231    1.086   .     S
C214   C670    1.391   1_554 S
C215   H232    1.086   .     S
C215   C671    1.391   .     S
C216   C220    1.446   .     S
C216   N387    1.157   .     S
C217   C221    1.446   .     S
C218   N239    1.158   .     T
C219   N240    1.158   .     T
C219   N286    1.385   .     S
C220   C664    1.391   .     S
C221   C665    1.391   1_554 S
C222   C373    1.333   .     S
C222   H383    1.088   .     S
C224   O245    1.290   .     A
C224   O247    1.290   .     A
C225   O248    1.290   .     A
C225   O246    1.290   .     A
C226   H227    1.084   .     S
H234   C373    1.088   .     S
N235   Zn250   2.031   .     S
N235   C268    1.385   .     S
N235   N286    1.279   .     S
N236   Zn249   2.031   .     S
N238   C367    1.157   .     S
O241   Zn249   1.957   .     S
O242   Zn250   1.957   .     S
O243   Zn250   1.971   .     S
O244   Zn249   1.971   .     S
O245   Zn249   1.995   .     S
O246   Zn250   1.995   .     S
O247   Zn250   2.005   .     S
O248   Zn249   2.005   .     S
C251   C272    1.399   .     S
C251   O291    1.284   .     A
C251   O293    1.289   .     A
C252   C254    1.389   .     A
C252   H278    1.084   .     S
C252   C263    1.392   .     A
C253   C276    1.389   .     A
C253   C275    1.414   .     S
C253   C255    1.387   .     A
C254   C274    1.414   .     S
C254   C256    1.387   .     A
C255   H279    1.086   .     S
C255   C257    1.382   .     A
C256   H280    1.086   .     S
C256   C258    1.382   .     A
C257   C259    1.414   .     A
C257   C264    1.397   .     A
C258   C260    1.414   .     A
C258   C265    1.397   .     A
C259   C261    1.420   .     A
C259   C710    1.393   1_554 S
C260   C263    1.420   .     A
C260   C709    1.393   .     S
C261   C276    1.392   .     A
C261   C271    1.412   .     A
C262   C273    1.399   .     S
C262   O294    1.289   .     A
C262   O292    1.284   .     A
C263   C270    1.412   .     A
C264   H281    1.086   .     S
C264   C720    1.391   1_554 S
C265   H282    1.086   .     S
C265   C721    1.391   .     S
C266   C270    1.446   .     S
C266   N437    1.157   .     S
C267   C271    1.446   .     S
C268   N289    1.158   .     T
C269   N290    1.158   .     T
C269   N186    1.385   1_655 S
C270   C714    1.391   .     S
C271   C715    1.391   1_554 S
C272   C423    1.333   .     S
C272   H433    1.088   .     S
C274   O295    1.290   .     A
C274   O297    1.290   .     A
C275   O298    1.290   .     A
C275   O296    1.290   .     A
C276   H277    1.084   .     S
H284   C423    1.088   .     S
N285   Zn300   2.031   .     S
N285   C168    1.385   1_655 S
N285   N186    1.279   1_655 S
N286   Zn299   2.031   .     S
N288   C417    1.157   .     S
O291   Zn299   1.957   .     S
O292   Zn300   1.957   .     S
O293   Zn300   1.971   .     S
O294   Zn299   1.971   .     S
O295   Zn299   1.995   .     S
O296   Zn300   1.995   .     S
O297   Zn300   2.005   .     S
O298   Zn299   2.005   .     S
C301   C322    1.399   .     S
C301   O341    1.284   .     A
C301   O343    1.289   .     A
C302   C304    1.389   .     A
C302   H328    1.084   .     S
C302   C313    1.392   .     A
C303   C326    1.389   .     A
C303   C325    1.414   .     S
C303   C305    1.387   .     A
C304   C324    1.414   .     S
C304   C306    1.387   .     A
C305   H329    1.086   .     S
C305   C307    1.382   .     A
C306   H330    1.086   .     S
C306   C308    1.382   .     A
C307   C309    1.414   .     A
C307   C314    1.397   .     A
C308   C310    1.414   .     A
C308   C315    1.397   .     A
C309   C311    1.420   .     A
C309   C760    1.393   1_554 S
C310   C313    1.420   .     A
C310   C759    1.393   .     S
C311   C326    1.392   .     A
C311   C321    1.412   .     A
C312   C323    1.399   .     S
C312   O344    1.289   .     A
C312   O342    1.284   .     A
C313   C320    1.412   .     A
C314   H331    1.086   .     S
C314   C770    1.391   1_554 S
C315   H332    1.086   .     S
C315   C771    1.391   .     S
C316   C320    1.446   .     S
C316   N37     1.157   1_565 S
C317   C321    1.446   .     S
C318   N339    1.158   .     T
C318   N435    1.385   1_455 S
C319   N340    1.158   .     T
C319   N386    1.385   .     S
C320   C764    1.391   .     S
C321   C765    1.391   1_554 S
C322   C23     1.333   1_565 S
C322   H33     1.088   1_565 S
C324   O345    1.290   .     A
C324   O347    1.290   .     A
C325   O348    1.290   .     A
C325   O346    1.290   .     A
C326   H327    1.084   .     S
H334   C23     1.088   1_565 S
N335   Zn350   2.031   .     S
N335   C368    1.385   .     S
N335   N386    1.279   .     S
N336   Zn349   2.031   .     S
N336   N435    1.279   1_455 S
N336   C419    1.385   1_455 S
N338   C17     1.157   1_565 S
O341   Zn349   1.957   .     S
O342   Zn350   1.957   .     S
O343   Zn350   1.971   .     S
O344   Zn349   1.971   .     S
O345   Zn349   1.995   .     S
O346   Zn350   1.995   .     S
O347   Zn350   2.005   .     S
O348   Zn349   2.005   .     S
C351   C372    1.399   .     S
C351   O391    1.284   .     A
C351   O393    1.289   .     A
C352   C354    1.389   .     A
C352   H378    1.084   .     S
C352   C363    1.392   .     A
C353   C376    1.389   .     A
C353   C375    1.414   .     S
C353   C355    1.387   .     A
C354   C374    1.414   .     S
C354   C356    1.387   .     A
C355   H379    1.086   .     S
C355   C357    1.382   .     A
C356   H380    1.086   .     S
C356   C358    1.382   .     A
C357   C359    1.414   .     A
C357   C364    1.397   .     A
C358   C360    1.414   .     A
C358   C365    1.397   .     A
C359   C361    1.420   .     A
C359   C810    1.393   1_554 S
C360   C363    1.420   .     A
C360   C809    1.393   .     S
C361   C376    1.392   .     A
C361   C371    1.412   .     A
C362   C373    1.399   .     S
C362   O394    1.289   .     A
C362   O392    1.284   .     A
C363   C370    1.412   .     A
C364   H381    1.086   .     S
C364   C820    1.391   1_554 S
C365   H382    1.086   .     S
C365   C821    1.391   .     S
C366   C370    1.446   .     S
C366   N87     1.157   1_565 S
C367   C371    1.446   .     S
C368   N389    1.158   .     T
C369   N390    1.158   .     T
C369   N436    1.385   .     S
C370   C814    1.391   .     S
C371   C815    1.391   1_554 S
C372   C73     1.333   1_565 S
C372   H83     1.088   1_565 S
C374   O395    1.290   .     A
C374   O397    1.290   .     A
C375   O398    1.290   .     A
C375   O396    1.290   .     A
C376   H377    1.084   .     S
H384   C73     1.088   1_565 S
N385   Zn400   2.031   .     S
N385   C418    1.385   .     S
N385   N436    1.279   .     S
N386   Zn399   2.031   .     S
N388   C67     1.157   1_565 S
O391   Zn399   1.957   .     S
O392   Zn400   1.957   .     S
O393   Zn400   1.971   .     S
O394   Zn399   1.971   .     S
O395   Zn399   1.995   .     S
O396   Zn400   1.995   .     S
O397   Zn400   2.005   .     S
O398   Zn399   2.005   .     S
C401   C422    1.399   .     S
C401   O441    1.284   .     A
C401   O443    1.289   .     A
C402   C404    1.389   .     A
C402   H428    1.084   .     S
C402   C413    1.392   .     A
C403   C426    1.389   .     A
C403   C425    1.414   .     S
C403   C405    1.387   .     A
C404   C424    1.414   .     S
C404   C406    1.387   .     A
C405   H429    1.086   .     S
C405   C407    1.382   .     A
C406   H430    1.086   .     S
C406   C408    1.382   .     A
C407   C409    1.414   .     A
C407   C414    1.397   .     A
C408   C410    1.414   .     A
C408   C415    1.397   .     A
C409   C411    1.420   .     A
C409   C860    1.393   1_554 S
C410   C413    1.420   .     A
C410   C859    1.393   .     S
C411   C426    1.392   .     A
C411   C421    1.412   .     A
C412   C423    1.399   .     S
C412   O444    1.289   .     A
C412   O442    1.284   .     A
C413   C420    1.412   .     A
C414   H431    1.086   .     S
C414   C870    1.391   1_554 S
C415   H432    1.086   .     S
C415   C871    1.391   .     S
C416   C420    1.446   .     S
C416   N137    1.157   1_565 S
C417   C421    1.446   .     S
C418   N439    1.158   .     T
C419   N440    1.158   .     T
C419   N336    1.385   1_655 S
C420   C864    1.391   .     S
C421   C865    1.391   1_554 S
C422   C123    1.333   1_565 S
C422   H133    1.088   1_565 S
C424   O445    1.290   .     A
C424   O447    1.290   .     A
C425   O448    1.290   .     A
C425   O446    1.290   .     A
C426   H427    1.084   .     S
H434   C123    1.088   1_565 S
N435   Zn450   2.031   .     S
N435   C318    1.385   1_655 S
N435   N336    1.279   1_655 S
N436   Zn449   2.031   .     S
N438   C117    1.157   1_565 S
O441   Zn449   1.957   .     S
O442   Zn450   1.957   .     S
O443   Zn450   1.971   .     S
O444   Zn449   1.971   .     S
O445   Zn449   1.995   .     S
O446   Zn450   1.995   .     S
O447   Zn450   2.005   .     S
O448   Zn449   2.005   .     S
C451   C472    1.399   .     S
C451   O491    1.284   .     A
C451   O493    1.289   .     A
C452   C454    1.389   .     A
C452   H478    1.084   .     S
C452   C463    1.392   .     A
C453   C476    1.389   .     A
C453   C475    1.414   .     S
C453   C455    1.387   .     A
C454   C474    1.414   .     S
C454   C456    1.387   .     A
C455   H479    1.086   .     S
C455   C457    1.382   .     A
C456   H480    1.086   .     S
C456   C458    1.382   .     A
C457   C459    1.414   .     A
C457   C464    1.397   .     A
C458   C460    1.414   .     A
C458   C465    1.397   .     A
C459   C461    1.420   .     A
C460   C463    1.420   .     A
C460   C9      1.393   1_556 S
C461   C476    1.392   .     A
C461   C471    1.412   .     A
C462   C473    1.399   .     S
C462   O494    1.289   .     A
C462   O492    1.284   .     A
C463   C470    1.412   .     A
C464   H481    1.086   .     S
C465   H482    1.086   .     S
C465   C21     1.391   1_556 S
C466   C470    1.446   .     S
C466   N637    1.157   .     S
C467   C471    1.446   .     S
C467   N788    1.157   1_545 S
C468   N489    1.158   .     T
C468   N585    1.385   1_455 S
C469   N490    1.158   .     T
C469   N536    1.385   .     S
C470   C14     1.391   1_556 S
C472   C623    1.333   .     S
C472   H633    1.088   .     S
C473   C772    1.333   1_545 S
C473   H784    1.088   1_545 S
C474   O495    1.290   .     A
C474   O497    1.290   .     A
C475   O498    1.290   .     A
C475   O496    1.290   .     A
C476   H477    1.084   .     S
H483   C772    1.088   1_545 S
H484   C623    1.088   .     S
N485   Zn500   2.031   .     S
N485   C518    1.385   .     S
N485   N536    1.279   .     S
N486   Zn499   2.031   .     S
N486   N585    1.279   1_455 S
N486   C569    1.385   1_455 S
N487   C766    1.157   1_545 S
N488   C617    1.157   .     S
O491   Zn499   1.957   .     S
O492   Zn500   1.957   .     S
O493   Zn500   1.971   .     S
O494   Zn499   1.971   .     S
O495   Zn499   1.995   .     S
O496   Zn500   1.995   .     S
O497   Zn500   2.005   .     S
O498   Zn499   2.005   .     S
C501   C522    1.399   .     S
C501   O541    1.284   .     A
C501   O543    1.289   .     A
C502   C504    1.389   .     A
C502   H528    1.084   .     S
C502   C513    1.392   .     A
C503   C526    1.389   .     A
C503   C525    1.414   .     S
C503   C505    1.387   .     A
C504   C524    1.414   .     S
C504   C506    1.387   .     A
C505   H529    1.086   .     S
C505   C507    1.382   .     A
C506   H530    1.086   .     S
C506   C508    1.382   .     A
C507   C509    1.414   .     A
C507   C514    1.397   .     A
C508   C510    1.414   .     A
C508   C515    1.397   .     A
C509   C511    1.420   .     A
C510   C513    1.420   .     A
C510   C59     1.393   1_556 S
C511   C526    1.392   .     A
C511   C521    1.412   .     A
C512   C523    1.399   .     S
C512   O544    1.289   .     A
C512   O542    1.284   .     A
C513   C520    1.412   .     A
C514   H531    1.086   .     S
C515   H532    1.086   .     S
C515   C71     1.391   1_556 S
C516   C520    1.446   .     S
C516   N687    1.157   .     S
C517   C521    1.446   .     S
C517   N838    1.157   1_545 S
C518   N539    1.158   .     T
C519   N540    1.158   .     T
C519   N586    1.385   .     S
C520   C64     1.391   1_556 S
C522   C673    1.333   .     S
C522   H683    1.088   .     S
C523   C822    1.333   1_545 S
C523   H834    1.088   1_545 S
C524   O545    1.290   .     A
C524   O547    1.290   .     A
C525   O548    1.290   .     A
C525   O546    1.290   .     A
C526   H527    1.084   .     S
H533   C822    1.088   1_545 S
H534   C673    1.088   .     S
N535   Zn550   2.031   .     S
N535   C568    1.385   .     S
N535   N586    1.279   .     S
N536   Zn549   2.031   .     S
N537   C816    1.157   1_545 S
N538   C667    1.157   .     S
O541   Zn549   1.957   .     S
O542   Zn550   1.957   .     S
O543   Zn550   1.971   .     S
O544   Zn549   1.971   .     S
O545   Zn549   1.995   .     S
O546   Zn550   1.995   .     S
O547   Zn550   2.005   .     S
O548   Zn549   2.005   .     S
C551   C572    1.399   .     S
C551   O591    1.284   .     A
C551   O593    1.289   .     A
C552   C554    1.389   .     A
C552   H578    1.084   .     S
C552   C563    1.392   .     A
C553   C576    1.389   .     A
C553   C575    1.414   .     S
C553   C555    1.387   .     A
C554   C574    1.414   .     S
C554   C556    1.387   .     A
C555   H579    1.086   .     S
C555   C557    1.382   .     A
C556   H580    1.086   .     S
C556   C558    1.382   .     A
C557   C559    1.414   .     A
C557   C564    1.397   .     A
C558   C560    1.414   .     A
C558   C565    1.397   .     A
C559   C561    1.420   .     A
C560   C563    1.420   .     A
C560   C109    1.393   1_556 S
C561   C576    1.392   .     A
C561   C571    1.412   .     A
C562   C573    1.399   .     S
C562   O594    1.289   .     A
C562   O592    1.284   .     A
C563   C570    1.412   .     A
C564   H581    1.086   .     S
C565   H582    1.086   .     S
C565   C121    1.391   1_556 S
C566   C570    1.446   .     S
C566   N737    1.157   .     S
C567   C571    1.446   .     S
C567   N888    1.157   1_545 S
C568   N589    1.158   .     T
C569   N590    1.158   .     T
C569   N486    1.385   1_655 S
C570   C114    1.391   1_556 S
C572   C723    1.333   .     S
C572   H733    1.088   .     S
C573   C872    1.333   1_545 S
C573   H884    1.088   1_545 S
C574   O595    1.290   .     A
C574   O597    1.290   .     A
C575   O598    1.290   .     A
C575   O596    1.290   .     A
C576   H577    1.084   .     S
H583   C872    1.088   1_545 S
H584   C723    1.088   .     S
N585   Zn600   2.031   .     S
N585   C468    1.385   1_655 S
N585   N486    1.279   1_655 S
N586   Zn599   2.031   .     S
N587   C866    1.157   1_545 S
N588   C717    1.157   .     S
O591   Zn599   1.957   .     S
O592   Zn600   1.957   .     S
O593   Zn600   1.971   .     S
O594   Zn599   1.971   .     S
O595   Zn599   1.995   .     S
O596   Zn600   1.995   .     S
O597   Zn600   2.005   .     S
O598   Zn599   2.005   .     S
C601   C622    1.399   .     S
C601   O641    1.284   .     A
C601   O643    1.289   .     A
C602   C604    1.389   .     A
C602   H628    1.084   .     S
C602   C613    1.392   .     A
C603   C626    1.389   .     A
C603   C625    1.414   .     S
C603   C605    1.387   .     A
C604   C624    1.414   .     S
C604   C606    1.387   .     A
C605   H629    1.086   .     S
C605   C607    1.382   .     A
C606   H630    1.086   .     S
C606   C608    1.382   .     A
C607   C609    1.414   .     A
C607   C614    1.397   .     A
C608   C610    1.414   .     A
C608   C615    1.397   .     A
C609   C611    1.420   .     A
C610   C613    1.420   .     A
C610   C159    1.393   1_556 S
C611   C626    1.392   .     A
C611   C621    1.412   .     A
C612   C623    1.399   .     S
C612   O644    1.289   .     A
C612   O642    1.284   .     A
C613   C620    1.412   .     A
C614   H631    1.086   .     S
C615   H632    1.086   .     S
C615   C171    1.391   1_556 S
C616   C620    1.446   .     S
C616   N787    1.157   .     S
C617   C621    1.446   .     S
C618   N639    1.158   .     T
C618   N735    1.385   1_455 S
C619   N640    1.158   .     T
C619   N686    1.385   .     S
C620   C164    1.391   1_556 S
C622   C773    1.333   .     S
C622   H783    1.088   .     S
C624   O645    1.290   .     A
C624   O647    1.290   .     A
C625   O648    1.290   .     A
C625   O646    1.290   .     A
C626   H627    1.084   .     S
H634   C773    1.088   .     S
N635   Zn650   2.031   .     S
N635   C668    1.385   .     S
N635   N686    1.279   .     S
N636   Zn649   2.031   .     S
N636   N735    1.279   1_455 S
N636   C719    1.385   1_455 S
N638   C767    1.157   .     S
O641   Zn649   1.957   .     S
O642   Zn650   1.957   .     S
O643   Zn650   1.971   .     S
O644   Zn649   1.971   .     S
O645   Zn649   1.995   .     S
O646   Zn650   1.995   .     S
O647   Zn650   2.005   .     S
O648   Zn649   2.005   .     S
C651   C672    1.399   .     S
C651   O691    1.284   .     A
C651   O693    1.289   .     A
C652   C654    1.389   .     A
C652   H678    1.084   .     S
C652   C663    1.392   .     A
C653   C676    1.389   .     A
C653   C675    1.414   .     S
C653   C655    1.387   .     A
C654   C674    1.414   .     S
C654   C656    1.387   .     A
C655   H679    1.086   .     S
C655   C657    1.382   .     A
C656   H680    1.086   .     S
C656   C658    1.382   .     A
C657   C659    1.414   .     A
C657   C664    1.397   .     A
C658   C660    1.414   .     A
C658   C665    1.397   .     A
C659   C661    1.420   .     A
C660   C663    1.420   .     A
C660   C209    1.393   1_556 S
C661   C676    1.392   .     A
C661   C671    1.412   .     A
C662   C673    1.399   .     S
C662   O694    1.289   .     A
C662   O692    1.284   .     A
C663   C670    1.412   .     A
C664   H681    1.086   .     S
C665   H682    1.086   .     S
C665   C221    1.391   1_556 S
C666   C670    1.446   .     S
C666   N837    1.157   .     S
C667   C671    1.446   .     S
C668   N689    1.158   .     T
C669   N690    1.158   .     T
C669   N736    1.385   .     S
C670   C214    1.391   1_556 S
C672   C823    1.333   .     S
C672   H833    1.088   .     S
C674   O695    1.290   .     A
C674   O697    1.290   .     A
C675   O698    1.290   .     A
C675   O696    1.290   .     A
C676   H677    1.084   .     S
H684   C823    1.088   .     S
N685   Zn700   2.031   .     S
N685   C718    1.385   .     S
N685   N736    1.279   .     S
N686   Zn699   2.031   .     S
N688   C817    1.157   .     S
O691   Zn699   1.957   .     S
O692   Zn700   1.957   .     S
O693   Zn700   1.971   .     S
O694   Zn699   1.971   .     S
O695   Zn699   1.995   .     S
O696   Zn700   1.995   .     S
O697   Zn700   2.005   .     S
O698   Zn699   2.005   .     S
C701   C722    1.399   .     S
C701   O741    1.284   .     A
C701   O743    1.289   .     A
C702   C704    1.389   .     A
C702   H728    1.084   .     S
C702   C713    1.392   .     A
C703   C726    1.389   .     A
C703   C725    1.414   .     S
C703   C705    1.387   .     A
C704   C724    1.414   .     S
C704   C706    1.387   .     A
C705   H729    1.086   .     S
C705   C707    1.382   .     A
C706   H730    1.086   .     S
C706   C708    1.382   .     A
C707   C709    1.414   .     A
C707   C714    1.397   .     A
C708   C710    1.414   .     A
C708   C715    1.397   .     A
C709   C711    1.420   .     A
C710   C713    1.420   .     A
C710   C259    1.393   1_556 S
C711   C726    1.392   .     A
C711   C721    1.412   .     A
C712   C723    1.399   .     S
C712   O744    1.289   .     A
C712   O742    1.284   .     A
C713   C720    1.412   .     A
C714   H731    1.086   .     S
C715   H732    1.086   .     S
C715   C271    1.391   1_556 S
C716   C720    1.446   .     S
C716   N887    1.157   .     S
C717   C721    1.446   .     S
C718   N739    1.158   .     T
C719   N740    1.158   .     T
C719   N636    1.385   1_655 S
C720   C264    1.391   1_556 S
C722   C873    1.333   .     S
C722   H883    1.088   .     S
C724   O745    1.290   .     A
C724   O747    1.290   .     A
C725   O748    1.290   .     A
C725   O746    1.290   .     A
C726   H727    1.084   .     S
H734   C873    1.088   .     S
N735   Zn750   2.031   .     S
N735   C618    1.385   1_655 S
N735   N636    1.279   1_655 S
N736   Zn749   2.031   .     S
N738   C867    1.157   .     S
O741   Zn749   1.957   .     S
O742   Zn750   1.957   .     S
O743   Zn750   1.971   .     S
O744   Zn749   1.971   .     S
O745   Zn749   1.995   .     S
O746   Zn750   1.995   .     S
O747   Zn750   2.005   .     S
O748   Zn749   2.005   .     S
C751   C772    1.399   .     S
C751   O791    1.284   .     A
C751   O793    1.289   .     A
C752   C754    1.389   .     A
C752   H778    1.084   .     S
C752   C763    1.392   .     A
C753   C776    1.389   .     A
C753   C775    1.414   .     S
C753   C755    1.387   .     A
C754   C774    1.414   .     S
C754   C756    1.387   .     A
C755   H779    1.086   .     S
C755   C757    1.382   .     A
C756   H780    1.086   .     S
C756   C758    1.382   .     A
C757   C759    1.414   .     A
C757   C764    1.397   .     A
C758   C760    1.414   .     A
C758   C765    1.397   .     A
C759   C761    1.420   .     A
C760   C763    1.420   .     A
C760   C309    1.393   1_556 S
C761   C776    1.392   .     A
C761   C771    1.412   .     A
C762   C773    1.399   .     S
C762   O794    1.289   .     A
C762   O792    1.284   .     A
C763   C770    1.412   .     A
C764   H781    1.086   .     S
C765   H782    1.086   .     S
C765   C321    1.391   1_556 S
C766   C770    1.446   .     S
C766   N487    1.157   1_565 S
C767   C771    1.446   .     S
C768   N789    1.158   .     T
C768   N885    1.385   1_455 S
C769   N790    1.158   .     T
C769   N836    1.385   .     S
C770   C314    1.391   1_556 S
C772   C473    1.333   1_565 S
C772   H483    1.088   1_565 S
C774   O795    1.290   .     A
C774   O797    1.290   .     A
C775   O798    1.290   .     A
C775   O796    1.290   .     A
C776   H777    1.084   .     S
H784   C473    1.088   1_565 S
N785   Zn800   2.031   .     S
N785   C818    1.385   .     S
N785   N836    1.279   .     S
N786   Zn799   2.031   .     S
N786   N885    1.279   1_455 S
N786   C869    1.385   1_455 S
N788   C467    1.157   1_565 S
O791   Zn799   1.957   .     S
O792   Zn800   1.957   .     S
O793   Zn800   1.971   .     S
O794   Zn799   1.971   .     S
O795   Zn799   1.995   .     S
O796   Zn800   1.995   .     S
O797   Zn800   2.005   .     S
O798   Zn799   2.005   .     S
C801   C822    1.399   .     S
C801   O841    1.284   .     A
C801   O843    1.289   .     A
C802   C804    1.389   .     A
C802   H828    1.084   .     S
C802   C813    1.392   .     A
C803   C826    1.389   .     A
C803   C825    1.414   .     S
C803   C805    1.387   .     A
C804   C824    1.414   .     S
C804   C806    1.387   .     A
C805   H829    1.086   .     S
C805   C807    1.382   .     A
C806   H830    1.086   .     S
C806   C808    1.382   .     A
C807   C809    1.414   .     A
C807   C814    1.397   .     A
C808   C810    1.414   .     A
C808   C815    1.397   .     A
C809   C811    1.420   .     A
C810   C813    1.420   .     A
C810   C359    1.393   1_556 S
C811   C826    1.392   .     A
C811   C821    1.412   .     A
C812   C823    1.399   .     S
C812   O844    1.289   .     A
C812   O842    1.284   .     A
C813   C820    1.412   .     A
C814   H831    1.086   .     S
C815   H832    1.086   .     S
C815   C371    1.391   1_556 S
C816   C820    1.446   .     S
C816   N537    1.157   1_565 S
C817   C821    1.446   .     S
C818   N839    1.158   .     T
C819   N840    1.158   .     T
C819   N886    1.385   .     S
C820   C364    1.391   1_556 S
C822   C523    1.333   1_565 S
C822   H533    1.088   1_565 S
C824   O845    1.290   .     A
C824   O847    1.290   .     A
C825   O848    1.290   .     A
C825   O846    1.290   .     A
C826   H827    1.084   .     S
H834   C523    1.088   1_565 S
N835   Zn850   2.031   .     S
N835   C868    1.385   .     S
N835   N886    1.279   .     S
N836   Zn849   2.031   .     S
N838   C517    1.157   1_565 S
O841   Zn849   1.957   .     S
O842   Zn850   1.957   .     S
O843   Zn850   1.971   .     S
O844   Zn849   1.971   .     S
O845   Zn849   1.995   .     S
O846   Zn850   1.995   .     S
O847   Zn850   2.005   .     S
O848   Zn849   2.005   .     S
C851   C872    1.399   .     S
C851   O891    1.284   .     A
C851   O893    1.289   .     A
C852   C854    1.389   .     A
C852   H878    1.084   .     S
C852   C863    1.392   .     A
C853   C876    1.389   .     A
C853   C875    1.414   .     S
C853   C855    1.387   .     A
C854   C874    1.414   .     S
C854   C856    1.387   .     A
C855   H879    1.086   .     S
C855   C857    1.382   .     A
C856   H880    1.086   .     S
C856   C858    1.382   .     A
C857   C859    1.414   .     A
C857   C864    1.397   .     A
C858   C860    1.414   .     A
C858   C865    1.397   .     A
C859   C861    1.420   .     A
C860   C863    1.420   .     A
C860   C409    1.393   1_556 S
C861   C876    1.392   .     A
C861   C871    1.412   .     A
C862   C873    1.399   .     S
C862   O894    1.289   .     A
C862   O892    1.284   .     A
C863   C870    1.412   .     A
C864   H881    1.086   .     S
C865   H882    1.086   .     S
C865   C421    1.391   1_556 S
C866   C870    1.446   .     S
C866   N587    1.157   1_565 S
C867   C871    1.446   .     S
C868   N889    1.158   .     T
C869   N890    1.158   .     T
C869   N786    1.385   1_655 S
C870   C414    1.391   1_556 S
C872   C573    1.333   1_565 S
C872   H583    1.088   1_565 S
C874   O895    1.290   .     A
C874   O897    1.290   .     A
C875   O898    1.290   .     A
C875   O896    1.290   .     A
C876   H877    1.084   .     S
H884   C573    1.088   1_565 S
N885   Zn900   2.031   .     S
N885   C768    1.385   1_655 S
N885   N786    1.279   1_655 S
N886   Zn899   2.031   .     S
N888   C567    1.157   1_565 S
O891   Zn899   1.957   .     S
O892   Zn900   1.957   .     S
O893   Zn900   1.971   .     S
O894   Zn899   1.971   .     S
O895   Zn899   1.995   .     S
O896   Zn900   1.995   .     S
O897   Zn900   2.005   .     S
O898   Zn899   2.005   .     S
