data_str_m3_o1_o18_pcu_sym.132
_audit_creation_date              2020-01-03
_audit_creation_method            'Materials Studio'
_symmetry_space_group_name_H-M    'P1'
_symmetry_Int_Tables_number       1
_symmetry_cell_setting            triclinic
loop_
_symmetry_equiv_pos_as_xyz
  x,y,z
_cell_length_a                    29.7032
_cell_length_b                    32.1228
_cell_length_c                    30.9612
_cell_angle_alpha                 91.1900
_cell_angle_beta                  67.3568
_cell_angle_gamma                 90.5721
loop_
_atom_site_label
_atom_site_type_symbol
_atom_site_fract_x
_atom_site_fract_y
_atom_site_fract_z
_atom_site_U_iso_or_equiv
_atom_site_adp_type
_atom_site_occupancy
C1     C     0.16686   0.24664   0.24990   0.00000  Uiso   1.00
C2     C     0.16647   0.08669   0.25010   0.00000  Uiso   1.00
C3     C     0.11257   0.18432   0.05145   0.00000  Uiso   1.00
C4     C     0.22076   0.14903   0.44855   0.00000  Uiso   1.00
C5     C     0.07944   0.19313   0.03138   0.00000  Uiso   1.00
C6     C     0.25390   0.14023   0.46861   0.00000  Uiso   1.00
C7     C     0.20213   0.31259   0.26083   0.00000  Uiso   1.00
C8     C     0.13120   0.02074   0.23917   0.00000  Uiso   1.00
C9     C     0.20175   0.02191   0.26118   0.00000  Uiso   1.00
C10    C     0.13159   0.31143   0.23882   0.00000  Uiso   1.00
C11    C     0.16632   0.04251   0.25029   0.00000  Uiso   1.00
C12    C     0.16701   0.29082   0.24971   0.00000  Uiso   1.00
C13    C     0.32206   0.14517   0.21653   0.00000  Uiso   1.00
C14    C     0.01127   0.18817   0.28347   0.00000  Uiso   1.00
C15    C     0.03702   0.14482   0.21599   0.00000  Uiso   1.00
C16    C     0.29631   0.18851   0.28401   0.00000  Uiso   1.00
C17    C     0.13595   0.16636   0.33792   0.00000  Uiso   1.00
C18    C     0.19739   0.16698   0.16208   0.00000  Uiso   1.00
C19    C     0.11596   0.16775   0.38881   0.00000  Uiso   1.00
C20    C     0.21737   0.16559   0.11119   0.00000  Uiso   1.00
C21    C     0.05996   0.19793   0.46162   0.00000  Uiso   1.00
C22    C     0.27338   0.13541   0.03837   0.00000  Uiso   1.00
C23    C     0.07395   0.19082   0.41364   0.00000  Uiso   1.00
C24    C     0.25938   0.14252   0.08636   0.00000  Uiso   1.00
C25    C     0.14270   0.15008   0.41213   0.00000  Uiso   1.00
C26    C     0.19064   0.18327   0.08787   0.00000  Uiso   1.00
C27    C     0.13614   0.16520   0.45710   0.00000  Uiso   1.00
C28    C     0.19720   0.16815   0.04290   0.00000  Uiso   1.00
C29    C     0.09156   0.18588   0.48360   0.00000  Uiso   1.00
C30    C     0.24177   0.14747   0.01640   0.00000  Uiso   1.00
C31    C     0.17246   0.16121   0.47621   0.00000  Uiso   1.00
C32    C     0.16088   0.17214   0.02379   0.00000  Uiso   1.00
H33    H     0.04399   0.20512   0.05379   0.00000  Uiso   1.00
H34    H     0.28935   0.12823   0.44621   0.00000  Uiso   1.00
H35    H     0.28088   0.12979   0.10441   0.00000  Uiso   1.00
H36    H     0.05245   0.20355   0.39559   0.00000  Uiso   1.00
H37    H     0.09929   0.18724   0.08902   0.00000  Uiso   1.00
H38    H     0.23404   0.14611   0.41098   0.00000  Uiso   1.00
H39    H     0.22948   0.29683   0.26959   0.00000  Uiso   1.00
H40    H     0.10385   0.03650   0.23041   0.00000  Uiso   1.00
H41    H     0.22888   0.03862   0.27020   0.00000  Uiso   1.00
H42    H     0.10445   0.29471   0.22980   0.00000  Uiso   1.00
H43    H     0.31284   0.12798   0.19071   0.00000  Uiso   1.00
H44    H     0.02049   0.20535   0.30929   0.00000  Uiso   1.00
N45    N     0.04759   0.16668   0.25001   0.00000  Uiso   1.00
N46    N     0.28574   0.16666   0.24999   0.00000  Uiso   1.00
O47    O     0.12846   0.22775   0.25000   0.00000  Uiso   1.00
O48    O     0.20488   0.10558   0.25000   0.00000  Uiso   1.00
O49    O     0.20490   0.22774   0.25000   0.00000  Uiso   1.00
O50    O     0.12843   0.10559   0.25000   0.00000  Uiso   1.00
O51    O     0.10661   0.16667   0.31612   0.00000  Uiso   1.00
O52    O     0.22672   0.16666   0.18388   0.00000  Uiso   1.00
O53    O     0.18305   0.16666   0.31612   0.00000  Uiso   1.00
O54    O     0.15028   0.16667   0.18388   0.00000  Uiso   1.00
Zn55   Zn    0.11562   0.16667   0.25000   0.00000  Uiso   1.00
Zn56   Zn    0.21771   0.16666   0.25000   0.00000  Uiso   1.00
C57    C     0.16339   0.22110   0.10754   0.00000  Uiso   1.00
N58    N     0.14187   0.25129   0.12331   0.00000  Uiso   1.00
C59    C     0.16995   0.11224   0.39246   0.00000  Uiso   1.00
N60    N     0.19147   0.08205   0.37669   0.00000  Uiso   1.00
C61    C     0.01508   0.22030   0.48643   0.00000  Uiso   1.00
N62    N     0.31247   0.23818   0.00625   0.00000  Uiso   1.00
C63    C     0.31826   0.11305   0.01357   0.00000  Uiso   1.00
N64    N     0.02087   0.09516   0.49374   0.00000  Uiso   1.00
N65    N     0.07480   0.12185   0.18048   0.00000  Uiso   1.00
H66    H     0.09496   0.10324   0.19273   0.00000  Uiso   1.00
C67    C     0.06653   0.10336   0.14109   0.00000  Uiso   1.00
H68    H     0.10169   0.09184   0.11469   0.00000  Uiso   1.00
H69    H     0.05187   0.12676   0.12408   0.00000  Uiso   1.00
H70    H     0.04095   0.07661   0.15277   0.00000  Uiso   1.00
N71    N     0.25853   0.21149   0.31952   0.00000  Uiso   1.00
H72    H     0.23837   0.23009   0.30727   0.00000  Uiso   1.00
C73    C     0.26681   0.22999   0.35890   0.00000  Uiso   1.00
H74    H     0.23165   0.24151   0.38530   0.00000  Uiso   1.00
H75    H     0.29239   0.25673   0.34721   0.00000  Uiso   1.00
H76    H     0.28147   0.20659   0.37591   0.00000  Uiso   1.00
C77    C     0.50020   0.24664   0.24990   0.00000  Uiso   1.00
C78    C     0.49980   0.08669   0.25010   0.00000  Uiso   1.00
C79    C     0.44591   0.18432   0.05145   0.00000  Uiso   1.00
C80    C     0.55410   0.14903   0.44855   0.00000  Uiso   1.00
C81    C     0.41277   0.19313   0.03138   0.00000  Uiso   1.00
C82    C     0.58723   0.14023   0.46861   0.00000  Uiso   1.00
C83    C     0.53546   0.31259   0.26083   0.00000  Uiso   1.00
C84    C     0.46454   0.02074   0.23917   0.00000  Uiso   1.00
C85    C     0.53508   0.02191   0.26118   0.00000  Uiso   1.00
C86    C     0.46492   0.31143   0.23882   0.00000  Uiso   1.00
C87    C     0.49966   0.04251   0.25029   0.00000  Uiso   1.00
C88    C     0.50034   0.29082   0.24971   0.00000  Uiso   1.00
C89    C     0.65540   0.14517   0.21653   0.00000  Uiso   1.00
C90    C     0.34460   0.18817   0.28347   0.00000  Uiso   1.00
C91    C     0.37036   0.14482   0.21599   0.00000  Uiso   1.00
C92    C     0.62964   0.18851   0.28401   0.00000  Uiso   1.00
C93    C     0.46928   0.16636   0.33792   0.00000  Uiso   1.00
C94    C     0.53072   0.16698   0.16208   0.00000  Uiso   1.00
C95    C     0.44929   0.16775   0.38881   0.00000  Uiso   1.00
C96    C     0.55071   0.16559   0.11119   0.00000  Uiso   1.00
C97    C     0.39329   0.19793   0.46162   0.00000  Uiso   1.00
C98    C     0.60671   0.13541   0.03837   0.00000  Uiso   1.00
C99    C     0.40728   0.19082   0.41364   0.00000  Uiso   1.00
C100   C     0.59272   0.14252   0.08636   0.00000  Uiso   1.00
C101   C     0.47603   0.15008   0.41213   0.00000  Uiso   1.00
C102   C     0.52397   0.18327   0.08787   0.00000  Uiso   1.00
C103   C     0.46947   0.16520   0.45710   0.00000  Uiso   1.00
C104   C     0.53053   0.16815   0.04290   0.00000  Uiso   1.00
C105   C     0.42489   0.18588   0.48360   0.00000  Uiso   1.00
C106   C     0.57511   0.14747   0.01640   0.00000  Uiso   1.00
C107   C     0.50579   0.16121   0.47621   0.00000  Uiso   1.00
C108   C     0.49421   0.17214   0.02379   0.00000  Uiso   1.00
H109   H     0.37732   0.20512   0.05379   0.00000  Uiso   1.00
H110   H     0.62268   0.12823   0.44621   0.00000  Uiso   1.00
H111   H     0.61421   0.12979   0.10441   0.00000  Uiso   1.00
H112   H     0.38579   0.20355   0.39559   0.00000  Uiso   1.00
H113   H     0.43263   0.18724   0.08902   0.00000  Uiso   1.00
H114   H     0.56737   0.14611   0.41098   0.00000  Uiso   1.00
H115   H     0.56281   0.29683   0.26959   0.00000  Uiso   1.00
H116   H     0.43719   0.03650   0.23041   0.00000  Uiso   1.00
H117   H     0.56222   0.03862   0.27020   0.00000  Uiso   1.00
H118   H     0.43778   0.29471   0.22980   0.00000  Uiso   1.00
H119   H     0.64618   0.12798   0.19071   0.00000  Uiso   1.00
H120   H     0.35382   0.20535   0.30929   0.00000  Uiso   1.00
N121   N     0.38093   0.16668   0.25001   0.00000  Uiso   1.00
N122   N     0.61907   0.16666   0.24999   0.00000  Uiso   1.00
O123   O     0.46179   0.22775   0.25000   0.00000  Uiso   1.00
O124   O     0.53821   0.10558   0.25000   0.00000  Uiso   1.00
O125   O     0.53823   0.22774   0.25000   0.00000  Uiso   1.00
O126   O     0.46177   0.10559   0.25000   0.00000  Uiso   1.00
O127   O     0.43994   0.16667   0.31612   0.00000  Uiso   1.00
O128   O     0.56006   0.16666   0.18388   0.00000  Uiso   1.00
O129   O     0.51639   0.16666   0.31612   0.00000  Uiso   1.00
O130   O     0.48361   0.16667   0.18388   0.00000  Uiso   1.00
Zn131  Zn    0.44896   0.16667   0.25000   0.00000  Uiso   1.00
Zn132  Zn    0.55104   0.16666   0.25000   0.00000  Uiso   1.00
C133   C     0.49672   0.22110   0.10754   0.00000  Uiso   1.00
N134   N     0.47520   0.25129   0.12331   0.00000  Uiso   1.00
C135   C     0.50328   0.11224   0.39246   0.00000  Uiso   1.00
N136   N     0.52480   0.08205   0.37669   0.00000  Uiso   1.00
C137   C     0.34841   0.22030   0.48643   0.00000  Uiso   1.00
N138   N     0.64580   0.23818   0.00625   0.00000  Uiso   1.00
C139   C     0.65159   0.11305   0.01357   0.00000  Uiso   1.00
N140   N     0.35420   0.09516   0.49374   0.00000  Uiso   1.00
N141   N     0.40814   0.12185   0.18048   0.00000  Uiso   1.00
H142   H     0.42829   0.10324   0.19273   0.00000  Uiso   1.00
C143   C     0.39986   0.10336   0.14109   0.00000  Uiso   1.00
H144   H     0.43502   0.09184   0.11469   0.00000  Uiso   1.00
H145   H     0.38520   0.12676   0.12408   0.00000  Uiso   1.00
H146   H     0.37428   0.07661   0.15277   0.00000  Uiso   1.00
N147   N     0.59186   0.21149   0.31952   0.00000  Uiso   1.00
H148   H     0.57171   0.23009   0.30727   0.00000  Uiso   1.00
C149   C     0.60015   0.22999   0.35890   0.00000  Uiso   1.00
H150   H     0.56499   0.24151   0.38530   0.00000  Uiso   1.00
H151   H     0.62573   0.25673   0.34721   0.00000  Uiso   1.00
H152   H     0.61480   0.20659   0.37591   0.00000  Uiso   1.00
C153   C     0.83353   0.24664   0.24990   0.00000  Uiso   1.00
C154   C     0.83314   0.08669   0.25010   0.00000  Uiso   1.00
C155   C     0.77924   0.18432   0.05145   0.00000  Uiso   1.00
C156   C     0.88743   0.14903   0.44855   0.00000  Uiso   1.00
C157   C     0.74611   0.19313   0.03138   0.00000  Uiso   1.00
C158   C     0.92056   0.14023   0.46861   0.00000  Uiso   1.00
C159   C     0.86880   0.31259   0.26083   0.00000  Uiso   1.00
C160   C     0.79787   0.02074   0.23917   0.00000  Uiso   1.00
C161   C     0.86841   0.02191   0.26118   0.00000  Uiso   1.00
C162   C     0.79825   0.31143   0.23882   0.00000  Uiso   1.00
C163   C     0.83299   0.04251   0.25029   0.00000  Uiso   1.00
C164   C     0.83368   0.29082   0.24971   0.00000  Uiso   1.00
C165   C     0.98873   0.14517   0.21653   0.00000  Uiso   1.00
C166   C     0.67794   0.18817   0.28347   0.00000  Uiso   1.00
C167   C     0.70369   0.14482   0.21599   0.00000  Uiso   1.00
C168   C     0.96298   0.18851   0.28401   0.00000  Uiso   1.00
C169   C     0.80261   0.16636   0.33792   0.00000  Uiso   1.00
C170   C     0.86405   0.16698   0.16208   0.00000  Uiso   1.00
C171   C     0.78263   0.16775   0.38881   0.00000  Uiso   1.00
C172   C     0.88404   0.16559   0.11119   0.00000  Uiso   1.00
C173   C     0.72663   0.19793   0.46162   0.00000  Uiso   1.00
C174   C     0.94004   0.13541   0.03837   0.00000  Uiso   1.00
C175   C     0.74062   0.19082   0.41364   0.00000  Uiso   1.00
C176   C     0.92605   0.14252   0.08636   0.00000  Uiso   1.00
C177   C     0.80937   0.15008   0.41213   0.00000  Uiso   1.00
C178   C     0.85730   0.18327   0.08787   0.00000  Uiso   1.00
C179   C     0.80281   0.16520   0.45710   0.00000  Uiso   1.00
C180   C     0.86386   0.16815   0.04290   0.00000  Uiso   1.00
C181   C     0.75823   0.18588   0.48360   0.00000  Uiso   1.00
C182   C     0.90844   0.14747   0.01640   0.00000  Uiso   1.00
C183   C     0.83912   0.16121   0.47621   0.00000  Uiso   1.00
C184   C     0.82755   0.17214   0.02379   0.00000  Uiso   1.00
H185   H     0.71065   0.20512   0.05379   0.00000  Uiso   1.00
H186   H     0.95602   0.12823   0.44621   0.00000  Uiso   1.00
H187   H     0.94755   0.12979   0.10441   0.00000  Uiso   1.00
H188   H     0.71912   0.20355   0.39559   0.00000  Uiso   1.00
H189   H     0.76596   0.18724   0.08902   0.00000  Uiso   1.00
H190   H     0.90071   0.14611   0.41098   0.00000  Uiso   1.00
H191   H     0.89615   0.29683   0.26959   0.00000  Uiso   1.00
H192   H     0.77052   0.03650   0.23041   0.00000  Uiso   1.00
H193   H     0.89555   0.03862   0.27020   0.00000  Uiso   1.00
H194   H     0.77112   0.29471   0.22980   0.00000  Uiso   1.00
H195   H     0.97951   0.12798   0.19071   0.00000  Uiso   1.00
H196   H     0.68716   0.20535   0.30929   0.00000  Uiso   1.00
N197   N     0.71426   0.16668   0.25001   0.00000  Uiso   1.00
N198   N     0.95241   0.16666   0.24999   0.00000  Uiso   1.00
O199   O     0.79512   0.22775   0.25000   0.00000  Uiso   1.00
O200   O     0.87154   0.10558   0.25000   0.00000  Uiso   1.00
O201   O     0.87157   0.22774   0.25000   0.00000  Uiso   1.00
O202   O     0.79510   0.10559   0.25000   0.00000  Uiso   1.00
O203   O     0.77328   0.16667   0.31612   0.00000  Uiso   1.00
O204   O     0.89339   0.16666   0.18388   0.00000  Uiso   1.00
O205   O     0.84972   0.16666   0.31612   0.00000  Uiso   1.00
O206   O     0.81695   0.16667   0.18388   0.00000  Uiso   1.00
Zn207  Zn    0.78229   0.16667   0.25000   0.00000  Uiso   1.00
Zn208  Zn    0.88438   0.16666   0.25000   0.00000  Uiso   1.00
C209   C     0.83005   0.22110   0.10754   0.00000  Uiso   1.00
N210   N     0.80853   0.25129   0.12331   0.00000  Uiso   1.00
C211   C     0.83662   0.11224   0.39246   0.00000  Uiso   1.00
N212   N     0.85814   0.08205   0.37669   0.00000  Uiso   1.00
C213   C     0.68174   0.22030   0.48643   0.00000  Uiso   1.00
N214   N     0.97914   0.23818   0.00625   0.00000  Uiso   1.00
C215   C     0.98492   0.11305   0.01357   0.00000  Uiso   1.00
N216   N     0.68753   0.09516   0.49374   0.00000  Uiso   1.00
N217   N     0.74147   0.12185   0.18048   0.00000  Uiso   1.00
H218   H     0.76162   0.10324   0.19273   0.00000  Uiso   1.00
C219   C     0.73319   0.10336   0.14109   0.00000  Uiso   1.00
H220   H     0.76835   0.09184   0.11469   0.00000  Uiso   1.00
H221   H     0.71854   0.12676   0.12408   0.00000  Uiso   1.00
H222   H     0.70761   0.07661   0.15277   0.00000  Uiso   1.00
N223   N     0.92520   0.21149   0.31952   0.00000  Uiso   1.00
H224   H     0.90504   0.23009   0.30727   0.00000  Uiso   1.00
C225   C     0.93348   0.22999   0.35890   0.00000  Uiso   1.00
H226   H     0.89832   0.24151   0.38530   0.00000  Uiso   1.00
H227   H     0.95906   0.25673   0.34721   0.00000  Uiso   1.00
H228   H     0.94813   0.20659   0.37591   0.00000  Uiso   1.00
C229   C     0.16686   0.57998   0.24990   0.00000  Uiso   1.00
C230   C     0.16647   0.42002   0.25010   0.00000  Uiso   1.00
C231   C     0.11257   0.51765   0.05145   0.00000  Uiso   1.00
C232   C     0.22076   0.48237   0.44855   0.00000  Uiso   1.00
C233   C     0.07944   0.52646   0.03138   0.00000  Uiso   1.00
C234   C     0.25390   0.47356   0.46861   0.00000  Uiso   1.00
C235   C     0.20213   0.64592   0.26083   0.00000  Uiso   1.00
C236   C     0.13120   0.35408   0.23917   0.00000  Uiso   1.00
C237   C     0.20175   0.35524   0.26118   0.00000  Uiso   1.00
C238   C     0.13159   0.64476   0.23882   0.00000  Uiso   1.00
C239   C     0.16632   0.37585   0.25029   0.00000  Uiso   1.00
C240   C     0.16701   0.62415   0.24971   0.00000  Uiso   1.00
C241   C     0.32206   0.47850   0.21653   0.00000  Uiso   1.00
C242   C     0.01127   0.52150   0.28347   0.00000  Uiso   1.00
C243   C     0.03702   0.47816   0.21599   0.00000  Uiso   1.00
C244   C     0.29631   0.52184   0.28401   0.00000  Uiso   1.00
C245   C     0.13595   0.49969   0.33792   0.00000  Uiso   1.00
C246   C     0.19739   0.50031   0.16208   0.00000  Uiso   1.00
C247   C     0.11596   0.50108   0.38881   0.00000  Uiso   1.00
C248   C     0.21737   0.49892   0.11119   0.00000  Uiso   1.00
C249   C     0.05996   0.53127   0.46162   0.00000  Uiso   1.00
C250   C     0.27338   0.46875   0.03837   0.00000  Uiso   1.00
C251   C     0.07395   0.52416   0.41364   0.00000  Uiso   1.00
C252   C     0.25938   0.47585   0.08636   0.00000  Uiso   1.00
C253   C     0.14270   0.48341   0.41213   0.00000  Uiso   1.00
C254   C     0.19064   0.51660   0.08787   0.00000  Uiso   1.00
C255   C     0.13614   0.49853   0.45710   0.00000  Uiso   1.00
C256   C     0.19720   0.50148   0.04290   0.00000  Uiso   1.00
C257   C     0.09156   0.51921   0.48360   0.00000  Uiso   1.00
C258   C     0.24177   0.48081   0.01640   0.00000  Uiso   1.00
C259   C     0.17246   0.49455   0.47621   0.00000  Uiso   1.00
C260   C     0.16088   0.50547   0.02379   0.00000  Uiso   1.00
H261   H     0.04399   0.53845   0.05379   0.00000  Uiso   1.00
H262   H     0.28935   0.46157   0.44621   0.00000  Uiso   1.00
H263   H     0.28088   0.46312   0.10441   0.00000  Uiso   1.00
H264   H     0.05245   0.53688   0.39559   0.00000  Uiso   1.00
H265   H     0.09929   0.52057   0.08902   0.00000  Uiso   1.00
H266   H     0.23404   0.47945   0.41098   0.00000  Uiso   1.00
H267   H     0.22948   0.63016   0.26959   0.00000  Uiso   1.00
H268   H     0.10385   0.36984   0.23041   0.00000  Uiso   1.00
H269   H     0.22888   0.37196   0.27020   0.00000  Uiso   1.00
H270   H     0.10445   0.62804   0.22980   0.00000  Uiso   1.00
H271   H     0.31284   0.46132   0.19071   0.00000  Uiso   1.00
H272   H     0.02049   0.53868   0.30929   0.00000  Uiso   1.00
N273   N     0.04759   0.50001   0.25001   0.00000  Uiso   1.00
N274   N     0.28574   0.49999   0.24999   0.00000  Uiso   1.00
O275   O     0.12846   0.56108   0.25000   0.00000  Uiso   1.00
O276   O     0.20488   0.43892   0.25000   0.00000  Uiso   1.00
O277   O     0.20490   0.56107   0.25000   0.00000  Uiso   1.00
O278   O     0.12843   0.43893   0.25000   0.00000  Uiso   1.00
O279   O     0.10661   0.50001   0.31612   0.00000  Uiso   1.00
O280   O     0.22672   0.49999   0.18388   0.00000  Uiso   1.00
O281   O     0.18305   0.50000   0.31612   0.00000  Uiso   1.00
O282   O     0.15028   0.50000   0.18388   0.00000  Uiso   1.00
Zn283  Zn    0.11562   0.50001   0.25000   0.00000  Uiso   1.00
Zn284  Zn    0.21771   0.49999   0.25000   0.00000  Uiso   1.00
C285   C     0.16339   0.55443   0.10754   0.00000  Uiso   1.00
N286   N     0.14187   0.58463   0.12331   0.00000  Uiso   1.00
C287   C     0.16995   0.44558   0.39246   0.00000  Uiso   1.00
N288   N     0.19147   0.41539   0.37669   0.00000  Uiso   1.00
C289   C     0.01508   0.55363   0.48643   0.00000  Uiso   1.00
N290   N     0.31247   0.57152   0.00625   0.00000  Uiso   1.00
C291   C     0.31826   0.44638   0.01357   0.00000  Uiso   1.00
N292   N     0.02087   0.42850   0.49374   0.00000  Uiso   1.00
N293   N     0.07480   0.45518   0.18048   0.00000  Uiso   1.00
H294   H     0.09496   0.43657   0.19273   0.00000  Uiso   1.00
C295   C     0.06653   0.43669   0.14109   0.00000  Uiso   1.00
H296   H     0.10169   0.42518   0.11469   0.00000  Uiso   1.00
H297   H     0.05187   0.46010   0.12408   0.00000  Uiso   1.00
H298   H     0.04095   0.40995   0.15277   0.00000  Uiso   1.00
N299   N     0.25853   0.54482   0.31952   0.00000  Uiso   1.00
H300   H     0.23837   0.56342   0.30727   0.00000  Uiso   1.00
C301   C     0.26681   0.56332   0.35890   0.00000  Uiso   1.00
H302   H     0.23165   0.57484   0.38530   0.00000  Uiso   1.00
H303   H     0.29239   0.59006   0.34721   0.00000  Uiso   1.00
H304   H     0.28147   0.53992   0.37591   0.00000  Uiso   1.00
C305   C     0.50020   0.57998   0.24990   0.00000  Uiso   1.00
C306   C     0.49980   0.42002   0.25010   0.00000  Uiso   1.00
C307   C     0.44591   0.51765   0.05145   0.00000  Uiso   1.00
C308   C     0.55410   0.48237   0.44855   0.00000  Uiso   1.00
C309   C     0.41277   0.52646   0.03138   0.00000  Uiso   1.00
C310   C     0.58723   0.47356   0.46861   0.00000  Uiso   1.00
C311   C     0.53546   0.64592   0.26083   0.00000  Uiso   1.00
C312   C     0.46454   0.35408   0.23917   0.00000  Uiso   1.00
C313   C     0.53508   0.35524   0.26118   0.00000  Uiso   1.00
C314   C     0.46492   0.64476   0.23882   0.00000  Uiso   1.00
C315   C     0.49966   0.37585   0.25029   0.00000  Uiso   1.00
C316   C     0.50034   0.62415   0.24971   0.00000  Uiso   1.00
C317   C     0.65540   0.47850   0.21653   0.00000  Uiso   1.00
C318   C     0.34460   0.52150   0.28347   0.00000  Uiso   1.00
C319   C     0.37036   0.47816   0.21599   0.00000  Uiso   1.00
C320   C     0.62964   0.52184   0.28401   0.00000  Uiso   1.00
C321   C     0.46928   0.49969   0.33792   0.00000  Uiso   1.00
C322   C     0.53072   0.50031   0.16208   0.00000  Uiso   1.00
C323   C     0.44929   0.50108   0.38881   0.00000  Uiso   1.00
C324   C     0.55071   0.49892   0.11119   0.00000  Uiso   1.00
C325   C     0.39329   0.53127   0.46162   0.00000  Uiso   1.00
C326   C     0.60671   0.46875   0.03837   0.00000  Uiso   1.00
C327   C     0.40728   0.52416   0.41364   0.00000  Uiso   1.00
C328   C     0.59272   0.47585   0.08636   0.00000  Uiso   1.00
C329   C     0.47603   0.48341   0.41213   0.00000  Uiso   1.00
C330   C     0.52397   0.51660   0.08787   0.00000  Uiso   1.00
C331   C     0.46947   0.49853   0.45710   0.00000  Uiso   1.00
C332   C     0.53053   0.50148   0.04290   0.00000  Uiso   1.00
C333   C     0.42489   0.51921   0.48360   0.00000  Uiso   1.00
C334   C     0.57511   0.48081   0.01640   0.00000  Uiso   1.00
C335   C     0.50579   0.49455   0.47621   0.00000  Uiso   1.00
C336   C     0.49421   0.50547   0.02379   0.00000  Uiso   1.00
H337   H     0.37732   0.53845   0.05379   0.00000  Uiso   1.00
H338   H     0.62268   0.46157   0.44621   0.00000  Uiso   1.00
H339   H     0.61421   0.46312   0.10441   0.00000  Uiso   1.00
H340   H     0.38579   0.53688   0.39559   0.00000  Uiso   1.00
H341   H     0.43263   0.52057   0.08902   0.00000  Uiso   1.00
H342   H     0.56737   0.47945   0.41098   0.00000  Uiso   1.00
H343   H     0.56281   0.63016   0.26959   0.00000  Uiso   1.00
H344   H     0.43719   0.36984   0.23041   0.00000  Uiso   1.00
H345   H     0.56222   0.37196   0.27020   0.00000  Uiso   1.00
H346   H     0.43778   0.62804   0.22980   0.00000  Uiso   1.00
H347   H     0.64618   0.46132   0.19071   0.00000  Uiso   1.00
H348   H     0.35382   0.53868   0.30929   0.00000  Uiso   1.00
N349   N     0.38093   0.50001   0.25001   0.00000  Uiso   1.00
N350   N     0.61907   0.49999   0.24999   0.00000  Uiso   1.00
O351   O     0.46179   0.56108   0.25000   0.00000  Uiso   1.00
O352   O     0.53821   0.43892   0.25000   0.00000  Uiso   1.00
O353   O     0.53823   0.56107   0.25000   0.00000  Uiso   1.00
O354   O     0.46177   0.43893   0.25000   0.00000  Uiso   1.00
O355   O     0.43994   0.50001   0.31612   0.00000  Uiso   1.00
O356   O     0.56006   0.49999   0.18388   0.00000  Uiso   1.00
O357   O     0.51639   0.50000   0.31612   0.00000  Uiso   1.00
O358   O     0.48361   0.50000   0.18388   0.00000  Uiso   1.00
Zn359  Zn    0.44896   0.50001   0.25000   0.00000  Uiso   1.00
Zn360  Zn    0.55104   0.49999   0.25000   0.00000  Uiso   1.00
C361   C     0.49672   0.55443   0.10754   0.00000  Uiso   1.00
N362   N     0.47520   0.58463   0.12331   0.00000  Uiso   1.00
C363   C     0.50328   0.44558   0.39246   0.00000  Uiso   1.00
N364   N     0.52480   0.41539   0.37669   0.00000  Uiso   1.00
C365   C     0.34841   0.55363   0.48643   0.00000  Uiso   1.00
N366   N     0.64580   0.57152   0.00625   0.00000  Uiso   1.00
C367   C     0.65159   0.44638   0.01357   0.00000  Uiso   1.00
N368   N     0.35420   0.42850   0.49374   0.00000  Uiso   1.00
N369   N     0.40814   0.45518   0.18048   0.00000  Uiso   1.00
H370   H     0.42829   0.43657   0.19273   0.00000  Uiso   1.00
C371   C     0.39986   0.43669   0.14109   0.00000  Uiso   1.00
H372   H     0.43502   0.42518   0.11469   0.00000  Uiso   1.00
H373   H     0.38520   0.46010   0.12408   0.00000  Uiso   1.00
H374   H     0.37428   0.40995   0.15277   0.00000  Uiso   1.00
N375   N     0.59186   0.54482   0.31952   0.00000  Uiso   1.00
H376   H     0.57171   0.56342   0.30727   0.00000  Uiso   1.00
C377   C     0.60015   0.56332   0.35890   0.00000  Uiso   1.00
H378   H     0.56499   0.57484   0.38530   0.00000  Uiso   1.00
H379   H     0.62573   0.59006   0.34721   0.00000  Uiso   1.00
H380   H     0.61480   0.53992   0.37591   0.00000  Uiso   1.00
C381   C     0.83353   0.57998   0.24990   0.00000  Uiso   1.00
C382   C     0.83314   0.42002   0.25010   0.00000  Uiso   1.00
C383   C     0.77924   0.51765   0.05145   0.00000  Uiso   1.00
C384   C     0.88743   0.48237   0.44855   0.00000  Uiso   1.00
C385   C     0.74611   0.52646   0.03138   0.00000  Uiso   1.00
C386   C     0.92056   0.47356   0.46861   0.00000  Uiso   1.00
C387   C     0.86880   0.64592   0.26083   0.00000  Uiso   1.00
C388   C     0.79787   0.35408   0.23917   0.00000  Uiso   1.00
C389   C     0.86841   0.35524   0.26118   0.00000  Uiso   1.00
C390   C     0.79825   0.64476   0.23882   0.00000  Uiso   1.00
C391   C     0.83299   0.37585   0.25029   0.00000  Uiso   1.00
C392   C     0.83368   0.62415   0.24971   0.00000  Uiso   1.00
C393   C     0.98873   0.47850   0.21653   0.00000  Uiso   1.00
C394   C     0.67794   0.52150   0.28347   0.00000  Uiso   1.00
C395   C     0.70369   0.47816   0.21599   0.00000  Uiso   1.00
C396   C     0.96298   0.52184   0.28401   0.00000  Uiso   1.00
C397   C     0.80261   0.49969   0.33792   0.00000  Uiso   1.00
C398   C     0.86405   0.50031   0.16208   0.00000  Uiso   1.00
C399   C     0.78263   0.50108   0.38881   0.00000  Uiso   1.00
C400   C     0.88404   0.49892   0.11119   0.00000  Uiso   1.00
C401   C     0.72663   0.53127   0.46162   0.00000  Uiso   1.00
C402   C     0.94004   0.46875   0.03837   0.00000  Uiso   1.00
C403   C     0.74062   0.52416   0.41364   0.00000  Uiso   1.00
C404   C     0.92605   0.47585   0.08636   0.00000  Uiso   1.00
C405   C     0.80937   0.48341   0.41213   0.00000  Uiso   1.00
C406   C     0.85730   0.51660   0.08787   0.00000  Uiso   1.00
C407   C     0.80281   0.49853   0.45710   0.00000  Uiso   1.00
C408   C     0.86386   0.50148   0.04290   0.00000  Uiso   1.00
C409   C     0.75823   0.51921   0.48360   0.00000  Uiso   1.00
C410   C     0.90844   0.48081   0.01640   0.00000  Uiso   1.00
C411   C     0.83912   0.49455   0.47621   0.00000  Uiso   1.00
C412   C     0.82755   0.50547   0.02379   0.00000  Uiso   1.00
H413   H     0.71065   0.53845   0.05379   0.00000  Uiso   1.00
H414   H     0.95602   0.46157   0.44621   0.00000  Uiso   1.00
H415   H     0.94755   0.46312   0.10441   0.00000  Uiso   1.00
H416   H     0.71912   0.53688   0.39559   0.00000  Uiso   1.00
H417   H     0.76596   0.52057   0.08902   0.00000  Uiso   1.00
H418   H     0.90071   0.47945   0.41098   0.00000  Uiso   1.00
H419   H     0.89615   0.63016   0.26959   0.00000  Uiso   1.00
H420   H     0.77052   0.36984   0.23041   0.00000  Uiso   1.00
H421   H     0.89555   0.37196   0.27020   0.00000  Uiso   1.00
H422   H     0.77112   0.62804   0.22980   0.00000  Uiso   1.00
H423   H     0.97951   0.46132   0.19071   0.00000  Uiso   1.00
H424   H     0.68716   0.53868   0.30929   0.00000  Uiso   1.00
N425   N     0.71426   0.50001   0.25001   0.00000  Uiso   1.00
N426   N     0.95241   0.49999   0.24999   0.00000  Uiso   1.00
O427   O     0.79512   0.56108   0.25000   0.00000  Uiso   1.00
O428   O     0.87154   0.43892   0.25000   0.00000  Uiso   1.00
O429   O     0.87157   0.56107   0.25000   0.00000  Uiso   1.00
O430   O     0.79510   0.43893   0.25000   0.00000  Uiso   1.00
O431   O     0.77328   0.50001   0.31612   0.00000  Uiso   1.00
O432   O     0.89339   0.49999   0.18388   0.00000  Uiso   1.00
O433   O     0.84972   0.50000   0.31612   0.00000  Uiso   1.00
O434   O     0.81695   0.50000   0.18388   0.00000  Uiso   1.00
Zn435  Zn    0.78229   0.50001   0.25000   0.00000  Uiso   1.00
Zn436  Zn    0.88438   0.49999   0.25000   0.00000  Uiso   1.00
C437   C     0.83005   0.55443   0.10754   0.00000  Uiso   1.00
N438   N     0.80853   0.58463   0.12331   0.00000  Uiso   1.00
C439   C     0.83662   0.44558   0.39246   0.00000  Uiso   1.00
N440   N     0.85814   0.41539   0.37669   0.00000  Uiso   1.00
C441   C     0.68174   0.55363   0.48643   0.00000  Uiso   1.00
N442   N     0.97914   0.57152   0.00625   0.00000  Uiso   1.00
C443   C     0.98492   0.44638   0.01357   0.00000  Uiso   1.00
N444   N     0.68753   0.42850   0.49374   0.00000  Uiso   1.00
N445   N     0.74147   0.45518   0.18048   0.00000  Uiso   1.00
H446   H     0.76162   0.43657   0.19273   0.00000  Uiso   1.00
C447   C     0.73319   0.43669   0.14109   0.00000  Uiso   1.00
H448   H     0.76835   0.42518   0.11469   0.00000  Uiso   1.00
H449   H     0.71854   0.46010   0.12408   0.00000  Uiso   1.00
H450   H     0.70761   0.40995   0.15277   0.00000  Uiso   1.00
N451   N     0.92520   0.54482   0.31952   0.00000  Uiso   1.00
H452   H     0.90504   0.56342   0.30727   0.00000  Uiso   1.00
C453   C     0.93348   0.56332   0.35890   0.00000  Uiso   1.00
H454   H     0.89832   0.57484   0.38530   0.00000  Uiso   1.00
H455   H     0.95906   0.59006   0.34721   0.00000  Uiso   1.00
H456   H     0.94813   0.53992   0.37591   0.00000  Uiso   1.00
C457   C     0.16686   0.91331   0.24990   0.00000  Uiso   1.00
C458   C     0.16647   0.75336   0.25010   0.00000  Uiso   1.00
C459   C     0.11257   0.85099   0.05145   0.00000  Uiso   1.00
C460   C     0.22076   0.81570   0.44855   0.00000  Uiso   1.00
C461   C     0.07944   0.85979   0.03138   0.00000  Uiso   1.00
C462   C     0.25390   0.80689   0.46861   0.00000  Uiso   1.00
C463   C     0.20213   0.97926   0.26083   0.00000  Uiso   1.00
C464   C     0.13120   0.68741   0.23917   0.00000  Uiso   1.00
C465   C     0.20175   0.68857   0.26118   0.00000  Uiso   1.00
C466   C     0.13159   0.97809   0.23882   0.00000  Uiso   1.00
C467   C     0.16632   0.70918   0.25029   0.00000  Uiso   1.00
C468   C     0.16701   0.95749   0.24971   0.00000  Uiso   1.00
C469   C     0.32206   0.81183   0.21653   0.00000  Uiso   1.00
C470   C     0.01127   0.85483   0.28347   0.00000  Uiso   1.00
C471   C     0.03702   0.81149   0.21599   0.00000  Uiso   1.00
C472   C     0.29631   0.85518   0.28401   0.00000  Uiso   1.00
C473   C     0.13595   0.83302   0.33792   0.00000  Uiso   1.00
C474   C     0.19739   0.83364   0.16208   0.00000  Uiso   1.00
C475   C     0.11596   0.83442   0.38881   0.00000  Uiso   1.00
C476   C     0.21737   0.83225   0.11119   0.00000  Uiso   1.00
C477   C     0.05996   0.86460   0.46162   0.00000  Uiso   1.00
C478   C     0.27338   0.80208   0.03837   0.00000  Uiso   1.00
C479   C     0.07395   0.85749   0.41364   0.00000  Uiso   1.00
C480   C     0.25938   0.80918   0.08636   0.00000  Uiso   1.00
C481   C     0.14270   0.81674   0.41213   0.00000  Uiso   1.00
C482   C     0.19064   0.84993   0.08787   0.00000  Uiso   1.00
C483   C     0.13614   0.83187   0.45710   0.00000  Uiso   1.00
C484   C     0.19720   0.83482   0.04290   0.00000  Uiso   1.00
C485   C     0.09156   0.85254   0.48360   0.00000  Uiso   1.00
C486   C     0.24177   0.81414   0.01640   0.00000  Uiso   1.00
C487   C     0.17246   0.82788   0.47621   0.00000  Uiso   1.00
C488   C     0.16088   0.83880   0.02379   0.00000  Uiso   1.00
H489   H     0.04399   0.87179   0.05379   0.00000  Uiso   1.00
H490   H     0.28935   0.79490   0.44621   0.00000  Uiso   1.00
H491   H     0.28088   0.79645   0.10441   0.00000  Uiso   1.00
H492   H     0.05245   0.87022   0.39559   0.00000  Uiso   1.00
H493   H     0.09929   0.85391   0.08902   0.00000  Uiso   1.00
H494   H     0.23404   0.81278   0.41098   0.00000  Uiso   1.00
H495   H     0.22948   0.96350   0.26959   0.00000  Uiso   1.00
H496   H     0.10385   0.70317   0.23041   0.00000  Uiso   1.00
H497   H     0.22888   0.70529   0.27020   0.00000  Uiso   1.00
H498   H     0.10445   0.96138   0.22980   0.00000  Uiso   1.00
H499   H     0.31284   0.79465   0.19071   0.00000  Uiso   1.00
H500   H     0.02049   0.87202   0.30929   0.00000  Uiso   1.00
N501   N     0.04759   0.83334   0.25001   0.00000  Uiso   1.00
N502   N     0.28574   0.83332   0.24999   0.00000  Uiso   1.00
O503   O     0.12846   0.89442   0.25000   0.00000  Uiso   1.00
O504   O     0.20488   0.77225   0.25000   0.00000  Uiso   1.00
O505   O     0.20490   0.89441   0.25000   0.00000  Uiso   1.00
O506   O     0.12843   0.77226   0.25000   0.00000  Uiso   1.00
O507   O     0.10661   0.83334   0.31612   0.00000  Uiso   1.00
O508   O     0.22672   0.83333   0.18388   0.00000  Uiso   1.00
O509   O     0.18305   0.83333   0.31612   0.00000  Uiso   1.00
O510   O     0.15028   0.83334   0.18388   0.00000  Uiso   1.00
Zn511  Zn    0.11562   0.83334   0.25000   0.00000  Uiso   1.00
Zn512  Zn    0.21771   0.83333   0.25000   0.00000  Uiso   1.00
C513   C     0.16339   0.88777   0.10754   0.00000  Uiso   1.00
N514   N     0.14187   0.91796   0.12331   0.00000  Uiso   1.00
C515   C     0.16995   0.77891   0.39246   0.00000  Uiso   1.00
N516   N     0.19147   0.74872   0.37669   0.00000  Uiso   1.00
C517   C     0.01508   0.88696   0.48643   0.00000  Uiso   1.00
N518   N     0.31247   0.90485   0.00625   0.00000  Uiso   1.00
C519   C     0.31826   0.77972   0.01357   0.00000  Uiso   1.00
N520   N     0.02087   0.76183   0.49374   0.00000  Uiso   1.00
N521   N     0.07480   0.78852   0.18048   0.00000  Uiso   1.00
H522   H     0.09496   0.76991   0.19273   0.00000  Uiso   1.00
C523   C     0.06653   0.77002   0.14109   0.00000  Uiso   1.00
H524   H     0.10169   0.75851   0.11469   0.00000  Uiso   1.00
H525   H     0.05187   0.79343   0.12408   0.00000  Uiso   1.00
H526   H     0.04095   0.74328   0.15277   0.00000  Uiso   1.00
N527   N     0.25853   0.87815   0.31952   0.00000  Uiso   1.00
H528   H     0.23837   0.89676   0.30727   0.00000  Uiso   1.00
C529   C     0.26681   0.89666   0.35890   0.00000  Uiso   1.00
H530   H     0.23165   0.90818   0.38530   0.00000  Uiso   1.00
H531   H     0.29239   0.92340   0.34721   0.00000  Uiso   1.00
H532   H     0.28147   0.87326   0.37591   0.00000  Uiso   1.00
C533   C     0.50020   0.91331   0.24990   0.00000  Uiso   1.00
C534   C     0.49980   0.75336   0.25010   0.00000  Uiso   1.00
C535   C     0.44591   0.85099   0.05145   0.00000  Uiso   1.00
C536   C     0.55410   0.81570   0.44855   0.00000  Uiso   1.00
C537   C     0.41277   0.85979   0.03138   0.00000  Uiso   1.00
C538   C     0.58723   0.80689   0.46861   0.00000  Uiso   1.00
C539   C     0.53546   0.97926   0.26083   0.00000  Uiso   1.00
C540   C     0.46454   0.68741   0.23917   0.00000  Uiso   1.00
C541   C     0.53508   0.68857   0.26118   0.00000  Uiso   1.00
C542   C     0.46492   0.97809   0.23882   0.00000  Uiso   1.00
C543   C     0.49966   0.70918   0.25029   0.00000  Uiso   1.00
C544   C     0.50034   0.95749   0.24971   0.00000  Uiso   1.00
C545   C     0.65540   0.81183   0.21653   0.00000  Uiso   1.00
C546   C     0.34460   0.85483   0.28347   0.00000  Uiso   1.00
C547   C     0.37036   0.81149   0.21599   0.00000  Uiso   1.00
C548   C     0.62964   0.85518   0.28401   0.00000  Uiso   1.00
C549   C     0.46928   0.83302   0.33792   0.00000  Uiso   1.00
C550   C     0.53072   0.83364   0.16208   0.00000  Uiso   1.00
C551   C     0.44929   0.83442   0.38881   0.00000  Uiso   1.00
C552   C     0.55071   0.83225   0.11119   0.00000  Uiso   1.00
C553   C     0.39329   0.86460   0.46162   0.00000  Uiso   1.00
C554   C     0.60671   0.80208   0.03837   0.00000  Uiso   1.00
C555   C     0.40728   0.85749   0.41364   0.00000  Uiso   1.00
C556   C     0.59272   0.80918   0.08636   0.00000  Uiso   1.00
C557   C     0.47603   0.81674   0.41213   0.00000  Uiso   1.00
C558   C     0.52397   0.84993   0.08787   0.00000  Uiso   1.00
C559   C     0.46947   0.83187   0.45710   0.00000  Uiso   1.00
C560   C     0.53053   0.83482   0.04290   0.00000  Uiso   1.00
C561   C     0.42489   0.85254   0.48360   0.00000  Uiso   1.00
C562   C     0.57511   0.81414   0.01640   0.00000  Uiso   1.00
C563   C     0.50579   0.82788   0.47621   0.00000  Uiso   1.00
C564   C     0.49421   0.83880   0.02379   0.00000  Uiso   1.00
H565   H     0.37732   0.87179   0.05379   0.00000  Uiso   1.00
H566   H     0.62268   0.79490   0.44621   0.00000  Uiso   1.00
H567   H     0.61421   0.79645   0.10441   0.00000  Uiso   1.00
H568   H     0.38579   0.87022   0.39559   0.00000  Uiso   1.00
H569   H     0.43263   0.85391   0.08902   0.00000  Uiso   1.00
H570   H     0.56737   0.81278   0.41098   0.00000  Uiso   1.00
H571   H     0.56281   0.96350   0.26959   0.00000  Uiso   1.00
H572   H     0.43719   0.70317   0.23041   0.00000  Uiso   1.00
H573   H     0.56222   0.70529   0.27020   0.00000  Uiso   1.00
H574   H     0.43778   0.96138   0.22980   0.00000  Uiso   1.00
H575   H     0.64618   0.79465   0.19071   0.00000  Uiso   1.00
H576   H     0.35382   0.87202   0.30929   0.00000  Uiso   1.00
N577   N     0.38093   0.83334   0.25001   0.00000  Uiso   1.00
N578   N     0.61907   0.83332   0.24999   0.00000  Uiso   1.00
O579   O     0.46179   0.89442   0.25000   0.00000  Uiso   1.00
O580   O     0.53821   0.77225   0.25000   0.00000  Uiso   1.00
O581   O     0.53823   0.89441   0.25000   0.00000  Uiso   1.00
O582   O     0.46177   0.77226   0.25000   0.00000  Uiso   1.00
O583   O     0.43994   0.83334   0.31612   0.00000  Uiso   1.00
O584   O     0.56006   0.83333   0.18388   0.00000  Uiso   1.00
O585   O     0.51639   0.83333   0.31612   0.00000  Uiso   1.00
O586   O     0.48361   0.83334   0.18388   0.00000  Uiso   1.00
Zn587  Zn    0.44896   0.83334   0.25000   0.00000  Uiso   1.00
Zn588  Zn    0.55104   0.83333   0.25000   0.00000  Uiso   1.00
C589   C     0.49672   0.88777   0.10754   0.00000  Uiso   1.00
N590   N     0.47520   0.91796   0.12331   0.00000  Uiso   1.00
C591   C     0.50328   0.77891   0.39246   0.00000  Uiso   1.00
N592   N     0.52480   0.74872   0.37669   0.00000  Uiso   1.00
C593   C     0.34841   0.88696   0.48643   0.00000  Uiso   1.00
N594   N     0.64580   0.90485   0.00625   0.00000  Uiso   1.00
C595   C     0.65159   0.77972   0.01357   0.00000  Uiso   1.00
N596   N     0.35420   0.76183   0.49374   0.00000  Uiso   1.00
N597   N     0.40814   0.78852   0.18048   0.00000  Uiso   1.00
H598   H     0.42829   0.76991   0.19273   0.00000  Uiso   1.00
C599   C     0.39986   0.77002   0.14109   0.00000  Uiso   1.00
H600   H     0.43502   0.75851   0.11469   0.00000  Uiso   1.00
H601   H     0.38520   0.79343   0.12408   0.00000  Uiso   1.00
H602   H     0.37428   0.74328   0.15277   0.00000  Uiso   1.00
N603   N     0.59186   0.87815   0.31952   0.00000  Uiso   1.00
H604   H     0.57171   0.89676   0.30727   0.00000  Uiso   1.00
C605   C     0.60015   0.89666   0.35890   0.00000  Uiso   1.00
H606   H     0.56499   0.90818   0.38530   0.00000  Uiso   1.00
H607   H     0.62573   0.92340   0.34721   0.00000  Uiso   1.00
H608   H     0.61480   0.87326   0.37591   0.00000  Uiso   1.00
C609   C     0.83353   0.91331   0.24990   0.00000  Uiso   1.00
C610   C     0.83314   0.75336   0.25010   0.00000  Uiso   1.00
C611   C     0.77924   0.85099   0.05145   0.00000  Uiso   1.00
C612   C     0.88743   0.81570   0.44855   0.00000  Uiso   1.00
C613   C     0.74611   0.85979   0.03138   0.00000  Uiso   1.00
C614   C     0.92056   0.80689   0.46861   0.00000  Uiso   1.00
C615   C     0.86880   0.97926   0.26083   0.00000  Uiso   1.00
C616   C     0.79787   0.68741   0.23917   0.00000  Uiso   1.00
C617   C     0.86841   0.68857   0.26118   0.00000  Uiso   1.00
C618   C     0.79825   0.97809   0.23882   0.00000  Uiso   1.00
C619   C     0.83299   0.70918   0.25029   0.00000  Uiso   1.00
C620   C     0.83368   0.95749   0.24971   0.00000  Uiso   1.00
C621   C     0.98873   0.81183   0.21653   0.00000  Uiso   1.00
C622   C     0.67794   0.85483   0.28347   0.00000  Uiso   1.00
C623   C     0.70369   0.81149   0.21599   0.00000  Uiso   1.00
C624   C     0.96298   0.85518   0.28401   0.00000  Uiso   1.00
C625   C     0.80261   0.83302   0.33792   0.00000  Uiso   1.00
C626   C     0.86405   0.83364   0.16208   0.00000  Uiso   1.00
C627   C     0.78263   0.83442   0.38881   0.00000  Uiso   1.00
C628   C     0.88404   0.83225   0.11119   0.00000  Uiso   1.00
C629   C     0.72663   0.86460   0.46162   0.00000  Uiso   1.00
C630   C     0.94004   0.80208   0.03837   0.00000  Uiso   1.00
C631   C     0.74062   0.85749   0.41364   0.00000  Uiso   1.00
C632   C     0.92605   0.80918   0.08636   0.00000  Uiso   1.00
C633   C     0.80937   0.81674   0.41213   0.00000  Uiso   1.00
C634   C     0.85730   0.84993   0.08787   0.00000  Uiso   1.00
C635   C     0.80281   0.83187   0.45710   0.00000  Uiso   1.00
C636   C     0.86386   0.83482   0.04290   0.00000  Uiso   1.00
C637   C     0.75823   0.85254   0.48360   0.00000  Uiso   1.00
C638   C     0.90844   0.81414   0.01640   0.00000  Uiso   1.00
C639   C     0.83912   0.82788   0.47621   0.00000  Uiso   1.00
C640   C     0.82755   0.83880   0.02379   0.00000  Uiso   1.00
H641   H     0.71065   0.87179   0.05379   0.00000  Uiso   1.00
H642   H     0.95602   0.79490   0.44621   0.00000  Uiso   1.00
H643   H     0.94755   0.79645   0.10441   0.00000  Uiso   1.00
H644   H     0.71912   0.87022   0.39559   0.00000  Uiso   1.00
H645   H     0.76596   0.85391   0.08902   0.00000  Uiso   1.00
H646   H     0.90071   0.81278   0.41098   0.00000  Uiso   1.00
H647   H     0.89615   0.96350   0.26959   0.00000  Uiso   1.00
H648   H     0.77052   0.70317   0.23041   0.00000  Uiso   1.00
H649   H     0.89555   0.70529   0.27020   0.00000  Uiso   1.00
H650   H     0.77112   0.96138   0.22980   0.00000  Uiso   1.00
H651   H     0.97951   0.79465   0.19071   0.00000  Uiso   1.00
H652   H     0.68716   0.87202   0.30929   0.00000  Uiso   1.00
N653   N     0.71426   0.83334   0.25001   0.00000  Uiso   1.00
N654   N     0.95241   0.83332   0.24999   0.00000  Uiso   1.00
O655   O     0.79512   0.89442   0.25000   0.00000  Uiso   1.00
O656   O     0.87154   0.77225   0.25000   0.00000  Uiso   1.00
O657   O     0.87157   0.89441   0.25000   0.00000  Uiso   1.00
O658   O     0.79510   0.77226   0.25000   0.00000  Uiso   1.00
O659   O     0.77328   0.83334   0.31612   0.00000  Uiso   1.00
O660   O     0.89339   0.83333   0.18388   0.00000  Uiso   1.00
O661   O     0.84972   0.83333   0.31612   0.00000  Uiso   1.00
O662   O     0.81695   0.83334   0.18388   0.00000  Uiso   1.00
Zn663  Zn    0.78229   0.83334   0.25000   0.00000  Uiso   1.00
Zn664  Zn    0.88438   0.83333   0.25000   0.00000  Uiso   1.00
C665   C     0.83005   0.88777   0.10754   0.00000  Uiso   1.00
N666   N     0.80853   0.91796   0.12331   0.00000  Uiso   1.00
C667   C     0.83662   0.77891   0.39246   0.00000  Uiso   1.00
N668   N     0.85814   0.74872   0.37669   0.00000  Uiso   1.00
C669   C     0.68174   0.88696   0.48643   0.00000  Uiso   1.00
N670   N     0.97914   0.90485   0.00625   0.00000  Uiso   1.00
C671   C     0.98492   0.77972   0.01357   0.00000  Uiso   1.00
N672   N     0.68753   0.76183   0.49374   0.00000  Uiso   1.00
N673   N     0.74147   0.78852   0.18048   0.00000  Uiso   1.00
H674   H     0.76162   0.76991   0.19273   0.00000  Uiso   1.00
C675   C     0.73319   0.77002   0.14109   0.00000  Uiso   1.00
H676   H     0.76835   0.75851   0.11469   0.00000  Uiso   1.00
H677   H     0.71854   0.79343   0.12408   0.00000  Uiso   1.00
H678   H     0.70761   0.74328   0.15277   0.00000  Uiso   1.00
N679   N     0.92520   0.87815   0.31952   0.00000  Uiso   1.00
H680   H     0.90504   0.89676   0.30727   0.00000  Uiso   1.00
C681   C     0.93348   0.89666   0.35890   0.00000  Uiso   1.00
H682   H     0.89832   0.90818   0.38530   0.00000  Uiso   1.00
H683   H     0.95906   0.92340   0.34721   0.00000  Uiso   1.00
H684   H     0.94813   0.87326   0.37591   0.00000  Uiso   1.00
C685   C     0.16686   0.24664   0.74990   0.00000  Uiso   1.00
C686   C     0.16647   0.08669   0.75010   0.00000  Uiso   1.00
C687   C     0.11257   0.18432   0.55145   0.00000  Uiso   1.00
C688   C     0.22076   0.14903   0.94855   0.00000  Uiso   1.00
C689   C     0.07944   0.19313   0.53138   0.00000  Uiso   1.00
C690   C     0.25390   0.14023   0.96861   0.00000  Uiso   1.00
C691   C     0.20213   0.31259   0.76083   0.00000  Uiso   1.00
C692   C     0.13120   0.02074   0.73917   0.00000  Uiso   1.00
C693   C     0.20175   0.02191   0.76118   0.00000  Uiso   1.00
C694   C     0.13159   0.31143   0.73882   0.00000  Uiso   1.00
C695   C     0.16632   0.04251   0.75029   0.00000  Uiso   1.00
C696   C     0.16701   0.29082   0.74971   0.00000  Uiso   1.00
C697   C     0.32206   0.14517   0.71653   0.00000  Uiso   1.00
C698   C     0.01127   0.18817   0.78347   0.00000  Uiso   1.00
C699   C     0.03702   0.14482   0.71599   0.00000  Uiso   1.00
C700   C     0.29631   0.18851   0.78401   0.00000  Uiso   1.00
C701   C     0.13595   0.16636   0.83792   0.00000  Uiso   1.00
C702   C     0.19739   0.16698   0.66208   0.00000  Uiso   1.00
C703   C     0.11596   0.16775   0.88881   0.00000  Uiso   1.00
C704   C     0.21737   0.16559   0.61119   0.00000  Uiso   1.00
C705   C     0.05996   0.19793   0.96162   0.00000  Uiso   1.00
C706   C     0.27338   0.13541   0.53837   0.00000  Uiso   1.00
C707   C     0.07395   0.19082   0.91364   0.00000  Uiso   1.00
C708   C     0.25938   0.14252   0.58636   0.00000  Uiso   1.00
C709   C     0.14270   0.15008   0.91213   0.00000  Uiso   1.00
C710   C     0.19064   0.18327   0.58787   0.00000  Uiso   1.00
C711   C     0.13614   0.16520   0.95710   0.00000  Uiso   1.00
C712   C     0.19720   0.16815   0.54290   0.00000  Uiso   1.00
C713   C     0.09156   0.18588   0.98360   0.00000  Uiso   1.00
C714   C     0.24177   0.14747   0.51640   0.00000  Uiso   1.00
C715   C     0.17246   0.16121   0.97621   0.00000  Uiso   1.00
C716   C     0.16088   0.17214   0.52379   0.00000  Uiso   1.00
H717   H     0.04399   0.20512   0.55379   0.00000  Uiso   1.00
H718   H     0.28935   0.12823   0.94621   0.00000  Uiso   1.00
H719   H     0.28088   0.12979   0.60441   0.00000  Uiso   1.00
H720   H     0.05245   0.20355   0.89559   0.00000  Uiso   1.00
H721   H     0.09929   0.18724   0.58902   0.00000  Uiso   1.00
H722   H     0.23404   0.14611   0.91098   0.00000  Uiso   1.00
H723   H     0.22948   0.29683   0.76959   0.00000  Uiso   1.00
H724   H     0.10385   0.03650   0.73041   0.00000  Uiso   1.00
H725   H     0.22888   0.03862   0.77020   0.00000  Uiso   1.00
H726   H     0.10445   0.29471   0.72980   0.00000  Uiso   1.00
H727   H     0.31284   0.12798   0.69071   0.00000  Uiso   1.00
H728   H     0.02049   0.20535   0.80929   0.00000  Uiso   1.00
N729   N     0.04759   0.16668   0.75001   0.00000  Uiso   1.00
N730   N     0.28574   0.16666   0.74999   0.00000  Uiso   1.00
O731   O     0.12846   0.22775   0.75000   0.00000  Uiso   1.00
O732   O     0.20488   0.10558   0.75000   0.00000  Uiso   1.00
O733   O     0.20490   0.22774   0.75000   0.00000  Uiso   1.00
O734   O     0.12843   0.10559   0.75000   0.00000  Uiso   1.00
O735   O     0.10661   0.16667   0.81612   0.00000  Uiso   1.00
O736   O     0.22672   0.16666   0.68388   0.00000  Uiso   1.00
O737   O     0.18305   0.16666   0.81612   0.00000  Uiso   1.00
O738   O     0.15028   0.16667   0.68388   0.00000  Uiso   1.00
Zn739  Zn    0.11562   0.16667   0.75000   0.00000  Uiso   1.00
Zn740  Zn    0.21771   0.16666   0.75000   0.00000  Uiso   1.00
C741   C     0.16339   0.22110   0.60754   0.00000  Uiso   1.00
N742   N     0.14187   0.25129   0.62331   0.00000  Uiso   1.00
C743   C     0.16995   0.11224   0.89246   0.00000  Uiso   1.00
N744   N     0.19147   0.08205   0.87669   0.00000  Uiso   1.00
C745   C     0.01508   0.22030   0.98643   0.00000  Uiso   1.00
N746   N     0.31247   0.23818   0.50625   0.00000  Uiso   1.00
C747   C     0.31826   0.11305   0.51357   0.00000  Uiso   1.00
N748   N     0.02087   0.09516   0.99374   0.00000  Uiso   1.00
N749   N     0.07480   0.12185   0.68048   0.00000  Uiso   1.00
H750   H     0.09496   0.10324   0.69273   0.00000  Uiso   1.00
C751   C     0.06653   0.10336   0.64109   0.00000  Uiso   1.00
H752   H     0.10169   0.09184   0.61469   0.00000  Uiso   1.00
H753   H     0.05187   0.12676   0.62408   0.00000  Uiso   1.00
H754   H     0.04095   0.07661   0.65277   0.00000  Uiso   1.00
N755   N     0.25853   0.21149   0.81952   0.00000  Uiso   1.00
H756   H     0.23837   0.23009   0.80727   0.00000  Uiso   1.00
C757   C     0.26681   0.22999   0.85890   0.00000  Uiso   1.00
H758   H     0.23165   0.24151   0.88530   0.00000  Uiso   1.00
H759   H     0.29239   0.25673   0.84721   0.00000  Uiso   1.00
H760   H     0.28147   0.20659   0.87591   0.00000  Uiso   1.00
C761   C     0.50020   0.24664   0.74990   0.00000  Uiso   1.00
C762   C     0.49980   0.08669   0.75010   0.00000  Uiso   1.00
C763   C     0.44591   0.18432   0.55145   0.00000  Uiso   1.00
C764   C     0.55410   0.14903   0.94855   0.00000  Uiso   1.00
C765   C     0.41277   0.19313   0.53138   0.00000  Uiso   1.00
C766   C     0.58723   0.14023   0.96861   0.00000  Uiso   1.00
C767   C     0.53546   0.31259   0.76083   0.00000  Uiso   1.00
C768   C     0.46454   0.02074   0.73917   0.00000  Uiso   1.00
C769   C     0.53508   0.02191   0.76118   0.00000  Uiso   1.00
C770   C     0.46492   0.31143   0.73882   0.00000  Uiso   1.00
C771   C     0.49966   0.04251   0.75029   0.00000  Uiso   1.00
C772   C     0.50034   0.29082   0.74971   0.00000  Uiso   1.00
C773   C     0.65540   0.14517   0.71653   0.00000  Uiso   1.00
C774   C     0.34460   0.18817   0.78347   0.00000  Uiso   1.00
C775   C     0.37036   0.14482   0.71599   0.00000  Uiso   1.00
C776   C     0.62964   0.18851   0.78401   0.00000  Uiso   1.00
C777   C     0.46928   0.16636   0.83792   0.00000  Uiso   1.00
C778   C     0.53072   0.16698   0.66208   0.00000  Uiso   1.00
C779   C     0.44929   0.16775   0.88881   0.00000  Uiso   1.00
C780   C     0.55071   0.16559   0.61119   0.00000  Uiso   1.00
C781   C     0.39329   0.19793   0.96162   0.00000  Uiso   1.00
C782   C     0.60671   0.13541   0.53837   0.00000  Uiso   1.00
C783   C     0.40728   0.19082   0.91364   0.00000  Uiso   1.00
C784   C     0.59272   0.14252   0.58636   0.00000  Uiso   1.00
C785   C     0.47603   0.15008   0.91213   0.00000  Uiso   1.00
C786   C     0.52397   0.18327   0.58787   0.00000  Uiso   1.00
C787   C     0.46947   0.16520   0.95710   0.00000  Uiso   1.00
C788   C     0.53053   0.16815   0.54290   0.00000  Uiso   1.00
C789   C     0.42489   0.18588   0.98360   0.00000  Uiso   1.00
C790   C     0.57511   0.14747   0.51640   0.00000  Uiso   1.00
C791   C     0.50579   0.16121   0.97621   0.00000  Uiso   1.00
C792   C     0.49421   0.17214   0.52379   0.00000  Uiso   1.00
H793   H     0.37732   0.20512   0.55379   0.00000  Uiso   1.00
H794   H     0.62268   0.12823   0.94621   0.00000  Uiso   1.00
H795   H     0.61421   0.12979   0.60441   0.00000  Uiso   1.00
H796   H     0.38579   0.20355   0.89559   0.00000  Uiso   1.00
H797   H     0.43263   0.18724   0.58902   0.00000  Uiso   1.00
H798   H     0.56737   0.14611   0.91098   0.00000  Uiso   1.00
H799   H     0.56281   0.29683   0.76959   0.00000  Uiso   1.00
H800   H     0.43719   0.03650   0.73041   0.00000  Uiso   1.00
H801   H     0.56222   0.03862   0.77020   0.00000  Uiso   1.00
H802   H     0.43778   0.29471   0.72980   0.00000  Uiso   1.00
H803   H     0.64618   0.12798   0.69071   0.00000  Uiso   1.00
H804   H     0.35382   0.20535   0.80929   0.00000  Uiso   1.00
N805   N     0.38093   0.16668   0.75001   0.00000  Uiso   1.00
N806   N     0.61907   0.16666   0.74999   0.00000  Uiso   1.00
O807   O     0.46179   0.22775   0.75000   0.00000  Uiso   1.00
O808   O     0.53821   0.10558   0.75000   0.00000  Uiso   1.00
O809   O     0.53823   0.22774   0.75000   0.00000  Uiso   1.00
O810   O     0.46177   0.10559   0.75000   0.00000  Uiso   1.00
O811   O     0.43994   0.16667   0.81612   0.00000  Uiso   1.00
O812   O     0.56006   0.16666   0.68388   0.00000  Uiso   1.00
O813   O     0.51639   0.16666   0.81612   0.00000  Uiso   1.00
O814   O     0.48361   0.16667   0.68388   0.00000  Uiso   1.00
Zn815  Zn    0.44896   0.16667   0.75000   0.00000  Uiso   1.00
Zn816  Zn    0.55104   0.16666   0.75000   0.00000  Uiso   1.00
C817   C     0.49672   0.22110   0.60754   0.00000  Uiso   1.00
N818   N     0.47520   0.25129   0.62331   0.00000  Uiso   1.00
C819   C     0.50328   0.11224   0.89246   0.00000  Uiso   1.00
N820   N     0.52480   0.08205   0.87669   0.00000  Uiso   1.00
C821   C     0.34841   0.22030   0.98643   0.00000  Uiso   1.00
N822   N     0.64580   0.23818   0.50625   0.00000  Uiso   1.00
C823   C     0.65159   0.11305   0.51357   0.00000  Uiso   1.00
N824   N     0.35420   0.09516   0.99374   0.00000  Uiso   1.00
N825   N     0.40814   0.12185   0.68048   0.00000  Uiso   1.00
H826   H     0.42829   0.10324   0.69273   0.00000  Uiso   1.00
C827   C     0.39986   0.10336   0.64109   0.00000  Uiso   1.00
H828   H     0.43502   0.09184   0.61469   0.00000  Uiso   1.00
H829   H     0.38520   0.12676   0.62408   0.00000  Uiso   1.00
H830   H     0.37428   0.07661   0.65277   0.00000  Uiso   1.00
N831   N     0.59186   0.21149   0.81952   0.00000  Uiso   1.00
H832   H     0.57171   0.23009   0.80727   0.00000  Uiso   1.00
C833   C     0.60015   0.22999   0.85890   0.00000  Uiso   1.00
H834   H     0.56499   0.24151   0.88530   0.00000  Uiso   1.00
H835   H     0.62573   0.25673   0.84721   0.00000  Uiso   1.00
H836   H     0.61480   0.20659   0.87591   0.00000  Uiso   1.00
C837   C     0.83353   0.24664   0.74990   0.00000  Uiso   1.00
C838   C     0.83314   0.08669   0.75010   0.00000  Uiso   1.00
C839   C     0.77924   0.18432   0.55145   0.00000  Uiso   1.00
C840   C     0.88743   0.14903   0.94855   0.00000  Uiso   1.00
C841   C     0.74611   0.19313   0.53138   0.00000  Uiso   1.00
C842   C     0.92056   0.14023   0.96861   0.00000  Uiso   1.00
C843   C     0.86880   0.31259   0.76083   0.00000  Uiso   1.00
C844   C     0.79787   0.02074   0.73917   0.00000  Uiso   1.00
C845   C     0.86841   0.02191   0.76118   0.00000  Uiso   1.00
C846   C     0.79825   0.31143   0.73882   0.00000  Uiso   1.00
C847   C     0.83299   0.04251   0.75029   0.00000  Uiso   1.00
C848   C     0.83368   0.29082   0.74971   0.00000  Uiso   1.00
C849   C     0.98873   0.14517   0.71653   0.00000  Uiso   1.00
C850   C     0.67794   0.18817   0.78347   0.00000  Uiso   1.00
C851   C     0.70369   0.14482   0.71599   0.00000  Uiso   1.00
C852   C     0.96298   0.18851   0.78401   0.00000  Uiso   1.00
C853   C     0.80261   0.16636   0.83792   0.00000  Uiso   1.00
C854   C     0.86405   0.16698   0.66208   0.00000  Uiso   1.00
C855   C     0.78263   0.16775   0.88881   0.00000  Uiso   1.00
C856   C     0.88404   0.16559   0.61119   0.00000  Uiso   1.00
C857   C     0.72663   0.19793   0.96162   0.00000  Uiso   1.00
C858   C     0.94004   0.13541   0.53837   0.00000  Uiso   1.00
C859   C     0.74062   0.19082   0.91364   0.00000  Uiso   1.00
C860   C     0.92605   0.14252   0.58636   0.00000  Uiso   1.00
C861   C     0.80937   0.15008   0.91213   0.00000  Uiso   1.00
C862   C     0.85730   0.18327   0.58787   0.00000  Uiso   1.00
C863   C     0.80281   0.16520   0.95710   0.00000  Uiso   1.00
C864   C     0.86386   0.16815   0.54290   0.00000  Uiso   1.00
C865   C     0.75823   0.18588   0.98360   0.00000  Uiso   1.00
C866   C     0.90844   0.14747   0.51640   0.00000  Uiso   1.00
C867   C     0.83912   0.16121   0.97621   0.00000  Uiso   1.00
C868   C     0.82755   0.17214   0.52379   0.00000  Uiso   1.00
H869   H     0.71065   0.20512   0.55379   0.00000  Uiso   1.00
H870   H     0.95602   0.12823   0.94621   0.00000  Uiso   1.00
H871   H     0.94755   0.12979   0.60441   0.00000  Uiso   1.00
H872   H     0.71912   0.20355   0.89559   0.00000  Uiso   1.00
H873   H     0.76596   0.18724   0.58902   0.00000  Uiso   1.00
H874   H     0.90071   0.14611   0.91098   0.00000  Uiso   1.00
H875   H     0.89615   0.29683   0.76959   0.00000  Uiso   1.00
H876   H     0.77052   0.03650   0.73041   0.00000  Uiso   1.00
H877   H     0.89555   0.03862   0.77020   0.00000  Uiso   1.00
H878   H     0.77112   0.29471   0.72980   0.00000  Uiso   1.00
H879   H     0.97951   0.12798   0.69071   0.00000  Uiso   1.00
H880   H     0.68716   0.20535   0.80929   0.00000  Uiso   1.00
N881   N     0.71426   0.16668   0.75001   0.00000  Uiso   1.00
N882   N     0.95241   0.16666   0.74999   0.00000  Uiso   1.00
O883   O     0.79512   0.22775   0.75000   0.00000  Uiso   1.00
O884   O     0.87154   0.10558   0.75000   0.00000  Uiso   1.00
O885   O     0.87157   0.22774   0.75000   0.00000  Uiso   1.00
O886   O     0.79510   0.10559   0.75000   0.00000  Uiso   1.00
O887   O     0.77328   0.16667   0.81612   0.00000  Uiso   1.00
O888   O     0.89339   0.16666   0.68388   0.00000  Uiso   1.00
O889   O     0.84972   0.16666   0.81612   0.00000  Uiso   1.00
O890   O     0.81695   0.16667   0.68388   0.00000  Uiso   1.00
Zn891  Zn    0.78229   0.16667   0.75000   0.00000  Uiso   1.00
Zn892  Zn    0.88438   0.16666   0.75000   0.00000  Uiso   1.00
C893   C     0.83005   0.22110   0.60754   0.00000  Uiso   1.00
N894   N     0.80853   0.25129   0.62331   0.00000  Uiso   1.00
C895   C     0.83662   0.11224   0.89246   0.00000  Uiso   1.00
N896   N     0.85814   0.08205   0.87669   0.00000  Uiso   1.00
C897   C     0.68174   0.22030   0.98643   0.00000  Uiso   1.00
N898   N     0.97914   0.23818   0.50625   0.00000  Uiso   1.00
C899   C     0.98492   0.11305   0.51357   0.00000  Uiso   1.00
N900   N     0.68753   0.09516   0.99374   0.00000  Uiso   1.00
N901   N     0.74147   0.12185   0.68048   0.00000  Uiso   1.00
H902   H     0.76162   0.10324   0.69273   0.00000  Uiso   1.00
C903   C     0.73319   0.10336   0.64109   0.00000  Uiso   1.00
H904   H     0.76835   0.09184   0.61469   0.00000  Uiso   1.00
H905   H     0.71854   0.12676   0.62408   0.00000  Uiso   1.00
H906   H     0.70761   0.07661   0.65277   0.00000  Uiso   1.00
N907   N     0.92520   0.21149   0.81952   0.00000  Uiso   1.00
H908   H     0.90504   0.23009   0.80727   0.00000  Uiso   1.00
C909   C     0.93348   0.22999   0.85890   0.00000  Uiso   1.00
H910   H     0.89832   0.24151   0.88530   0.00000  Uiso   1.00
H911   H     0.95906   0.25673   0.84721   0.00000  Uiso   1.00
H912   H     0.94813   0.20659   0.87591   0.00000  Uiso   1.00
C913   C     0.16686   0.57998   0.74990   0.00000  Uiso   1.00
C914   C     0.16647   0.42002   0.75010   0.00000  Uiso   1.00
C915   C     0.11257   0.51765   0.55145   0.00000  Uiso   1.00
C916   C     0.22076   0.48237   0.94855   0.00000  Uiso   1.00
C917   C     0.07944   0.52646   0.53138   0.00000  Uiso   1.00
C918   C     0.25390   0.47356   0.96861   0.00000  Uiso   1.00
C919   C     0.20213   0.64592   0.76083   0.00000  Uiso   1.00
C920   C     0.13120   0.35408   0.73917   0.00000  Uiso   1.00
C921   C     0.20175   0.35524   0.76118   0.00000  Uiso   1.00
C922   C     0.13159   0.64476   0.73882   0.00000  Uiso   1.00
C923   C     0.16632   0.37585   0.75029   0.00000  Uiso   1.00
C924   C     0.16701   0.62415   0.74971   0.00000  Uiso   1.00
C925   C     0.32206   0.47850   0.71653   0.00000  Uiso   1.00
C926   C     0.01127   0.52150   0.78347   0.00000  Uiso   1.00
C927   C     0.03702   0.47816   0.71599   0.00000  Uiso   1.00
C928   C     0.29631   0.52184   0.78401   0.00000  Uiso   1.00
C929   C     0.13595   0.49969   0.83792   0.00000  Uiso   1.00
C930   C     0.19739   0.50031   0.66208   0.00000  Uiso   1.00
C931   C     0.11596   0.50108   0.88881   0.00000  Uiso   1.00
C932   C     0.21737   0.49892   0.61119   0.00000  Uiso   1.00
C933   C     0.05996   0.53127   0.96162   0.00000  Uiso   1.00
C934   C     0.27338   0.46875   0.53837   0.00000  Uiso   1.00
C935   C     0.07395   0.52416   0.91364   0.00000  Uiso   1.00
C936   C     0.25938   0.47585   0.58636   0.00000  Uiso   1.00
C937   C     0.14270   0.48341   0.91213   0.00000  Uiso   1.00
C938   C     0.19064   0.51660   0.58787   0.00000  Uiso   1.00
C939   C     0.13614   0.49853   0.95710   0.00000  Uiso   1.00
C940   C     0.19720   0.50148   0.54290   0.00000  Uiso   1.00
C941   C     0.09156   0.51921   0.98360   0.00000  Uiso   1.00
C942   C     0.24177   0.48081   0.51640   0.00000  Uiso   1.00
C943   C     0.17246   0.49455   0.97621   0.00000  Uiso   1.00
C944   C     0.16088   0.50547   0.52379   0.00000  Uiso   1.00
H945   H     0.04399   0.53845   0.55379   0.00000  Uiso   1.00
H946   H     0.28935   0.46157   0.94621   0.00000  Uiso   1.00
H947   H     0.28088   0.46312   0.60441   0.00000  Uiso   1.00
H948   H     0.05245   0.53688   0.89559   0.00000  Uiso   1.00
H949   H     0.09929   0.52057   0.58902   0.00000  Uiso   1.00
H950   H     0.23404   0.47945   0.91098   0.00000  Uiso   1.00
H951   H     0.22948   0.63016   0.76959   0.00000  Uiso   1.00
H952   H     0.10385   0.36984   0.73041   0.00000  Uiso   1.00
H953   H     0.22888   0.37196   0.77020   0.00000  Uiso   1.00
H954   H     0.10445   0.62804   0.72980   0.00000  Uiso   1.00
H955   H     0.31284   0.46132   0.69071   0.00000  Uiso   1.00
H956   H     0.02049   0.53868   0.80929   0.00000  Uiso   1.00
N957   N     0.04759   0.50001   0.75001   0.00000  Uiso   1.00
N958   N     0.28574   0.49999   0.74999   0.00000  Uiso   1.00
O959   O     0.12846   0.56108   0.75000   0.00000  Uiso   1.00
O960   O     0.20488   0.43892   0.75000   0.00000  Uiso   1.00
O961   O     0.20490   0.56107   0.75000   0.00000  Uiso   1.00
O962   O     0.12843   0.43893   0.75000   0.00000  Uiso   1.00
O963   O     0.10661   0.50001   0.81612   0.00000  Uiso   1.00
O964   O     0.22672   0.49999   0.68388   0.00000  Uiso   1.00
O965   O     0.18305   0.50000   0.81612   0.00000  Uiso   1.00
O966   O     0.15028   0.50000   0.68388   0.00000  Uiso   1.00
Zn967  Zn    0.11562   0.50001   0.75000   0.00000  Uiso   1.00
Zn968  Zn    0.21771   0.49999   0.75000   0.00000  Uiso   1.00
C969   C     0.16339   0.55443   0.60754   0.00000  Uiso   1.00
N970   N     0.14187   0.58463   0.62331   0.00000  Uiso   1.00
C971   C     0.16995   0.44558   0.89246   0.00000  Uiso   1.00
N972   N     0.19147   0.41539   0.87669   0.00000  Uiso   1.00
C973   C     0.01508   0.55363   0.98643   0.00000  Uiso   1.00
N974   N     0.31247   0.57152   0.50625   0.00000  Uiso   1.00
C975   C     0.31826   0.44638   0.51357   0.00000  Uiso   1.00
N976   N     0.02087   0.42850   0.99374   0.00000  Uiso   1.00
N977   N     0.07480   0.45518   0.68048   0.00000  Uiso   1.00
H978   H     0.09496   0.43657   0.69273   0.00000  Uiso   1.00
C979   C     0.06653   0.43669   0.64109   0.00000  Uiso   1.00
H980   H     0.10169   0.42518   0.61469   0.00000  Uiso   1.00
H981   H     0.05187   0.46010   0.62408   0.00000  Uiso   1.00
H982   H     0.04095   0.40995   0.65277   0.00000  Uiso   1.00
N983   N     0.25853   0.54482   0.81952   0.00000  Uiso   1.00
H984   H     0.23837   0.56342   0.80727   0.00000  Uiso   1.00
C985   C     0.26681   0.56332   0.85890   0.00000  Uiso   1.00
H986   H     0.23165   0.57484   0.88530   0.00000  Uiso   1.00
H987   H     0.29239   0.59006   0.84721   0.00000  Uiso   1.00
H988   H     0.28147   0.53992   0.87591   0.00000  Uiso   1.00
C989   C     0.50020   0.57998   0.74990   0.00000  Uiso   1.00
C990   C     0.49980   0.42002   0.75010   0.00000  Uiso   1.00
C991   C     0.44591   0.51765   0.55145   0.00000  Uiso   1.00
C992   C     0.55410   0.48237   0.94855   0.00000  Uiso   1.00
C993   C     0.41277   0.52646   0.53138   0.00000  Uiso   1.00
C994   C     0.58723   0.47356   0.96861   0.00000  Uiso   1.00
C995   C     0.53546   0.64592   0.76083   0.00000  Uiso   1.00
C996   C     0.46454   0.35408   0.73917   0.00000  Uiso   1.00
C997   C     0.53508   0.35524   0.76118   0.00000  Uiso   1.00
C998   C     0.46492   0.64476   0.73882   0.00000  Uiso   1.00
C999   C     0.49966   0.37585   0.75029   0.00000  Uiso   1.00
C1000  C     0.50034   0.62415   0.74971   0.00000  Uiso   1.00
C1001  C     0.65540   0.47850   0.71653   0.00000  Uiso   1.00
C1002  C     0.34460   0.52150   0.78347   0.00000  Uiso   1.00
C1003  C     0.37036   0.47816   0.71599   0.00000  Uiso   1.00
C1004  C     0.62964   0.52184   0.78401   0.00000  Uiso   1.00
C1005  C     0.46928   0.49969   0.83792   0.00000  Uiso   1.00
C1006  C     0.53072   0.50031   0.66208   0.00000  Uiso   1.00
C1007  C     0.44929   0.50108   0.88881   0.00000  Uiso   1.00
C1008  C     0.55071   0.49892   0.61119   0.00000  Uiso   1.00
C1009  C     0.39329   0.53127   0.96162   0.00000  Uiso   1.00
C1010  C     0.60671   0.46875   0.53837   0.00000  Uiso   1.00
C1011  C     0.40728   0.52416   0.91364   0.00000  Uiso   1.00
C1012  C     0.59272   0.47585   0.58636   0.00000  Uiso   1.00
C1013  C     0.47603   0.48341   0.91213   0.00000  Uiso   1.00
C1014  C     0.52397   0.51660   0.58787   0.00000  Uiso   1.00
C1015  C     0.46947   0.49853   0.95710   0.00000  Uiso   1.00
C1016  C     0.53053   0.50148   0.54290   0.00000  Uiso   1.00
C1017  C     0.42489   0.51921   0.98360   0.00000  Uiso   1.00
C1018  C     0.57511   0.48081   0.51640   0.00000  Uiso   1.00
C1019  C     0.50579   0.49455   0.97621   0.00000  Uiso   1.00
C1020  C     0.49421   0.50547   0.52379   0.00000  Uiso   1.00
H1021  H     0.37732   0.53845   0.55379   0.00000  Uiso   1.00
H1022  H     0.62268   0.46157   0.94621   0.00000  Uiso   1.00
H1023  H     0.61421   0.46312   0.60441   0.00000  Uiso   1.00
H1024  H     0.38579   0.53688   0.89559   0.00000  Uiso   1.00
H1025  H     0.43263   0.52057   0.58902   0.00000  Uiso   1.00
H1026  H     0.56737   0.47945   0.91098   0.00000  Uiso   1.00
H1027  H     0.56281   0.63016   0.76959   0.00000  Uiso   1.00
H1028  H     0.43719   0.36984   0.73041   0.00000  Uiso   1.00
H1029  H     0.56222   0.37196   0.77020   0.00000  Uiso   1.00
H1030  H     0.43778   0.62804   0.72980   0.00000  Uiso   1.00
H1031  H     0.64618   0.46132   0.69071   0.00000  Uiso   1.00
H1032  H     0.35382   0.53868   0.80929   0.00000  Uiso   1.00
N1033  N     0.38093   0.50001   0.75001   0.00000  Uiso   1.00
N1034  N     0.61907   0.49999   0.74999   0.00000  Uiso   1.00
O1035  O     0.46179   0.56108   0.75000   0.00000  Uiso   1.00
O1036  O     0.53821   0.43892   0.75000   0.00000  Uiso   1.00
O1037  O     0.53823   0.56107   0.75000   0.00000  Uiso   1.00
O1038  O     0.46177   0.43893   0.75000   0.00000  Uiso   1.00
O1039  O     0.43994   0.50001   0.81612   0.00000  Uiso   1.00
O1040  O     0.56006   0.49999   0.68388   0.00000  Uiso   1.00
O1041  O     0.51639   0.50000   0.81612   0.00000  Uiso   1.00
O1042  O     0.48361   0.50000   0.68388   0.00000  Uiso   1.00
Zn1043 Zn    0.44896   0.50001   0.75000   0.00000  Uiso   1.00
Zn1044 Zn    0.55104   0.49999   0.75000   0.00000  Uiso   1.00
C1045  C     0.49672   0.55443   0.60754   0.00000  Uiso   1.00
N1046  N     0.47520   0.58463   0.62331   0.00000  Uiso   1.00
C1047  C     0.50328   0.44558   0.89246   0.00000  Uiso   1.00
N1048  N     0.52480   0.41539   0.87669   0.00000  Uiso   1.00
C1049  C     0.34841   0.55363   0.98643   0.00000  Uiso   1.00
N1050  N     0.64580   0.57152   0.50625   0.00000  Uiso   1.00
C1051  C     0.65159   0.44638   0.51357   0.00000  Uiso   1.00
N1052  N     0.35420   0.42850   0.99374   0.00000  Uiso   1.00
N1053  N     0.40814   0.45518   0.68048   0.00000  Uiso   1.00
H1054  H     0.42829   0.43657   0.69273   0.00000  Uiso   1.00
C1055  C     0.39986   0.43669   0.64109   0.00000  Uiso   1.00
H1056  H     0.43502   0.42518   0.61469   0.00000  Uiso   1.00
H1057  H     0.38520   0.46010   0.62408   0.00000  Uiso   1.00
H1058  H     0.37428   0.40995   0.65277   0.00000  Uiso   1.00
N1059  N     0.59186   0.54482   0.81952   0.00000  Uiso   1.00
H1060  H     0.57171   0.56342   0.80727   0.00000  Uiso   1.00
C1061  C     0.60015   0.56332   0.85890   0.00000  Uiso   1.00
H1062  H     0.56499   0.57484   0.88530   0.00000  Uiso   1.00
H1063  H     0.62573   0.59006   0.84721   0.00000  Uiso   1.00
H1064  H     0.61480   0.53992   0.87591   0.00000  Uiso   1.00
C1065  C     0.83353   0.57998   0.74990   0.00000  Uiso   1.00
C1066  C     0.83314   0.42002   0.75010   0.00000  Uiso   1.00
C1067  C     0.77924   0.51765   0.55145   0.00000  Uiso   1.00
C1068  C     0.88743   0.48237   0.94855   0.00000  Uiso   1.00
C1069  C     0.74611   0.52646   0.53138   0.00000  Uiso   1.00
C1070  C     0.92056   0.47356   0.96861   0.00000  Uiso   1.00
C1071  C     0.86880   0.64592   0.76083   0.00000  Uiso   1.00
C1072  C     0.79787   0.35408   0.73917   0.00000  Uiso   1.00
C1073  C     0.86841   0.35524   0.76118   0.00000  Uiso   1.00
C1074  C     0.79825   0.64476   0.73882   0.00000  Uiso   1.00
C1075  C     0.83299   0.37585   0.75029   0.00000  Uiso   1.00
C1076  C     0.83368   0.62415   0.74971   0.00000  Uiso   1.00
C1077  C     0.98873   0.47850   0.71653   0.00000  Uiso   1.00
C1078  C     0.67794   0.52150   0.78347   0.00000  Uiso   1.00
C1079  C     0.70369   0.47816   0.71599   0.00000  Uiso   1.00
C1080  C     0.96298   0.52184   0.78401   0.00000  Uiso   1.00
C1081  C     0.80261   0.49969   0.83792   0.00000  Uiso   1.00
C1082  C     0.86405   0.50031   0.66208   0.00000  Uiso   1.00
C1083  C     0.78263   0.50108   0.88881   0.00000  Uiso   1.00
C1084  C     0.88404   0.49892   0.61119   0.00000  Uiso   1.00
C1085  C     0.72663   0.53127   0.96162   0.00000  Uiso   1.00
C1086  C     0.94004   0.46875   0.53837   0.00000  Uiso   1.00
C1087  C     0.74062   0.52416   0.91364   0.00000  Uiso   1.00
C1088  C     0.92605   0.47585   0.58636   0.00000  Uiso   1.00
C1089  C     0.80937   0.48341   0.91213   0.00000  Uiso   1.00
C1090  C     0.85730   0.51660   0.58787   0.00000  Uiso   1.00
C1091  C     0.80281   0.49853   0.95710   0.00000  Uiso   1.00
C1092  C     0.86386   0.50148   0.54290   0.00000  Uiso   1.00
C1093  C     0.75823   0.51921   0.98360   0.00000  Uiso   1.00
C1094  C     0.90844   0.48081   0.51640   0.00000  Uiso   1.00
C1095  C     0.83912   0.49455   0.97621   0.00000  Uiso   1.00
C1096  C     0.82755   0.50547   0.52379   0.00000  Uiso   1.00
H1097  H     0.71065   0.53845   0.55379   0.00000  Uiso   1.00
H1098  H     0.95602   0.46157   0.94621   0.00000  Uiso   1.00
H1099  H     0.94755   0.46312   0.60441   0.00000  Uiso   1.00
H1100  H     0.71912   0.53688   0.89559   0.00000  Uiso   1.00
H1101  H     0.76596   0.52057   0.58902   0.00000  Uiso   1.00
H1102  H     0.90071   0.47945   0.91098   0.00000  Uiso   1.00
H1103  H     0.89615   0.63016   0.76959   0.00000  Uiso   1.00
H1104  H     0.77052   0.36984   0.73041   0.00000  Uiso   1.00
H1105  H     0.89555   0.37196   0.77020   0.00000  Uiso   1.00
H1106  H     0.77112   0.62804   0.72980   0.00000  Uiso   1.00
H1107  H     0.97951   0.46132   0.69071   0.00000  Uiso   1.00
H1108  H     0.68716   0.53868   0.80929   0.00000  Uiso   1.00
N1109  N     0.71426   0.50001   0.75001   0.00000  Uiso   1.00
N1110  N     0.95241   0.49999   0.74999   0.00000  Uiso   1.00
O1111  O     0.79512   0.56108   0.75000   0.00000  Uiso   1.00
O1112  O     0.87154   0.43892   0.75000   0.00000  Uiso   1.00
O1113  O     0.87157   0.56107   0.75000   0.00000  Uiso   1.00
O1114  O     0.79510   0.43893   0.75000   0.00000  Uiso   1.00
O1115  O     0.77328   0.50001   0.81612   0.00000  Uiso   1.00
O1116  O     0.89339   0.49999   0.68388   0.00000  Uiso   1.00
O1117  O     0.84972   0.50000   0.81612   0.00000  Uiso   1.00
O1118  O     0.81695   0.50000   0.68388   0.00000  Uiso   1.00
Zn1119 Zn    0.78229   0.50001   0.75000   0.00000  Uiso   1.00
Zn1120 Zn    0.88438   0.49999   0.75000   0.00000  Uiso   1.00
C1121  C     0.83005   0.55443   0.60754   0.00000  Uiso   1.00
N1122  N     0.80853   0.58463   0.62331   0.00000  Uiso   1.00
C1123  C     0.83662   0.44558   0.89246   0.00000  Uiso   1.00
N1124  N     0.85814   0.41539   0.87669   0.00000  Uiso   1.00
C1125  C     0.68174   0.55363   0.98643   0.00000  Uiso   1.00
N1126  N     0.97914   0.57152   0.50625   0.00000  Uiso   1.00
C1127  C     0.98492   0.44638   0.51357   0.00000  Uiso   1.00
N1128  N     0.68753   0.42850   0.99374   0.00000  Uiso   1.00
N1129  N     0.74147   0.45518   0.68048   0.00000  Uiso   1.00
H1130  H     0.76162   0.43657   0.69273   0.00000  Uiso   1.00
C1131  C     0.73319   0.43669   0.64109   0.00000  Uiso   1.00
H1132  H     0.76835   0.42518   0.61469   0.00000  Uiso   1.00
H1133  H     0.71854   0.46010   0.62408   0.00000  Uiso   1.00
H1134  H     0.70761   0.40995   0.65277   0.00000  Uiso   1.00
N1135  N     0.92520   0.54482   0.81952   0.00000  Uiso   1.00
H1136  H     0.90504   0.56342   0.80727   0.00000  Uiso   1.00
C1137  C     0.93348   0.56332   0.85890   0.00000  Uiso   1.00
H1138  H     0.89832   0.57484   0.88530   0.00000  Uiso   1.00
H1139  H     0.95906   0.59006   0.84721   0.00000  Uiso   1.00
H1140  H     0.94813   0.53992   0.87591   0.00000  Uiso   1.00
C1141  C     0.16686   0.91331   0.74990   0.00000  Uiso   1.00
C1142  C     0.16647   0.75336   0.75010   0.00000  Uiso   1.00
C1143  C     0.11257   0.85099   0.55145   0.00000  Uiso   1.00
C1144  C     0.22076   0.81570   0.94855   0.00000  Uiso   1.00
C1145  C     0.07944   0.85979   0.53138   0.00000  Uiso   1.00
C1146  C     0.25390   0.80689   0.96861   0.00000  Uiso   1.00
C1147  C     0.20213   0.97926   0.76083   0.00000  Uiso   1.00
C1148  C     0.13120   0.68741   0.73917   0.00000  Uiso   1.00
C1149  C     0.20175   0.68857   0.76118   0.00000  Uiso   1.00
C1150  C     0.13159   0.97809   0.73882   0.00000  Uiso   1.00
C1151  C     0.16632   0.70918   0.75029   0.00000  Uiso   1.00
C1152  C     0.16701   0.95749   0.74971   0.00000  Uiso   1.00
C1153  C     0.32206   0.81183   0.71653   0.00000  Uiso   1.00
C1154  C     0.01127   0.85483   0.78347   0.00000  Uiso   1.00
C1155  C     0.03702   0.81149   0.71599   0.00000  Uiso   1.00
C1156  C     0.29631   0.85518   0.78401   0.00000  Uiso   1.00
C1157  C     0.13595   0.83302   0.83792   0.00000  Uiso   1.00
C1158  C     0.19739   0.83364   0.66208   0.00000  Uiso   1.00
C1159  C     0.11596   0.83442   0.88881   0.00000  Uiso   1.00
C1160  C     0.21737   0.83225   0.61119   0.00000  Uiso   1.00
C1161  C     0.05996   0.86460   0.96162   0.00000  Uiso   1.00
C1162  C     0.27338   0.80208   0.53837   0.00000  Uiso   1.00
C1163  C     0.07395   0.85749   0.91364   0.00000  Uiso   1.00
C1164  C     0.25938   0.80918   0.58636   0.00000  Uiso   1.00
C1165  C     0.14270   0.81674   0.91213   0.00000  Uiso   1.00
C1166  C     0.19064   0.84993   0.58787   0.00000  Uiso   1.00
C1167  C     0.13614   0.83187   0.95710   0.00000  Uiso   1.00
C1168  C     0.19720   0.83482   0.54290   0.00000  Uiso   1.00
C1169  C     0.09156   0.85254   0.98360   0.00000  Uiso   1.00
C1170  C     0.24177   0.81414   0.51640   0.00000  Uiso   1.00
C1171  C     0.17246   0.82788   0.97621   0.00000  Uiso   1.00
C1172  C     0.16088   0.83880   0.52379   0.00000  Uiso   1.00
H1173  H     0.04399   0.87179   0.55379   0.00000  Uiso   1.00
H1174  H     0.28935   0.79490   0.94621   0.00000  Uiso   1.00
H1175  H     0.28088   0.79645   0.60441   0.00000  Uiso   1.00
H1176  H     0.05245   0.87022   0.89559   0.00000  Uiso   1.00
H1177  H     0.09929   0.85391   0.58902   0.00000  Uiso   1.00
H1178  H     0.23404   0.81278   0.91098   0.00000  Uiso   1.00
H1179  H     0.22948   0.96350   0.76959   0.00000  Uiso   1.00
H1180  H     0.10385   0.70317   0.73041   0.00000  Uiso   1.00
H1181  H     0.22888   0.70529   0.77020   0.00000  Uiso   1.00
H1182  H     0.10445   0.96138   0.72980   0.00000  Uiso   1.00
H1183  H     0.31284   0.79465   0.69071   0.00000  Uiso   1.00
H1184  H     0.02049   0.87202   0.80929   0.00000  Uiso   1.00
N1185  N     0.04759   0.83334   0.75001   0.00000  Uiso   1.00
N1186  N     0.28574   0.83332   0.74999   0.00000  Uiso   1.00
O1187  O     0.12846   0.89442   0.75000   0.00000  Uiso   1.00
O1188  O     0.20488   0.77225   0.75000   0.00000  Uiso   1.00
O1189  O     0.20490   0.89441   0.75000   0.00000  Uiso   1.00
O1190  O     0.12843   0.77226   0.75000   0.00000  Uiso   1.00
O1191  O     0.10661   0.83334   0.81612   0.00000  Uiso   1.00
O1192  O     0.22672   0.83333   0.68388   0.00000  Uiso   1.00
O1193  O     0.18305   0.83333   0.81612   0.00000  Uiso   1.00
O1194  O     0.15028   0.83334   0.68388   0.00000  Uiso   1.00
Zn1195 Zn    0.11562   0.83334   0.75000   0.00000  Uiso   1.00
Zn1196 Zn    0.21771   0.83333   0.75000   0.00000  Uiso   1.00
C1197  C     0.16339   0.88777   0.60754   0.00000  Uiso   1.00
N1198  N     0.14187   0.91796   0.62331   0.00000  Uiso   1.00
C1199  C     0.16995   0.77891   0.89246   0.00000  Uiso   1.00
N1200  N     0.19147   0.74872   0.87669   0.00000  Uiso   1.00
C1201  C     0.01508   0.88696   0.98643   0.00000  Uiso   1.00
N1202  N     0.31247   0.90485   0.50625   0.00000  Uiso   1.00
C1203  C     0.31826   0.77972   0.51357   0.00000  Uiso   1.00
N1204  N     0.02087   0.76183   0.99374   0.00000  Uiso   1.00
N1205  N     0.07480   0.78852   0.68048   0.00000  Uiso   1.00
H1206  H     0.09496   0.76991   0.69273   0.00000  Uiso   1.00
C1207  C     0.06653   0.77002   0.64109   0.00000  Uiso   1.00
H1208  H     0.10169   0.75851   0.61469   0.00000  Uiso   1.00
H1209  H     0.05187   0.79343   0.62408   0.00000  Uiso   1.00
H1210  H     0.04095   0.74328   0.65277   0.00000  Uiso   1.00
N1211  N     0.25853   0.87815   0.81952   0.00000  Uiso   1.00
H1212  H     0.23837   0.89676   0.80727   0.00000  Uiso   1.00
C1213  C     0.26681   0.89666   0.85890   0.00000  Uiso   1.00
H1214  H     0.23165   0.90818   0.88530   0.00000  Uiso   1.00
H1215  H     0.29239   0.92340   0.84721   0.00000  Uiso   1.00
H1216  H     0.28147   0.87326   0.87591   0.00000  Uiso   1.00
C1217  C     0.50020   0.91331   0.74990   0.00000  Uiso   1.00
C1218  C     0.49980   0.75336   0.75010   0.00000  Uiso   1.00
C1219  C     0.44591   0.85099   0.55145   0.00000  Uiso   1.00
C1220  C     0.55410   0.81570   0.94855   0.00000  Uiso   1.00
C1221  C     0.41277   0.85979   0.53138   0.00000  Uiso   1.00
C1222  C     0.58723   0.80689   0.96861   0.00000  Uiso   1.00
C1223  C     0.53546   0.97926   0.76083   0.00000  Uiso   1.00
C1224  C     0.46454   0.68741   0.73917   0.00000  Uiso   1.00
C1225  C     0.53508   0.68857   0.76118   0.00000  Uiso   1.00
C1226  C     0.46492   0.97809   0.73882   0.00000  Uiso   1.00
C1227  C     0.49966   0.70918   0.75029   0.00000  Uiso   1.00
C1228  C     0.50034   0.95749   0.74971   0.00000  Uiso   1.00
C1229  C     0.65540   0.81183   0.71653   0.00000  Uiso   1.00
C1230  C     0.34460   0.85483   0.78347   0.00000  Uiso   1.00
C1231  C     0.37036   0.81149   0.71599   0.00000  Uiso   1.00
C1232  C     0.62964   0.85518   0.78401   0.00000  Uiso   1.00
C1233  C     0.46928   0.83302   0.83792   0.00000  Uiso   1.00
C1234  C     0.53072   0.83364   0.66208   0.00000  Uiso   1.00
C1235  C     0.44929   0.83442   0.88881   0.00000  Uiso   1.00
C1236  C     0.55071   0.83225   0.61119   0.00000  Uiso   1.00
C1237  C     0.39329   0.86460   0.96162   0.00000  Uiso   1.00
C1238  C     0.60671   0.80208   0.53837   0.00000  Uiso   1.00
C1239  C     0.40728   0.85749   0.91364   0.00000  Uiso   1.00
C1240  C     0.59272   0.80918   0.58636   0.00000  Uiso   1.00
C1241  C     0.47603   0.81674   0.91213   0.00000  Uiso   1.00
C1242  C     0.52397   0.84993   0.58787   0.00000  Uiso   1.00
C1243  C     0.46947   0.83187   0.95710   0.00000  Uiso   1.00
C1244  C     0.53053   0.83482   0.54290   0.00000  Uiso   1.00
C1245  C     0.42489   0.85254   0.98360   0.00000  Uiso   1.00
C1246  C     0.57511   0.81414   0.51640   0.00000  Uiso   1.00
C1247  C     0.50579   0.82788   0.97621   0.00000  Uiso   1.00
C1248  C     0.49421   0.83880   0.52379   0.00000  Uiso   1.00
H1249  H     0.37732   0.87179   0.55379   0.00000  Uiso   1.00
H1250  H     0.62268   0.79490   0.94621   0.00000  Uiso   1.00
H1251  H     0.61421   0.79645   0.60441   0.00000  Uiso   1.00
H1252  H     0.38579   0.87022   0.89559   0.00000  Uiso   1.00
H1253  H     0.43263   0.85391   0.58902   0.00000  Uiso   1.00
H1254  H     0.56737   0.81278   0.91098   0.00000  Uiso   1.00
H1255  H     0.56281   0.96350   0.76959   0.00000  Uiso   1.00
H1256  H     0.43719   0.70317   0.73041   0.00000  Uiso   1.00
H1257  H     0.56222   0.70529   0.77020   0.00000  Uiso   1.00
H1258  H     0.43778   0.96138   0.72980   0.00000  Uiso   1.00
H1259  H     0.64618   0.79465   0.69071   0.00000  Uiso   1.00
H1260  H     0.35382   0.87202   0.80929   0.00000  Uiso   1.00
N1261  N     0.38093   0.83334   0.75001   0.00000  Uiso   1.00
N1262  N     0.61907   0.83332   0.74999   0.00000  Uiso   1.00
O1263  O     0.46179   0.89442   0.75000   0.00000  Uiso   1.00
O1264  O     0.53821   0.77225   0.75000   0.00000  Uiso   1.00
O1265  O     0.53823   0.89441   0.75000   0.00000  Uiso   1.00
O1266  O     0.46177   0.77226   0.75000   0.00000  Uiso   1.00
O1267  O     0.43994   0.83334   0.81612   0.00000  Uiso   1.00
O1268  O     0.56006   0.83333   0.68388   0.00000  Uiso   1.00
O1269  O     0.51639   0.83333   0.81612   0.00000  Uiso   1.00
O1270  O     0.48361   0.83334   0.68388   0.00000  Uiso   1.00
Zn1271 Zn    0.44896   0.83334   0.75000   0.00000  Uiso   1.00
Zn1272 Zn    0.55104   0.83333   0.75000   0.00000  Uiso   1.00
C1273  C     0.49672   0.88777   0.60754   0.00000  Uiso   1.00
N1274  N     0.47520   0.91796   0.62331   0.00000  Uiso   1.00
C1275  C     0.50328   0.77891   0.89246   0.00000  Uiso   1.00
N1276  N     0.52480   0.74872   0.87669   0.00000  Uiso   1.00
C1277  C     0.34841   0.88696   0.98643   0.00000  Uiso   1.00
N1278  N     0.64580   0.90485   0.50625   0.00000  Uiso   1.00
C1279  C     0.65159   0.77972   0.51357   0.00000  Uiso   1.00
N1280  N     0.35420   0.76183   0.99374   0.00000  Uiso   1.00
N1281  N     0.40814   0.78852   0.68048   0.00000  Uiso   1.00
H1282  H     0.42829   0.76991   0.69273   0.00000  Uiso   1.00
C1283  C     0.39986   0.77002   0.64109   0.00000  Uiso   1.00
H1284  H     0.43502   0.75851   0.61469   0.00000  Uiso   1.00
H1285  H     0.38520   0.79343   0.62408   0.00000  Uiso   1.00
H1286  H     0.37428   0.74328   0.65277   0.00000  Uiso   1.00
N1287  N     0.59186   0.87815   0.81952   0.00000  Uiso   1.00
H1288  H     0.57171   0.89676   0.80727   0.00000  Uiso   1.00
C1289  C     0.60015   0.89666   0.85890   0.00000  Uiso   1.00
H1290  H     0.56499   0.90818   0.88530   0.00000  Uiso   1.00
H1291  H     0.62573   0.92340   0.84721   0.00000  Uiso   1.00
H1292  H     0.61480   0.87326   0.87591   0.00000  Uiso   1.00
C1293  C     0.83353   0.91331   0.74990   0.00000  Uiso   1.00
C1294  C     0.83314   0.75336   0.75010   0.00000  Uiso   1.00
C1295  C     0.77924   0.85099   0.55145   0.00000  Uiso   1.00
C1296  C     0.88743   0.81570   0.94855   0.00000  Uiso   1.00
C1297  C     0.74611   0.85979   0.53138   0.00000  Uiso   1.00
C1298  C     0.92056   0.80689   0.96861   0.00000  Uiso   1.00
C1299  C     0.86880   0.97926   0.76083   0.00000  Uiso   1.00
C1300  C     0.79787   0.68741   0.73917   0.00000  Uiso   1.00
C1301  C     0.86841   0.68857   0.76118   0.00000  Uiso   1.00
C1302  C     0.79825   0.97809   0.73882   0.00000  Uiso   1.00
C1303  C     0.83299   0.70918   0.75029   0.00000  Uiso   1.00
C1304  C     0.83368   0.95749   0.74971   0.00000  Uiso   1.00
C1305  C     0.98873   0.81183   0.71653   0.00000  Uiso   1.00
C1306  C     0.67794   0.85483   0.78347   0.00000  Uiso   1.00
C1307  C     0.70369   0.81149   0.71599   0.00000  Uiso   1.00
C1308  C     0.96298   0.85518   0.78401   0.00000  Uiso   1.00
C1309  C     0.80261   0.83302   0.83792   0.00000  Uiso   1.00
C1310  C     0.86405   0.83364   0.66208   0.00000  Uiso   1.00
C1311  C     0.78263   0.83442   0.88881   0.00000  Uiso   1.00
C1312  C     0.88404   0.83225   0.61119   0.00000  Uiso   1.00
C1313  C     0.72663   0.86460   0.96162   0.00000  Uiso   1.00
C1314  C     0.94004   0.80208   0.53837   0.00000  Uiso   1.00
C1315  C     0.74062   0.85749   0.91364   0.00000  Uiso   1.00
C1316  C     0.92605   0.80918   0.58636   0.00000  Uiso   1.00
C1317  C     0.80937   0.81674   0.91213   0.00000  Uiso   1.00
C1318  C     0.85730   0.84993   0.58787   0.00000  Uiso   1.00
C1319  C     0.80281   0.83187   0.95710   0.00000  Uiso   1.00
C1320  C     0.86386   0.83482   0.54290   0.00000  Uiso   1.00
C1321  C     0.75823   0.85254   0.98360   0.00000  Uiso   1.00
C1322  C     0.90844   0.81414   0.51640   0.00000  Uiso   1.00
C1323  C     0.83912   0.82788   0.97621   0.00000  Uiso   1.00
C1324  C     0.82755   0.83880   0.52379   0.00000  Uiso   1.00
H1325  H     0.71065   0.87179   0.55379   0.00000  Uiso   1.00
H1326  H     0.95602   0.79490   0.94621   0.00000  Uiso   1.00
H1327  H     0.94755   0.79645   0.60441   0.00000  Uiso   1.00
H1328  H     0.71912   0.87022   0.89559   0.00000  Uiso   1.00
H1329  H     0.76596   0.85391   0.58902   0.00000  Uiso   1.00
H1330  H     0.90071   0.81278   0.91098   0.00000  Uiso   1.00
H1331  H     0.89615   0.96350   0.76959   0.00000  Uiso   1.00
H1332  H     0.77052   0.70317   0.73041   0.00000  Uiso   1.00
H1333  H     0.89555   0.70529   0.77020   0.00000  Uiso   1.00
H1334  H     0.77112   0.96138   0.72980   0.00000  Uiso   1.00
H1335  H     0.97951   0.79465   0.69071   0.00000  Uiso   1.00
H1336  H     0.68716   0.87202   0.80929   0.00000  Uiso   1.00
N1337  N     0.71426   0.83334   0.75001   0.00000  Uiso   1.00
N1338  N     0.95241   0.83332   0.74999   0.00000  Uiso   1.00
O1339  O     0.79512   0.89442   0.75000   0.00000  Uiso   1.00
O1340  O     0.87154   0.77225   0.75000   0.00000  Uiso   1.00
O1341  O     0.87157   0.89441   0.75000   0.00000  Uiso   1.00
O1342  O     0.79510   0.77226   0.75000   0.00000  Uiso   1.00
O1343  O     0.77328   0.83334   0.81612   0.00000  Uiso   1.00
O1344  O     0.89339   0.83333   0.68388   0.00000  Uiso   1.00
O1345  O     0.84972   0.83333   0.81612   0.00000  Uiso   1.00
O1346  O     0.81695   0.83334   0.68388   0.00000  Uiso   1.00
Zn1347 Zn    0.78229   0.83334   0.75000   0.00000  Uiso   1.00
Zn1348 Zn    0.88438   0.83333   0.75000   0.00000  Uiso   1.00
C1349  C     0.83005   0.88777   0.60754   0.00000  Uiso   1.00
N1350  N     0.80853   0.91796   0.62331   0.00000  Uiso   1.00
C1351  C     0.83662   0.77891   0.89246   0.00000  Uiso   1.00
N1352  N     0.85814   0.74872   0.87669   0.00000  Uiso   1.00
C1353  C     0.68174   0.88696   0.98643   0.00000  Uiso   1.00
N1354  N     0.97914   0.90485   0.50625   0.00000  Uiso   1.00
C1355  C     0.98492   0.77972   0.51357   0.00000  Uiso   1.00
N1356  N     0.68753   0.76183   0.99374   0.00000  Uiso   1.00
N1357  N     0.74147   0.78852   0.68048   0.00000  Uiso   1.00
H1358  H     0.76162   0.76991   0.69273   0.00000  Uiso   1.00
C1359  C     0.73319   0.77002   0.64109   0.00000  Uiso   1.00
H1360  H     0.76835   0.75851   0.61469   0.00000  Uiso   1.00
H1361  H     0.71854   0.79343   0.62408   0.00000  Uiso   1.00
H1362  H     0.70761   0.74328   0.65277   0.00000  Uiso   1.00
N1363  N     0.92520   0.87815   0.81952   0.00000  Uiso   1.00
H1364  H     0.90504   0.89676   0.80727   0.00000  Uiso   1.00
C1365  C     0.93348   0.89666   0.85890   0.00000  Uiso   1.00
H1366  H     0.89832   0.90818   0.88530   0.00000  Uiso   1.00
H1367  H     0.95906   0.92340   0.84721   0.00000  Uiso   1.00
H1368  H     0.94813   0.87326   0.87591   0.00000  Uiso   1.00
loop_
_geom_bond_atom_site_label_1
_geom_bond_atom_site_label_2
_geom_bond_distance
_geom_bond_site_symmetry_2
_ccdc_geom_bond_type
C1     C12     1.419   .     S
C1     O47     1.286   .     A
C1     O49     1.289   .     A
C2     O50     1.289   .     A
C2     C11     1.419   .     S
C2     O48     1.286   .     A
C3     C5      1.385   .     A
C3     C32     1.413   .     A
C3     H37     1.077   .     S
C4     C6      1.385   .     A
C4     H38     1.077   .     S
C4     C31     1.413   .     A
C5     H33     1.083   .     S
C5     C713    1.396   1_554 S
C6     H34     1.083   .     S
C6     C714    1.396   .     S
C7     C12     1.396   .     A
C7     H39     1.083   .     S
C7     C237    1.370   .     S
C8     C11     1.396   .     A
C8     H40     1.083   .     S
C8     C466    1.370   1_545 S
C9     C11     1.398   .     A
C9     H41     1.084   .     S
C9     C463    1.370   1_545 S
C10    H42     1.084   .     S
C10    C12     1.398   .     A
C10    C236    1.370   .     S
C13    N46     1.356   .     A
C13    H43     1.080   .     S
C13    C91     1.428   .     S
C14    N45     1.356   .     A
C14    H44     1.080   .     S
C14    C168    1.428   1_455 S
C15    N65     1.430   .     S
C15    N45     1.386   .     A
C15    C165    1.428   1_455 S
C16    N71     1.430   .     S
C16    N46     1.386   .     A
C16    C90     1.428   .     S
C17    O51     1.292   .     A
C17    O53     1.299   .     A
C17    C19     1.454   .     S
C18    O52     1.292   .     A
C18    C20     1.454   .     S
C18    O54     1.299   .     A
C19    C23     1.398   .     A
C19    C25     1.393   .     A
C20    C24     1.398   .     A
C20    C26     1.393   .     A
C21    C61     1.446   .     S
C21    C29     1.416   .     A
C21    C23     1.394   .     A
C22    C63     1.446   .     S
C22    C24     1.394   .     A
C22    C30     1.416   .     A
C23    H36     1.085   .     S
C24    H35     1.085   .     S
C25    C27     1.406   .     A
C25    C59     1.453   .     S
C26    C28     1.406   .     A
C26    C57     1.453   .     S
C27    C29     1.423   .     A
C27    C31     1.424   .     A
C28    C32     1.424   .     A
C28    C30     1.423   .     A
C29    C689    1.396   .     S
C30    C690    1.396   1_554 S
C31    C716    1.415   .     S
C32    C715    1.415   1_554 S
N45    Zn55    2.021   .     S
N46    Zn56    2.021   .     S
O47    Zn55    1.995   .     S
O48    Zn56    1.995   .     S
O49    Zn56    2.002   .     S
O50    Zn55    2.002   .     S
O51    Zn55    1.960   .     S
O52    Zn56    1.960   .     S
O53    Zn56    1.905   .     S
O54    Zn55    1.905   .     S
C57    N58     1.158   .     T
C59    N60     1.158   .     T
C61    N898    1.157   1_455 S
N62    C821    1.157   1_554 S
C63    N824    1.157   1_554 S
N64    C899    1.157   1_455 S
N65    C67     1.449   .     S
N65    H66     1.025   .     S
C67    H68     1.111   .     S
C67    H69     1.110   .     S
C67    H70     1.111   .     S
N71    C73     1.449   .     S
N71    H72     1.025   .     S
C73    H74     1.111   .     S
C73    H75     1.111   .     S
C73    H76     1.110   .     S
C77    C88     1.419   .     S
C77    O123    1.286   .     A
C77    O125    1.289   .     A
C78    O126    1.289   .     A
C78    C87     1.419   .     S
C78    O124    1.286   .     A
C79    C81     1.385   .     A
C79    C108    1.413   .     A
C79    H113    1.077   .     S
C80    C82     1.385   .     A
C80    H114    1.077   .     S
C80    C107    1.413   .     A
C81    H109    1.083   .     S
C81    C789    1.396   1_554 S
C82    H110    1.083   .     S
C82    C790    1.396   .     S
C83    C88     1.396   .     A
C83    H115    1.083   .     S
C83    C313    1.370   .     S
C84    C87     1.396   .     A
C84    H116    1.083   .     S
C84    C542    1.370   1_545 S
C85    C87     1.398   .     A
C85    H117    1.084   .     S
C85    C539    1.370   1_545 S
C86    H118    1.084   .     S
C86    C88     1.398   .     A
C86    C312    1.370   .     S
C89    N122    1.356   .     A
C89    H119    1.080   .     S
C89    C167    1.428   .     S
C90    N121    1.356   .     A
C90    H120    1.080   .     S
C91    N141    1.430   .     S
C91    N121    1.386   .     A
C92    N147    1.430   .     S
C92    N122    1.386   .     A
C92    C166    1.428   .     S
C93    O127    1.292   .     A
C93    O129    1.299   .     A
C93    C95     1.454   .     S
C94    O128    1.292   .     A
C94    C96     1.454   .     S
C94    O130    1.299   .     A
C95    C99     1.398   .     A
C95    C101    1.393   .     A
C96    C100    1.398   .     A
C96    C102    1.393   .     A
C97    C137    1.446   .     S
C97    C105    1.416   .     A
C97    C99     1.394   .     A
C98    C139    1.446   .     S
C98    C100    1.394   .     A
C98    C106    1.416   .     A
C99    H112    1.085   .     S
C100   H111    1.085   .     S
C101   C103    1.406   .     A
C101   C135    1.453   .     S
C102   C104    1.406   .     A
C102   C133    1.453   .     S
C103   C105    1.423   .     A
C103   C107    1.424   .     A
C104   C108    1.424   .     A
C104   C106    1.423   .     A
C105   C765    1.396   .     S
C106   C766    1.396   1_554 S
C107   C792    1.415   .     S
C108   C791    1.415   1_554 S
N121   Zn131   2.021   .     S
N122   Zn132   2.021   .     S
O123   Zn131   1.995   .     S
O124   Zn132   1.995   .     S
O125   Zn132   2.002   .     S
O126   Zn131   2.002   .     S
O127   Zn131   1.960   .     S
O128   Zn132   1.960   .     S
O129   Zn132   1.905   .     S
O130   Zn131   1.905   .     S
C133   N134    1.158   .     T
C135   N136    1.158   .     T
C137   N746    1.157   .     S
N138   C897    1.157   1_554 S
C139   N900    1.157   1_554 S
N140   C747    1.157   .     S
N141   C143    1.449   .     S
N141   H142    1.025   .     S
C143   H144    1.111   .     S
C143   H145    1.110   .     S
C143   H146    1.111   .     S
N147   C149    1.449   .     S
N147   H148    1.025   .     S
C149   H150    1.111   .     S
C149   H151    1.111   .     S
C149   H152    1.110   .     S
C153   C164    1.419   .     S
C153   O199    1.286   .     A
C153   O201    1.289   .     A
C154   O202    1.289   .     A
C154   C163    1.419   .     S
C154   O200    1.286   .     A
C155   C157    1.385   .     A
C155   C184    1.413   .     A
C155   H189    1.077   .     S
C156   C158    1.385   .     A
C156   H190    1.077   .     S
C156   C183    1.413   .     A
C157   H185    1.083   .     S
C157   C865    1.396   1_554 S
C158   H186    1.083   .     S
C158   C866    1.396   .     S
C159   C164    1.396   .     A
C159   H191    1.083   .     S
C159   C389    1.370   .     S
C160   C163    1.396   .     A
C160   H192    1.083   .     S
C160   C618    1.370   1_545 S
C161   C163    1.398   .     A
C161   H193    1.084   .     S
C161   C615    1.370   1_545 S
C162   H194    1.084   .     S
C162   C164    1.398   .     A
C162   C388    1.370   .     S
C165   N198    1.356   .     A
C165   H195    1.080   .     S
C165   C15     1.428   1_655 S
C166   N197    1.356   .     A
C166   H196    1.080   .     S
C167   N217    1.430   .     S
C167   N197    1.386   .     A
C168   N223    1.430   .     S
C168   N198    1.386   .     A
C168   C14     1.428   1_655 S
C169   O203    1.292   .     A
C169   O205    1.299   .     A
C169   C171    1.454   .     S
C170   O204    1.292   .     A
C170   C172    1.454   .     S
C170   O206    1.299   .     A
C171   C175    1.398   .     A
C171   C177    1.393   .     A
C172   C176    1.398   .     A
C172   C178    1.393   .     A
C173   C213    1.446   .     S
C173   C181    1.416   .     A
C173   C175    1.394   .     A
C174   C215    1.446   .     S
C174   C176    1.394   .     A
C174   C182    1.416   .     A
C175   H188    1.085   .     S
C176   H187    1.085   .     S
C177   C179    1.406   .     A
C177   C211    1.453   .     S
C178   C180    1.406   .     A
C178   C209    1.453   .     S
C179   C181    1.423   .     A
C179   C183    1.424   .     A
C180   C184    1.424   .     A
C180   C182    1.423   .     A
C181   C841    1.396   .     S
C182   C842    1.396   1_554 S
C183   C868    1.415   .     S
C184   C867    1.415   1_554 S
N197   Zn207   2.021   .     S
N198   Zn208   2.021   .     S
O199   Zn207   1.995   .     S
O200   Zn208   1.995   .     S
O201   Zn208   2.002   .     S
O202   Zn207   2.002   .     S
O203   Zn207   1.960   .     S
O204   Zn208   1.960   .     S
O205   Zn208   1.905   .     S
O206   Zn207   1.905   .     S
C209   N210    1.158   .     T
C211   N212    1.158   .     T
C213   N822    1.157   .     S
N214   C745    1.157   1_654 S
C215   N748    1.157   1_654 S
N216   C823    1.157   .     S
N217   C219    1.449   .     S
N217   H218    1.025   .     S
C219   H220    1.111   .     S
C219   H221    1.110   .     S
C219   H222    1.111   .     S
N223   C225    1.449   .     S
N223   H224    1.025   .     S
C225   H226    1.111   .     S
C225   H227    1.111   .     S
C225   H228    1.110   .     S
C229   C240    1.419   .     S
C229   O275    1.286   .     A
C229   O277    1.289   .     A
C230   O278    1.289   .     A
C230   C239    1.419   .     S
C230   O276    1.286   .     A
C231   C233    1.385   .     A
C231   C260    1.413   .     A
C231   H265    1.077   .     S
C232   C234    1.385   .     A
C232   H266    1.077   .     S
C232   C259    1.413   .     A
C233   H261    1.083   .     S
C233   C941    1.396   1_554 S
C234   H262    1.083   .     S
C234   C942    1.396   .     S
C235   C240    1.396   .     A
C235   H267    1.083   .     S
C235   C465    1.370   .     S
C236   C239    1.396   .     A
C236   H268    1.083   .     S
C237   C239    1.398   .     A
C237   H269    1.084   .     S
C238   H270    1.084   .     S
C238   C240    1.398   .     A
C238   C464    1.370   .     S
C241   N274    1.356   .     A
C241   H271    1.080   .     S
C241   C319    1.428   .     S
C242   N273    1.356   .     A
C242   H272    1.080   .     S
C242   C396    1.428   1_455 S
C243   N293    1.430   .     S
C243   N273    1.386   .     A
C243   C393    1.428   1_455 S
C244   N299    1.430   .     S
C244   N274    1.386   .     A
C244   C318    1.428   .     S
C245   O279    1.292   .     A
C245   O281    1.299   .     A
C245   C247    1.454   .     S
C246   O280    1.292   .     A
C246   C248    1.454   .     S
C246   O282    1.299   .     A
C247   C251    1.398   .     A
C247   C253    1.393   .     A
C248   C252    1.398   .     A
C248   C254    1.393   .     A
C249   C289    1.446   .     S
C249   C257    1.416   .     A
C249   C251    1.394   .     A
C250   C291    1.446   .     S
C250   C252    1.394   .     A
C250   C258    1.416   .     A
C251   H264    1.085   .     S
C252   H263    1.085   .     S
C253   C255    1.406   .     A
C253   C287    1.453   .     S
C254   C256    1.406   .     A
C254   C285    1.453   .     S
C255   C257    1.423   .     A
C255   C259    1.424   .     A
C256   C260    1.424   .     A
C256   C258    1.423   .     A
C257   C917    1.396   .     S
C258   C918    1.396   1_554 S
C259   C944    1.415   .     S
C260   C943    1.415   1_554 S
N273   Zn283   2.021   .     S
N274   Zn284   2.021   .     S
O275   Zn283   1.995   .     S
O276   Zn284   1.995   .     S
O277   Zn284   2.002   .     S
O278   Zn283   2.002   .     S
O279   Zn283   1.960   .     S
O280   Zn284   1.960   .     S
O281   Zn284   1.905   .     S
O282   Zn283   1.905   .     S
C285   N286    1.158   .     T
C287   N288    1.158   .     T
C289   N1126   1.157   1_455 S
N290   C1049   1.157   1_554 S
C291   N1052   1.157   1_554 S
N292   C1127   1.157   1_455 S
N293   C295    1.449   .     S
N293   H294    1.025   .     S
C295   H296    1.111   .     S
C295   H297    1.110   .     S
C295   H298    1.111   .     S
N299   C301    1.449   .     S
N299   H300    1.025   .     S
C301   H302    1.111   .     S
C301   H303    1.111   .     S
C301   H304    1.110   .     S
C305   C316    1.419   .     S
C305   O351    1.286   .     A
C305   O353    1.289   .     A
C306   O354    1.289   .     A
C306   C315    1.419   .     S
C306   O352    1.286   .     A
C307   C309    1.385   .     A
C307   C336    1.413   .     A
C307   H341    1.077   .     S
C308   C310    1.385   .     A
C308   H342    1.077   .     S
C308   C335    1.413   .     A
C309   H337    1.083   .     S
C309   C1017   1.396   1_554 S
C310   H338    1.083   .     S
C310   C1018   1.396   .     S
C311   C316    1.396   .     A
C311   H343    1.083   .     S
C311   C541    1.370   .     S
C312   C315    1.396   .     A
C312   H344    1.083   .     S
C313   C315    1.398   .     A
C313   H345    1.084   .     S
C314   H346    1.084   .     S
C314   C316    1.398   .     A
C314   C540    1.370   .     S
C317   N350    1.356   .     A
C317   H347    1.080   .     S
C317   C395    1.428   .     S
C318   N349    1.356   .     A
C318   H348    1.080   .     S
C319   N369    1.430   .     S
C319   N349    1.386   .     A
C320   N375    1.430   .     S
C320   N350    1.386   .     A
C320   C394    1.428   .     S
C321   O355    1.292   .     A
C321   O357    1.299   .     A
C321   C323    1.454   .     S
C322   O356    1.292   .     A
C322   C324    1.454   .     S
C322   O358    1.299   .     A
C323   C327    1.398   .     A
C323   C329    1.393   .     A
C324   C328    1.398   .     A
C324   C330    1.393   .     A
C325   C365    1.446   .     S
C325   C333    1.416   .     A
C325   C327    1.394   .     A
C326   C367    1.446   .     S
C326   C328    1.394   .     A
C326   C334    1.416   .     A
C327   H340    1.085   .     S
C328   H339    1.085   .     S
C329   C331    1.406   .     A
C329   C363    1.453   .     S
C330   C332    1.406   .     A
C330   C361    1.453   .     S
C331   C333    1.423   .     A
C331   C335    1.424   .     A
C332   C336    1.424   .     A
C332   C334    1.423   .     A
C333   C993    1.396   .     S
C334   C994    1.396   1_554 S
C335   C1020   1.415   .     S
C336   C1019   1.415   1_554 S
N349   Zn359   2.021   .     S
N350   Zn360   2.021   .     S
O351   Zn359   1.995   .     S
O352   Zn360   1.995   .     S
O353   Zn360   2.002   .     S
O354   Zn359   2.002   .     S
O355   Zn359   1.960   .     S
O356   Zn360   1.960   .     S
O357   Zn360   1.905   .     S
O358   Zn359   1.905   .     S
C361   N362    1.158   .     T
C363   N364    1.158   .     T
C365   N974    1.157   .     S
N366   C1125   1.157   1_554 S
C367   N1128   1.157   1_554 S
N368   C975    1.157   .     S
N369   C371    1.449   .     S
N369   H370    1.025   .     S
C371   H372    1.111   .     S
C371   H373    1.110   .     S
C371   H374    1.111   .     S
N375   C377    1.449   .     S
N375   H376    1.025   .     S
C377   H378    1.111   .     S
C377   H379    1.111   .     S
C377   H380    1.110   .     S
C381   C392    1.419   .     S
C381   O427    1.286   .     A
C381   O429    1.289   .     A
C382   O430    1.289   .     A
C382   C391    1.419   .     S
C382   O428    1.286   .     A
C383   C385    1.385   .     A
C383   C412    1.413   .     A
C383   H417    1.077   .     S
C384   C386    1.385   .     A
C384   H418    1.077   .     S
C384   C411    1.413   .     A
C385   H413    1.083   .     S
C385   C1093   1.396   1_554 S
C386   H414    1.083   .     S
C386   C1094   1.396   .     S
C387   C392    1.396   .     A
C387   H419    1.083   .     S
C387   C617    1.370   .     S
C388   C391    1.396   .     A
C388   H420    1.083   .     S
C389   C391    1.398   .     A
C389   H421    1.084   .     S
C390   H422    1.084   .     S
C390   C392    1.398   .     A
C390   C616    1.370   .     S
C393   N426    1.356   .     A
C393   H423    1.080   .     S
C393   C243    1.428   1_655 S
C394   N425    1.356   .     A
C394   H424    1.080   .     S
C395   N445    1.430   .     S
C395   N425    1.386   .     A
C396   N451    1.430   .     S
C396   N426    1.386   .     A
C396   C242    1.428   1_655 S
C397   O431    1.292   .     A
C397   O433    1.299   .     A
C397   C399    1.454   .     S
C398   O432    1.292   .     A
C398   C400    1.454   .     S
C398   O434    1.299   .     A
C399   C403    1.398   .     A
C399   C405    1.393   .     A
C400   C404    1.398   .     A
C400   C406    1.393   .     A
C401   C441    1.446   .     S
C401   C409    1.416   .     A
C401   C403    1.394   .     A
C402   C443    1.446   .     S
C402   C404    1.394   .     A
C402   C410    1.416   .     A
C403   H416    1.085   .     S
C404   H415    1.085   .     S
C405   C407    1.406   .     A
C405   C439    1.453   .     S
C406   C408    1.406   .     A
C406   C437    1.453   .     S
C407   C409    1.423   .     A
C407   C411    1.424   .     A
C408   C412    1.424   .     A
C408   C410    1.423   .     A
C409   C1069   1.396   .     S
C410   C1070   1.396   1_554 S
C411   C1096   1.415   .     S
C412   C1095   1.415   1_554 S
N425   Zn435   2.021   .     S
N426   Zn436   2.021   .     S
O427   Zn435   1.995   .     S
O428   Zn436   1.995   .     S
O429   Zn436   2.002   .     S
O430   Zn435   2.002   .     S
O431   Zn435   1.960   .     S
O432   Zn436   1.960   .     S
O433   Zn436   1.905   .     S
O434   Zn435   1.905   .     S
C437   N438    1.158   .     T
C439   N440    1.158   .     T
C441   N1050   1.157   .     S
N442   C973    1.157   1_654 S
C443   N976    1.157   1_654 S
N444   C1051   1.157   .     S
N445   C447    1.449   .     S
N445   H446    1.025   .     S
C447   H448    1.111   .     S
C447   H449    1.110   .     S
C447   H450    1.111   .     S
N451   C453    1.449   .     S
N451   H452    1.025   .     S
C453   H454    1.111   .     S
C453   H455    1.111   .     S
C453   H456    1.110   .     S
C457   C468    1.419   .     S
C457   O503    1.286   .     A
C457   O505    1.289   .     A
C458   O506    1.289   .     A
C458   C467    1.419   .     S
C458   O504    1.286   .     A
C459   C461    1.385   .     A
C459   C488    1.413   .     A
C459   H493    1.077   .     S
C460   C462    1.385   .     A
C460   H494    1.077   .     S
C460   C487    1.413   .     A
C461   H489    1.083   .     S
C461   C1169   1.396   1_554 S
C462   H490    1.083   .     S
C462   C1170   1.396   .     S
C463   C468    1.396   .     A
C463   H495    1.083   .     S
C463   C9      1.370   1_565 S
C464   C467    1.396   .     A
C464   H496    1.083   .     S
C465   C467    1.398   .     A
C465   H497    1.084   .     S
C466   H498    1.084   .     S
C466   C468    1.398   .     A
C466   C8      1.370   1_565 S
C469   N502    1.356   .     A
C469   H499    1.080   .     S
C469   C547    1.428   .     S
C470   N501    1.356   .     A
C470   H500    1.080   .     S
C470   C624    1.428   1_455 S
C471   N521    1.430   .     S
C471   N501    1.386   .     A
C471   C621    1.428   1_455 S
C472   N527    1.430   .     S
C472   N502    1.386   .     A
C472   C546    1.428   .     S
C473   O507    1.292   .     A
C473   O509    1.299   .     A
C473   C475    1.454   .     S
C474   O508    1.292   .     A
C474   C476    1.454   .     S
C474   O510    1.299   .     A
C475   C479    1.398   .     A
C475   C481    1.393   .     A
C476   C480    1.398   .     A
C476   C482    1.393   .     A
C477   C517    1.446   .     S
C477   C485    1.416   .     A
C477   C479    1.394   .     A
C478   C519    1.446   .     S
C478   C480    1.394   .     A
C478   C486    1.416   .     A
C479   H492    1.085   .     S
C480   H491    1.085   .     S
C481   C483    1.406   .     A
C481   C515    1.453   .     S
C482   C484    1.406   .     A
C482   C513    1.453   .     S
C483   C485    1.423   .     A
C483   C487    1.424   .     A
C484   C488    1.424   .     A
C484   C486    1.423   .     A
C485   C1145   1.396   .     S
C486   C1146   1.396   1_554 S
C487   C1172   1.415   .     S
C488   C1171   1.415   1_554 S
N501   Zn511   2.021   .     S
N502   Zn512   2.021   .     S
O503   Zn511   1.995   .     S
O504   Zn512   1.995   .     S
O505   Zn512   2.002   .     S
O506   Zn511   2.002   .     S
O507   Zn511   1.960   .     S
O508   Zn512   1.960   .     S
O509   Zn512   1.905   .     S
O510   Zn511   1.905   .     S
C513   N514    1.158   .     T
C515   N516    1.158   .     T
C517   N1354   1.157   1_455 S
N518   C1277   1.157   1_554 S
C519   N1280   1.157   1_554 S
N520   C1355   1.157   1_455 S
N521   C523    1.449   .     S
N521   H522    1.025   .     S
C523   H524    1.111   .     S
C523   H525    1.110   .     S
C523   H526    1.111   .     S
N527   C529    1.449   .     S
N527   H528    1.025   .     S
C529   H530    1.111   .     S
C529   H531    1.111   .     S
C529   H532    1.110   .     S
C533   C544    1.419   .     S
C533   O579    1.286   .     A
C533   O581    1.289   .     A
C534   O582    1.289   .     A
C534   C543    1.419   .     S
C534   O580    1.286   .     A
C535   C537    1.385   .     A
C535   C564    1.413   .     A
C535   H569    1.077   .     S
C536   C538    1.385   .     A
C536   H570    1.077   .     S
C536   C563    1.413   .     A
C537   H565    1.083   .     S
C537   C1245   1.396   1_554 S
C538   H566    1.083   .     S
C538   C1246   1.396   .     S
C539   C544    1.396   .     A
C539   H571    1.083   .     S
C539   C85     1.370   1_565 S
C540   C543    1.396   .     A
C540   H572    1.083   .     S
C541   C543    1.398   .     A
C541   H573    1.084   .     S
C542   H574    1.084   .     S
C542   C544    1.398   .     A
C542   C84     1.370   1_565 S
C545   N578    1.356   .     A
C545   H575    1.080   .     S
C545   C623    1.428   .     S
C546   N577    1.356   .     A
C546   H576    1.080   .     S
C547   N597    1.430   .     S
C547   N577    1.386   .     A
C548   N603    1.430   .     S
C548   N578    1.386   .     A
C548   C622    1.428   .     S
C549   O583    1.292   .     A
C549   O585    1.299   .     A
C549   C551    1.454   .     S
C550   O584    1.292   .     A
C550   C552    1.454   .     S
C550   O586    1.299   .     A
C551   C555    1.398   .     A
C551   C557    1.393   .     A
C552   C556    1.398   .     A
C552   C558    1.393   .     A
C553   C593    1.446   .     S
C553   C561    1.416   .     A
C553   C555    1.394   .     A
C554   C595    1.446   .     S
C554   C556    1.394   .     A
C554   C562    1.416   .     A
C555   H568    1.085   .     S
C556   H567    1.085   .     S
C557   C559    1.406   .     A
C557   C591    1.453   .     S
C558   C560    1.406   .     A
C558   C589    1.453   .     S
C559   C561    1.423   .     A
C559   C563    1.424   .     A
C560   C564    1.424   .     A
C560   C562    1.423   .     A
C561   C1221   1.396   .     S
C562   C1222   1.396   1_554 S
C563   C1248   1.415   .     S
C564   C1247   1.415   1_554 S
N577   Zn587   2.021   .     S
N578   Zn588   2.021   .     S
O579   Zn587   1.995   .     S
O580   Zn588   1.995   .     S
O581   Zn588   2.002   .     S
O582   Zn587   2.002   .     S
O583   Zn587   1.960   .     S
O584   Zn588   1.960   .     S
O585   Zn588   1.905   .     S
O586   Zn587   1.905   .     S
C589   N590    1.158   .     T
C591   N592    1.158   .     T
C593   N1202   1.157   .     S
N594   C1353   1.157   1_554 S
C595   N1356   1.157   1_554 S
N596   C1203   1.157   .     S
N597   C599    1.449   .     S
N597   H598    1.025   .     S
C599   H600    1.111   .     S
C599   H601    1.110   .     S
C599   H602    1.111   .     S
N603   C605    1.449   .     S
N603   H604    1.025   .     S
C605   H606    1.111   .     S
C605   H607    1.111   .     S
C605   H608    1.110   .     S
C609   C620    1.419   .     S
C609   O655    1.286   .     A
C609   O657    1.289   .     A
C610   O658    1.289   .     A
C610   C619    1.419   .     S
C610   O656    1.286   .     A
C611   C613    1.385   .     A
C611   C640    1.413   .     A
C611   H645    1.077   .     S
C612   C614    1.385   .     A
C612   H646    1.077   .     S
C612   C639    1.413   .     A
C613   H641    1.083   .     S
C613   C1321   1.396   1_554 S
C614   H642    1.083   .     S
C614   C1322   1.396   .     S
C615   C620    1.396   .     A
C615   H647    1.083   .     S
C615   C161    1.370   1_565 S
C616   C619    1.396   .     A
C616   H648    1.083   .     S
C617   C619    1.398   .     A
C617   H649    1.084   .     S
C618   H650    1.084   .     S
C618   C620    1.398   .     A
C618   C160    1.370   1_565 S
C621   N654    1.356   .     A
C621   H651    1.080   .     S
C621   C471    1.428   1_655 S
C622   N653    1.356   .     A
C622   H652    1.080   .     S
C623   N673    1.430   .     S
C623   N653    1.386   .     A
C624   N679    1.430   .     S
C624   N654    1.386   .     A
C624   C470    1.428   1_655 S
C625   O659    1.292   .     A
C625   O661    1.299   .     A
C625   C627    1.454   .     S
C626   O660    1.292   .     A
C626   C628    1.454   .     S
C626   O662    1.299   .     A
C627   C631    1.398   .     A
C627   C633    1.393   .     A
C628   C632    1.398   .     A
C628   C634    1.393   .     A
C629   C669    1.446   .     S
C629   C637    1.416   .     A
C629   C631    1.394   .     A
C630   C671    1.446   .     S
C630   C632    1.394   .     A
C630   C638    1.416   .     A
C631   H644    1.085   .     S
C632   H643    1.085   .     S
C633   C635    1.406   .     A
C633   C667    1.453   .     S
C634   C636    1.406   .     A
C634   C665    1.453   .     S
C635   C637    1.423   .     A
C635   C639    1.424   .     A
C636   C640    1.424   .     A
C636   C638    1.423   .     A
C637   C1297   1.396   .     S
C638   C1298   1.396   1_554 S
C639   C1324   1.415   .     S
C640   C1323   1.415   1_554 S
N653   Zn663   2.021   .     S
N654   Zn664   2.021   .     S
O655   Zn663   1.995   .     S
O656   Zn664   1.995   .     S
O657   Zn664   2.002   .     S
O658   Zn663   2.002   .     S
O659   Zn663   1.960   .     S
O660   Zn664   1.960   .     S
O661   Zn664   1.905   .     S
O662   Zn663   1.905   .     S
C665   N666    1.158   .     T
C667   N668    1.158   .     T
C669   N1278   1.157   .     S
N670   C1201   1.157   1_654 S
C671   N1204   1.157   1_654 S
N672   C1279   1.157   .     S
N673   C675    1.449   .     S
N673   H674    1.025   .     S
C675   H676    1.111   .     S
C675   H677    1.110   .     S
C675   H678    1.111   .     S
N679   C681    1.449   .     S
N679   H680    1.025   .     S
C681   H682    1.111   .     S
C681   H683    1.111   .     S
C681   H684    1.110   .     S
C685   C696    1.419   .     S
C685   O731    1.286   .     A
C685   O733    1.289   .     A
C686   O734    1.289   .     A
C686   C695    1.419   .     S
C686   O732    1.286   .     A
C687   C689    1.385   .     A
C687   C716    1.413   .     A
C687   H721    1.077   .     S
C688   C690    1.385   .     A
C688   H722    1.077   .     S
C688   C715    1.413   .     A
C689   H717    1.083   .     S
C690   H718    1.083   .     S
C690   C30     1.396   1_556 S
C691   C696    1.396   .     A
C691   H723    1.083   .     S
C691   C921    1.370   .     S
C692   C695    1.396   .     A
C692   H724    1.083   .     S
C692   C1150   1.370   1_545 S
C693   C695    1.398   .     A
C693   H725    1.084   .     S
C693   C1147   1.370   1_545 S
C694   H726    1.084   .     S
C694   C696    1.398   .     A
C694   C920    1.370   .     S
C697   N730    1.356   .     A
C697   H727    1.080   .     S
C697   C775    1.428   .     S
C698   N729    1.356   .     A
C698   H728    1.080   .     S
C698   C852    1.428   1_455 S
C699   N749    1.430   .     S
C699   N729    1.386   .     A
C699   C849    1.428   1_455 S
C700   N755    1.430   .     S
C700   N730    1.386   .     A
C700   C774    1.428   .     S
C701   O735    1.292   .     A
C701   O737    1.299   .     A
C701   C703    1.454   .     S
C702   O736    1.292   .     A
C702   C704    1.454   .     S
C702   O738    1.299   .     A
C703   C707    1.398   .     A
C703   C709    1.393   .     A
C704   C708    1.398   .     A
C704   C710    1.393   .     A
C705   C745    1.446   .     S
C705   C713    1.416   .     A
C705   C707    1.394   .     A
C706   C747    1.446   .     S
C706   C708    1.394   .     A
C706   C714    1.416   .     A
C707   H720    1.085   .     S
C708   H719    1.085   .     S
C709   C711    1.406   .     A
C709   C743    1.453   .     S
C710   C712    1.406   .     A
C710   C741    1.453   .     S
C711   C713    1.423   .     A
C711   C715    1.424   .     A
C712   C716    1.424   .     A
C712   C714    1.423   .     A
C713   C5      1.396   1_556 S
C715   C32     1.415   1_556 S
N729   Zn739   2.021   .     S
N730   Zn740   2.021   .     S
O731   Zn739   1.995   .     S
O732   Zn740   1.995   .     S
O733   Zn740   2.002   .     S
O734   Zn739   2.002   .     S
O735   Zn739   1.960   .     S
O736   Zn740   1.960   .     S
O737   Zn740   1.905   .     S
O738   Zn739   1.905   .     S
C741   N742    1.158   .     T
C743   N744    1.158   .     T
C745   N214    1.157   1_456 S
N748   C215    1.157   1_456 S
N749   C751    1.449   .     S
N749   H750    1.025   .     S
C751   H752    1.111   .     S
C751   H753    1.110   .     S
C751   H754    1.111   .     S
N755   C757    1.449   .     S
N755   H756    1.025   .     S
C757   H758    1.111   .     S
C757   H759    1.111   .     S
C757   H760    1.110   .     S
C761   C772    1.419   .     S
C761   O807    1.286   .     A
C761   O809    1.289   .     A
C762   O810    1.289   .     A
C762   C771    1.419   .     S
C762   O808    1.286   .     A
C763   C765    1.385   .     A
C763   C792    1.413   .     A
C763   H797    1.077   .     S
C764   C766    1.385   .     A
C764   H798    1.077   .     S
C764   C791    1.413   .     A
C765   H793    1.083   .     S
C766   H794    1.083   .     S
C766   C106    1.396   1_556 S
C767   C772    1.396   .     A
C767   H799    1.083   .     S
C767   C997    1.370   .     S
C768   C771    1.396   .     A
C768   H800    1.083   .     S
C768   C1226   1.370   1_545 S
C769   C771    1.398   .     A
C769   H801    1.084   .     S
C769   C1223   1.370   1_545 S
C770   H802    1.084   .     S
C770   C772    1.398   .     A
C770   C996    1.370   .     S
C773   N806    1.356   .     A
C773   H803    1.080   .     S
C773   C851    1.428   .     S
C774   N805    1.356   .     A
C774   H804    1.080   .     S
C775   N825    1.430   .     S
C775   N805    1.386   .     A
C776   N831    1.430   .     S
C776   N806    1.386   .     A
C776   C850    1.428   .     S
C777   O811    1.292   .     A
C777   O813    1.299   .     A
C777   C779    1.454   .     S
C778   O812    1.292   .     A
C778   C780    1.454   .     S
C778   O814    1.299   .     A
C779   C783    1.398   .     A
C779   C785    1.393   .     A
C780   C784    1.398   .     A
C780   C786    1.393   .     A
C781   C821    1.446   .     S
C781   C789    1.416   .     A
C781   C783    1.394   .     A
C782   C823    1.446   .     S
C782   C784    1.394   .     A
C782   C790    1.416   .     A
C783   H796    1.085   .     S
C784   H795    1.085   .     S
C785   C787    1.406   .     A
C785   C819    1.453   .     S
C786   C788    1.406   .     A
C786   C817    1.453   .     S
C787   C789    1.423   .     A
C787   C791    1.424   .     A
C788   C792    1.424   .     A
C788   C790    1.423   .     A
C789   C81     1.396   1_556 S
C791   C108    1.415   1_556 S
N805   Zn815   2.021   .     S
N806   Zn816   2.021   .     S
O807   Zn815   1.995   .     S
O808   Zn816   1.995   .     S
O809   Zn816   2.002   .     S
O810   Zn815   2.002   .     S
O811   Zn815   1.960   .     S
O812   Zn816   1.960   .     S
O813   Zn816   1.905   .     S
O814   Zn815   1.905   .     S
C817   N818    1.158   .     T
C819   N820    1.158   .     T
C821   N62     1.157   1_556 S
N824   C63     1.157   1_556 S
N825   C827    1.449   .     S
N825   H826    1.025   .     S
C827   H828    1.111   .     S
C827   H829    1.110   .     S
C827   H830    1.111   .     S
N831   C833    1.449   .     S
N831   H832    1.025   .     S
C833   H834    1.111   .     S
C833   H835    1.111   .     S
C833   H836    1.110   .     S
C837   C848    1.419   .     S
C837   O883    1.286   .     A
C837   O885    1.289   .     A
C838   O886    1.289   .     A
C838   C847    1.419   .     S
C838   O884    1.286   .     A
C839   C841    1.385   .     A
C839   C868    1.413   .     A
C839   H873    1.077   .     S
C840   C842    1.385   .     A
C840   H874    1.077   .     S
C840   C867    1.413   .     A
C841   H869    1.083   .     S
C842   H870    1.083   .     S
C842   C182    1.396   1_556 S
C843   C848    1.396   .     A
C843   H875    1.083   .     S
C843   C1073   1.370   .     S
C844   C847    1.396   .     A
C844   H876    1.083   .     S
C844   C1302   1.370   1_545 S
C845   C847    1.398   .     A
C845   H877    1.084   .     S
C845   C1299   1.370   1_545 S
C846   H878    1.084   .     S
C846   C848    1.398   .     A
C846   C1072   1.370   .     S
C849   N882    1.356   .     A
C849   H879    1.080   .     S
C849   C699    1.428   1_655 S
C850   N881    1.356   .     A
C850   H880    1.080   .     S
C851   N901    1.430   .     S
C851   N881    1.386   .     A
C852   N907    1.430   .     S
C852   N882    1.386   .     A
C852   C698    1.428   1_655 S
C853   O887    1.292   .     A
C853   O889    1.299   .     A
C853   C855    1.454   .     S
C854   O888    1.292   .     A
C854   C856    1.454   .     S
C854   O890    1.299   .     A
C855   C859    1.398   .     A
C855   C861    1.393   .     A
C856   C860    1.398   .     A
C856   C862    1.393   .     A
C857   C897    1.446   .     S
C857   C865    1.416   .     A
C857   C859    1.394   .     A
C858   C899    1.446   .     S
C858   C860    1.394   .     A
C858   C866    1.416   .     A
C859   H872    1.085   .     S
C860   H871    1.085   .     S
C861   C863    1.406   .     A
C861   C895    1.453   .     S
C862   C864    1.406   .     A
C862   C893    1.453   .     S
C863   C865    1.423   .     A
C863   C867    1.424   .     A
C864   C868    1.424   .     A
C864   C866    1.423   .     A
C865   C157    1.396   1_556 S
C867   C184    1.415   1_556 S
N881   Zn891   2.021   .     S
N882   Zn892   2.021   .     S
O883   Zn891   1.995   .     S
O884   Zn892   1.995   .     S
O885   Zn892   2.002   .     S
O886   Zn891   2.002   .     S
O887   Zn891   1.960   .     S
O888   Zn892   1.960   .     S
O889   Zn892   1.905   .     S
O890   Zn891   1.905   .     S
C893   N894    1.158   .     T
C895   N896    1.158   .     T
C897   N138    1.157   1_556 S
N898   C61     1.157   1_655 S
C899   N64     1.157   1_655 S
N900   C139    1.157   1_556 S
N901   C903    1.449   .     S
N901   H902    1.025   .     S
C903   H904    1.111   .     S
C903   H905    1.110   .     S
C903   H906    1.111   .     S
N907   C909    1.449   .     S
N907   H908    1.025   .     S
C909   H910    1.111   .     S
C909   H911    1.111   .     S
C909   H912    1.110   .     S
C913   C924    1.419   .     S
C913   O959    1.286   .     A
C913   O961    1.289   .     A
C914   O962    1.289   .     A
C914   C923    1.419   .     S
C914   O960    1.286   .     A
C915   C917    1.385   .     A
C915   C944    1.413   .     A
C915   H949    1.077   .     S
C916   C918    1.385   .     A
C916   H950    1.077   .     S
C916   C943    1.413   .     A
C917   H945    1.083   .     S
C918   H946    1.083   .     S
C918   C258    1.396   1_556 S
C919   C924    1.396   .     A
C919   H951    1.083   .     S
C919   C1149   1.370   .     S
C920   C923    1.396   .     A
C920   H952    1.083   .     S
C921   C923    1.398   .     A
C921   H953    1.084   .     S
C922   H954    1.084   .     S
C922   C924    1.398   .     A
C922   C1148   1.370   .     S
C925   N958    1.356   .     A
C925   H955    1.080   .     S
C925   C1003   1.428   .     S
C926   N957    1.356   .     A
C926   H956    1.080   .     S
C926   C1080   1.428   1_455 S
C927   N977    1.430   .     S
C927   N957    1.386   .     A
C927   C1077   1.428   1_455 S
C928   N983    1.430   .     S
C928   N958    1.386   .     A
C928   C1002   1.428   .     S
C929   O963    1.292   .     A
C929   O965    1.299   .     A
C929   C931    1.454   .     S
C930   O964    1.292   .     A
C930   C932    1.454   .     S
C930   O966    1.299   .     A
C931   C935    1.398   .     A
C931   C937    1.393   .     A
C932   C936    1.398   .     A
C932   C938    1.393   .     A
C933   C973    1.446   .     S
C933   C941    1.416   .     A
C933   C935    1.394   .     A
C934   C975    1.446   .     S
C934   C936    1.394   .     A
C934   C942    1.416   .     A
C935   H948    1.085   .     S
C936   H947    1.085   .     S
C937   C939    1.406   .     A
C937   C971    1.453   .     S
C938   C940    1.406   .     A
C938   C969    1.453   .     S
C939   C941    1.423   .     A
C939   C943    1.424   .     A
C940   C944    1.424   .     A
C940   C942    1.423   .     A
C941   C233    1.396   1_556 S
C943   C260    1.415   1_556 S
N957   Zn967   2.021   .     S
N958   Zn968   2.021   .     S
O959   Zn967   1.995   .     S
O960   Zn968   1.995   .     S
O961   Zn968   2.002   .     S
O962   Zn967   2.002   .     S
O963   Zn967   1.960   .     S
O964   Zn968   1.960   .     S
O965   Zn968   1.905   .     S
O966   Zn967   1.905   .     S
C969   N970    1.158   .     T
C971   N972    1.158   .     T
C973   N442    1.157   1_456 S
N976   C443    1.157   1_456 S
N977   C979    1.449   .     S
N977   H978    1.025   .     S
C979   H980    1.111   .     S
C979   H981    1.110   .     S
C979   H982    1.111   .     S
N983   C985    1.449   .     S
N983   H984    1.025   .     S
C985   H986    1.111   .     S
C985   H987    1.111   .     S
C985   H988    1.110   .     S
C989   C1000   1.419   .     S
C989   O1035   1.286   .     A
C989   O1037   1.289   .     A
C990   O1038   1.289   .     A
C990   C999    1.419   .     S
C990   O1036   1.286   .     A
C991   C993    1.385   .     A
C991   C1020   1.413   .     A
C991   H1025   1.077   .     S
C992   C994    1.385   .     A
C992   H1026   1.077   .     S
C992   C1019   1.413   .     A
C993   H1021   1.083   .     S
C994   H1022   1.083   .     S
C994   C334    1.396   1_556 S
C995   C1000   1.396   .     A
C995   H1027   1.083   .     S
C995   C1225   1.370   .     S
C996   C999    1.396   .     A
C996   H1028   1.083   .     S
C997   C999    1.398   .     A
C997   H1029   1.084   .     S
C998   H1030   1.084   .     S
C998   C1000   1.398   .     A
C998   C1224   1.370   .     S
C1001  N1034   1.356   .     A
C1001  H1031   1.080   .     S
C1001  C1079   1.428   .     S
C1002  N1033   1.356   .     A
C1002  H1032   1.080   .     S
C1003  N1053   1.430   .     S
C1003  N1033   1.386   .     A
C1004  N1059   1.430   .     S
C1004  N1034   1.386   .     A
C1004  C1078   1.428   .     S
C1005  O1039   1.292   .     A
C1005  O1041   1.299   .     A
C1005  C1007   1.454   .     S
C1006  O1040   1.292   .     A
C1006  C1008   1.454   .     S
C1006  O1042   1.299   .     A
C1007  C1011   1.398   .     A
C1007  C1013   1.393   .     A
C1008  C1012   1.398   .     A
C1008  C1014   1.393   .     A
C1009  C1049   1.446   .     S
C1009  C1017   1.416   .     A
C1009  C1011   1.394   .     A
C1010  C1051   1.446   .     S
C1010  C1012   1.394   .     A
C1010  C1018   1.416   .     A
C1011  H1024   1.085   .     S
C1012  H1023   1.085   .     S
C1013  C1015   1.406   .     A
C1013  C1047   1.453   .     S
C1014  C1016   1.406   .     A
C1014  C1045   1.453   .     S
C1015  C1017   1.423   .     A
C1015  C1019   1.424   .     A
C1016  C1020   1.424   .     A
C1016  C1018   1.423   .     A
C1017  C309    1.396   1_556 S
C1019  C336    1.415   1_556 S
N1033  Zn1043  2.021   .     S
N1034  Zn1044  2.021   .     S
O1035  Zn1043  1.995   .     S
O1036  Zn1044  1.995   .     S
O1037  Zn1044  2.002   .     S
O1038  Zn1043  2.002   .     S
O1039  Zn1043  1.960   .     S
O1040  Zn1044  1.960   .     S
O1041  Zn1044  1.905   .     S
O1042  Zn1043  1.905   .     S
C1045  N1046   1.158   .     T
C1047  N1048   1.158   .     T
C1049  N290    1.157   1_556 S
N1052  C291    1.157   1_556 S
N1053  C1055   1.449   .     S
N1053  H1054   1.025   .     S
C1055  H1056   1.111   .     S
C1055  H1057   1.110   .     S
C1055  H1058   1.111   .     S
N1059  C1061   1.449   .     S
N1059  H1060   1.025   .     S
C1061  H1062   1.111   .     S
C1061  H1063   1.111   .     S
C1061  H1064   1.110   .     S
C1065  C1076   1.419   .     S
C1065  O1111   1.286   .     A
C1065  O1113   1.289   .     A
C1066  O1114   1.289   .     A
C1066  C1075   1.419   .     S
C1066  O1112   1.286   .     A
C1067  C1069   1.385   .     A
C1067  C1096   1.413   .     A
C1067  H1101   1.077   .     S
C1068  C1070   1.385   .     A
C1068  H1102   1.077   .     S
C1068  C1095   1.413   .     A
C1069  H1097   1.083   .     S
C1070  H1098   1.083   .     S
C1070  C410    1.396   1_556 S
C1071  C1076   1.396   .     A
C1071  H1103   1.083   .     S
C1071  C1301   1.370   .     S
C1072  C1075   1.396   .     A
C1072  H1104   1.083   .     S
C1073  C1075   1.398   .     A
C1073  H1105   1.084   .     S
C1074  H1106   1.084   .     S
C1074  C1076   1.398   .     A
C1074  C1300   1.370   .     S
C1077  N1110   1.356   .     A
C1077  H1107   1.080   .     S
C1077  C927    1.428   1_655 S
C1078  N1109   1.356   .     A
C1078  H1108   1.080   .     S
C1079  N1129   1.430   .     S
C1079  N1109   1.386   .     A
C1080  N1135   1.430   .     S
C1080  N1110   1.386   .     A
C1080  C926    1.428   1_655 S
C1081  O1115   1.292   .     A
C1081  O1117   1.299   .     A
C1081  C1083   1.454   .     S
C1082  O1116   1.292   .     A
C1082  C1084   1.454   .     S
C1082  O1118   1.299   .     A
C1083  C1087   1.398   .     A
C1083  C1089   1.393   .     A
C1084  C1088   1.398   .     A
C1084  C1090   1.393   .     A
C1085  C1125   1.446   .     S
C1085  C1093   1.416   .     A
C1085  C1087   1.394   .     A
C1086  C1127   1.446   .     S
C1086  C1088   1.394   .     A
C1086  C1094   1.416   .     A
C1087  H1100   1.085   .     S
C1088  H1099   1.085   .     S
C1089  C1091   1.406   .     A
C1089  C1123   1.453   .     S
C1090  C1092   1.406   .     A
C1090  C1121   1.453   .     S
C1091  C1093   1.423   .     A
C1091  C1095   1.424   .     A
C1092  C1096   1.424   .     A
C1092  C1094   1.423   .     A
C1093  C385    1.396   1_556 S
C1095  C412    1.415   1_556 S
N1109  Zn1119  2.021   .     S
N1110  Zn1120  2.021   .     S
O1111  Zn1119  1.995   .     S
O1112  Zn1120  1.995   .     S
O1113  Zn1120  2.002   .     S
O1114  Zn1119  2.002   .     S
O1115  Zn1119  1.960   .     S
O1116  Zn1120  1.960   .     S
O1117  Zn1120  1.905   .     S
O1118  Zn1119  1.905   .     S
C1121  N1122   1.158   .     T
C1123  N1124   1.158   .     T
C1125  N366    1.157   1_556 S
N1126  C289    1.157   1_655 S
C1127  N292    1.157   1_655 S
N1128  C367    1.157   1_556 S
N1129  C1131   1.449   .     S
N1129  H1130   1.025   .     S
C1131  H1132   1.111   .     S
C1131  H1133   1.110   .     S
C1131  H1134   1.111   .     S
N1135  C1137   1.449   .     S
N1135  H1136   1.025   .     S
C1137  H1138   1.111   .     S
C1137  H1139   1.111   .     S
C1137  H1140   1.110   .     S
C1141  C1152   1.419   .     S
C1141  O1187   1.286   .     A
C1141  O1189   1.289   .     A
C1142  O1190   1.289   .     A
C1142  C1151   1.419   .     S
C1142  O1188   1.286   .     A
C1143  C1145   1.385   .     A
C1143  C1172   1.413   .     A
C1143  H1177   1.077   .     S
C1144  C1146   1.385   .     A
C1144  H1178   1.077   .     S
C1144  C1171   1.413   .     A
C1145  H1173   1.083   .     S
C1146  H1174   1.083   .     S
C1146  C486    1.396   1_556 S
C1147  C1152   1.396   .     A
C1147  H1179   1.083   .     S
C1147  C693    1.370   1_565 S
C1148  C1151   1.396   .     A
C1148  H1180   1.083   .     S
C1149  C1151   1.398   .     A
C1149  H1181   1.084   .     S
C1150  H1182   1.084   .     S
C1150  C1152   1.398   .     A
C1150  C692    1.370   1_565 S
C1153  N1186   1.356   .     A
C1153  H1183   1.080   .     S
C1153  C1231   1.428   .     S
C1154  N1185   1.356   .     A
C1154  H1184   1.080   .     S
C1154  C1308   1.428   1_455 S
C1155  N1205   1.430   .     S
C1155  N1185   1.386   .     A
C1155  C1305   1.428   1_455 S
C1156  N1211   1.430   .     S
C1156  N1186   1.386   .     A
C1156  C1230   1.428   .     S
C1157  O1191   1.292   .     A
C1157  O1193   1.299   .     A
C1157  C1159   1.454   .     S
C1158  O1192   1.292   .     A
C1158  C1160   1.454   .     S
C1158  O1194   1.299   .     A
C1159  C1163   1.398   .     A
C1159  C1165   1.393   .     A
C1160  C1164   1.398   .     A
C1160  C1166   1.393   .     A
C1161  C1201   1.446   .     S
C1161  C1169   1.416   .     A
C1161  C1163   1.394   .     A
C1162  C1203   1.446   .     S
C1162  C1164   1.394   .     A
C1162  C1170   1.416   .     A
C1163  H1176   1.085   .     S
C1164  H1175   1.085   .     S
C1165  C1167   1.406   .     A
C1165  C1199   1.453   .     S
C1166  C1168   1.406   .     A
C1166  C1197   1.453   .     S
C1167  C1169   1.423   .     A
C1167  C1171   1.424   .     A
C1168  C1172   1.424   .     A
C1168  C1170   1.423   .     A
C1169  C461    1.396   1_556 S
C1171  C488    1.415   1_556 S
N1185  Zn1195  2.021   .     S
N1186  Zn1196  2.021   .     S
O1187  Zn1195  1.995   .     S
O1188  Zn1196  1.995   .     S
O1189  Zn1196  2.002   .     S
O1190  Zn1195  2.002   .     S
O1191  Zn1195  1.960   .     S
O1192  Zn1196  1.960   .     S
O1193  Zn1196  1.905   .     S
O1194  Zn1195  1.905   .     S
C1197  N1198   1.158   .     T
C1199  N1200   1.158   .     T
C1201  N670    1.157   1_456 S
N1204  C671    1.157   1_456 S
N1205  C1207   1.449   .     S
N1205  H1206   1.025   .     S
C1207  H1208   1.111   .     S
C1207  H1209   1.110   .     S
C1207  H1210   1.111   .     S
N1211  C1213   1.449   .     S
N1211  H1212   1.025   .     S
C1213  H1214   1.111   .     S
C1213  H1215   1.111   .     S
C1213  H1216   1.110   .     S
C1217  C1228   1.419   .     S
C1217  O1263   1.286   .     A
C1217  O1265   1.289   .     A
C1218  O1266   1.289   .     A
C1218  C1227   1.419   .     S
C1218  O1264   1.286   .     A
C1219  C1221   1.385   .     A
C1219  C1248   1.413   .     A
C1219  H1253   1.077   .     S
C1220  C1222   1.385   .     A
C1220  H1254   1.077   .     S
C1220  C1247   1.413   .     A
C1221  H1249   1.083   .     S
C1222  H1250   1.083   .     S
C1222  C562    1.396   1_556 S
C1223  C1228   1.396   .     A
C1223  H1255   1.083   .     S
C1223  C769    1.370   1_565 S
C1224  C1227   1.396   .     A
C1224  H1256   1.083   .     S
C1225  C1227   1.398   .     A
C1225  H1257   1.084   .     S
C1226  H1258   1.084   .     S
C1226  C1228   1.398   .     A
C1226  C768    1.370   1_565 S
C1229  N1262   1.356   .     A
C1229  H1259   1.080   .     S
C1229  C1307   1.428   .     S
C1230  N1261   1.356   .     A
C1230  H1260   1.080   .     S
C1231  N1281   1.430   .     S
C1231  N1261   1.386   .     A
C1232  N1287   1.430   .     S
C1232  N1262   1.386   .     A
C1232  C1306   1.428   .     S
C1233  O1267   1.292   .     A
C1233  O1269   1.299   .     A
C1233  C1235   1.454   .     S
C1234  O1268   1.292   .     A
C1234  C1236   1.454   .     S
C1234  O1270   1.299   .     A
C1235  C1239   1.398   .     A
C1235  C1241   1.393   .     A
C1236  C1240   1.398   .     A
C1236  C1242   1.393   .     A
C1237  C1277   1.446   .     S
C1237  C1245   1.416   .     A
C1237  C1239   1.394   .     A
C1238  C1279   1.446   .     S
C1238  C1240   1.394   .     A
C1238  C1246   1.416   .     A
C1239  H1252   1.085   .     S
C1240  H1251   1.085   .     S
C1241  C1243   1.406   .     A
C1241  C1275   1.453   .     S
C1242  C1244   1.406   .     A
C1242  C1273   1.453   .     S
C1243  C1245   1.423   .     A
C1243  C1247   1.424   .     A
C1244  C1248   1.424   .     A
C1244  C1246   1.423   .     A
C1245  C537    1.396   1_556 S
C1247  C564    1.415   1_556 S
N1261  Zn1271  2.021   .     S
N1262  Zn1272  2.021   .     S
O1263  Zn1271  1.995   .     S
O1264  Zn1272  1.995   .     S
O1265  Zn1272  2.002   .     S
O1266  Zn1271  2.002   .     S
O1267  Zn1271  1.960   .     S
O1268  Zn1272  1.960   .     S
O1269  Zn1272  1.905   .     S
O1270  Zn1271  1.905   .     S
C1273  N1274   1.158   .     T
C1275  N1276   1.158   .     T
C1277  N518    1.157   1_556 S
N1280  C519    1.157   1_556 S
N1281  C1283   1.449   .     S
N1281  H1282   1.025   .     S
C1283  H1284   1.111   .     S
C1283  H1285   1.110   .     S
C1283  H1286   1.111   .     S
N1287  C1289   1.449   .     S
N1287  H1288   1.025   .     S
C1289  H1290   1.111   .     S
C1289  H1291   1.111   .     S
C1289  H1292   1.110   .     S
C1293  C1304   1.419   .     S
C1293  O1339   1.286   .     A
C1293  O1341   1.289   .     A
C1294  O1342   1.289   .     A
C1294  C1303   1.419   .     S
C1294  O1340   1.286   .     A
C1295  C1297   1.385   .     A
C1295  C1324   1.413   .     A
C1295  H1329   1.077   .     S
C1296  C1298   1.385   .     A
C1296  H1330   1.077   .     S
C1296  C1323   1.413   .     A
C1297  H1325   1.083   .     S
C1298  H1326   1.083   .     S
C1298  C638    1.396   1_556 S
C1299  C1304   1.396   .     A
C1299  H1331   1.083   .     S
C1299  C845    1.370   1_565 S
C1300  C1303   1.396   .     A
C1300  H1332   1.083   .     S
C1301  C1303   1.398   .     A
C1301  H1333   1.084   .     S
C1302  H1334   1.084   .     S
C1302  C1304   1.398   .     A
C1302  C844    1.370   1_565 S
C1305  N1338   1.356   .     A
C1305  H1335   1.080   .     S
C1305  C1155   1.428   1_655 S
C1306  N1337   1.356   .     A
C1306  H1336   1.080   .     S
C1307  N1357   1.430   .     S
C1307  N1337   1.386   .     A
C1308  N1363   1.430   .     S
C1308  N1338   1.386   .     A
C1308  C1154   1.428   1_655 S
C1309  O1343   1.292   .     A
C1309  O1345   1.299   .     A
C1309  C1311   1.454   .     S
C1310  O1344   1.292   .     A
C1310  C1312   1.454   .     S
C1310  O1346   1.299   .     A
C1311  C1315   1.398   .     A
C1311  C1317   1.393   .     A
C1312  C1316   1.398   .     A
C1312  C1318   1.393   .     A
C1313  C1353   1.446   .     S
C1313  C1321   1.416   .     A
C1313  C1315   1.394   .     A
C1314  C1355   1.446   .     S
C1314  C1316   1.394   .     A
C1314  C1322   1.416   .     A
C1315  H1328   1.085   .     S
C1316  H1327   1.085   .     S
C1317  C1319   1.406   .     A
C1317  C1351   1.453   .     S
C1318  C1320   1.406   .     A
C1318  C1349   1.453   .     S
C1319  C1321   1.423   .     A
C1319  C1323   1.424   .     A
C1320  C1324   1.424   .     A
C1320  C1322   1.423   .     A
C1321  C613    1.396   1_556 S
C1323  C640    1.415   1_556 S
N1337  Zn1347  2.021   .     S
N1338  Zn1348  2.021   .     S
O1339  Zn1347  1.995   .     S
O1340  Zn1348  1.995   .     S
O1341  Zn1348  2.002   .     S
O1342  Zn1347  2.002   .     S
O1343  Zn1347  1.960   .     S
O1344  Zn1348  1.960   .     S
O1345  Zn1348  1.905   .     S
O1346  Zn1347  1.905   .     S
C1349  N1350   1.158   .     T
C1351  N1352   1.158   .     T
C1353  N594    1.157   1_556 S
N1354  C517    1.157   1_655 S
C1355  N520    1.157   1_655 S
N1356  C595    1.157   1_556 S
N1357  C1359   1.449   .     S
N1357  H1358   1.025   .     S
C1359  H1360   1.111   .     S
C1359  H1361   1.110   .     S
C1359  H1362   1.111   .     S
N1363  C1365   1.449   .     S
N1363  H1364   1.025   .     S
C1365  H1366   1.111   .     S
C1365  H1367   1.111   .     S
C1365  H1368   1.110   .     S
