data_str_m3_o1_o10_pcu_sym.58
_audit_creation_date              2020-01-03
_audit_creation_method            'Materials Studio'
_symmetry_space_group_name_H-M    'P1'
_symmetry_Int_Tables_number       1
_symmetry_cell_setting            triclinic
loop_
_symmetry_equiv_pos_as_xyz
  x,y,z
_cell_length_a                    25.9672
_cell_length_b                    32.1593
_cell_length_c                    29.9223
_cell_angle_alpha                 90.1251
_cell_angle_beta                  98.7644
_cell_angle_gamma                 93.1275
loop_
_atom_site_label
_atom_site_type_symbol
_atom_site_fract_x
_atom_site_fract_y
_atom_site_fract_z
_atom_site_U_iso_or_equiv
_atom_site_adp_type
_atom_site_occupancy
C1     C     0.16692   0.08677   0.16666   0.00000  Uiso   1.00
C2     C     0.16459   0.02127   0.20706   0.00000  Uiso   1.00
C3     C     0.16613   0.29078   0.16661   0.00000  Uiso   1.00
C4     C     0.16720   0.04255   0.16672   0.00000  Uiso   1.00
C5     C     0.19980   0.19359   0.02835   0.00000  Uiso   1.00
C6     C     0.13353   0.13975   0.30499   0.00000  Uiso   1.00
C7     C     0.19945   0.19379   0.31389   0.00000  Uiso   1.00
C8     C     0.13388   0.13955   0.01944   0.00000  Uiso   1.00
C9     C     0.32204   0.13072   0.11268   0.00000  Uiso   1.00
C10    C     0.01130   0.20263   0.22065   0.00000  Uiso   1.00
C11    C     0.16641   0.24656   0.16667   0.00000  Uiso   1.00
C12    C     0.06729   0.16646   0.15487   0.00000  Uiso   1.00
C13    C     0.26604   0.16687   0.17847   0.00000  Uiso   1.00
C14    C     0.01247   0.15989   0.14988   0.00000  Uiso   1.00
C15    C     0.32086   0.17344   0.18345   0.00000  Uiso   1.00
C16    C     0.16963   0.02133   0.12638   0.00000  Uiso   1.00
C17    C     0.16370   0.31200   0.20695   0.00000  Uiso   1.00
C18    C     0.16874   0.31206   0.12627   0.00000  Uiso   1.00
H19    H     0.17221   0.03743   0.09499   0.00000  Uiso   1.00
H20    H     0.16112   0.29590   0.23834   0.00000  Uiso   1.00
H21    H     0.17021   0.29602   0.09468   0.00000  Uiso   1.00
H22    H     0.16312   0.03731   0.23865   0.00000  Uiso   1.00
H23    H     0.32824   0.13700   0.07829   0.00000  Uiso   1.00
H24    H     0.00512   0.19634   0.25505   0.00000  Uiso   1.00
I25    I     0.25375   0.23542   0.06993   0.00000  Uiso   1.00
I26    I     0.07958   0.09791   0.26341   0.00000  Uiso   1.00
I27    I     0.25006   0.23791   0.28650   0.00000  Uiso   1.00
I28    I     0.08327   0.09543   0.04683   0.00000  Uiso   1.00
N29    N     0.16665   0.16666   0.28573   0.00000  Uiso   1.00
N30    N     0.16668   0.16668   0.04760   0.00000  Uiso   1.00
O31    O     0.16666   0.10558   0.20487   0.00000  Uiso   1.00
O32    O     0.03675   0.23411   0.21276   0.00000  Uiso   1.00
O33    O     0.16667   0.22775   0.12846   0.00000  Uiso   1.00
O34    O     0.16666   0.10559   0.12843   0.00000  Uiso   1.00
O35    O     0.16667   0.22774   0.20490   0.00000  Uiso   1.00
O36    O     0.09058   0.16666   0.19595   0.00000  Uiso   1.00
O37    O     0.24275   0.16667   0.13739   0.00000  Uiso   1.00
O38    O     0.09058   0.16667   0.11950   0.00000  Uiso   1.00
O39    O     0.24275   0.16666   0.21383   0.00000  Uiso   1.00
O40    O     0.29657   0.09925   0.12056   0.00000  Uiso   1.00
Zn41   Zn    0.16667   0.16666   0.21771   0.00000  Uiso   1.00
Zn42   Zn    0.16667   0.16667   0.11563   0.00000  Uiso   1.00
C43    C     0.50026   0.08677   0.16666   0.00000  Uiso   1.00
C44    C     0.49792   0.02127   0.20706   0.00000  Uiso   1.00
C45    C     0.49946   0.29078   0.16661   0.00000  Uiso   1.00
C46    C     0.50054   0.04255   0.16672   0.00000  Uiso   1.00
C47    C     0.53313   0.19359   0.02835   0.00000  Uiso   1.00
C48    C     0.46687   0.13975   0.30499   0.00000  Uiso   1.00
C49    C     0.53279   0.19379   0.31389   0.00000  Uiso   1.00
C50    C     0.46721   0.13955   0.01944   0.00000  Uiso   1.00
C51    C     0.65538   0.13072   0.11268   0.00000  Uiso   1.00
C52    C     0.34463   0.20263   0.22065   0.00000  Uiso   1.00
C53    C     0.49974   0.24656   0.16667   0.00000  Uiso   1.00
C54    C     0.40063   0.16646   0.15487   0.00000  Uiso   1.00
C55    C     0.59937   0.16687   0.17847   0.00000  Uiso   1.00
C56    C     0.34580   0.15989   0.14988   0.00000  Uiso   1.00
C57    C     0.65419   0.17344   0.18345   0.00000  Uiso   1.00
C58    C     0.50296   0.02133   0.12638   0.00000  Uiso   1.00
C59    C     0.49704   0.31200   0.20695   0.00000  Uiso   1.00
C60    C     0.50208   0.31206   0.12627   0.00000  Uiso   1.00
H61    H     0.50554   0.03743   0.09499   0.00000  Uiso   1.00
H62    H     0.49445   0.29590   0.23834   0.00000  Uiso   1.00
H63    H     0.50354   0.29602   0.09468   0.00000  Uiso   1.00
H64    H     0.49645   0.03731   0.23865   0.00000  Uiso   1.00
H65    H     0.66158   0.13700   0.07829   0.00000  Uiso   1.00
H66    H     0.33846   0.19634   0.25505   0.00000  Uiso   1.00
I67    I     0.58708   0.23542   0.06993   0.00000  Uiso   1.00
I68    I     0.41291   0.09791   0.26341   0.00000  Uiso   1.00
I69    I     0.58339   0.23791   0.28650   0.00000  Uiso   1.00
I70    I     0.41660   0.09543   0.04683   0.00000  Uiso   1.00
N71    N     0.49999   0.16666   0.28573   0.00000  Uiso   1.00
N72    N     0.50001   0.16668   0.04760   0.00000  Uiso   1.00
O73    O     0.50000   0.10558   0.20487   0.00000  Uiso   1.00
O74    O     0.37008   0.23411   0.21276   0.00000  Uiso   1.00
O75    O     0.50000   0.22775   0.12846   0.00000  Uiso   1.00
O76    O     0.50000   0.10559   0.12843   0.00000  Uiso   1.00
O77    O     0.50000   0.22774   0.20490   0.00000  Uiso   1.00
O78    O     0.42392   0.16666   0.19595   0.00000  Uiso   1.00
O79    O     0.57608   0.16667   0.13739   0.00000  Uiso   1.00
O80    O     0.42392   0.16667   0.11950   0.00000  Uiso   1.00
O81    O     0.57608   0.16666   0.21383   0.00000  Uiso   1.00
O82    O     0.62990   0.09925   0.12056   0.00000  Uiso   1.00
Zn83   Zn    0.50000   0.16666   0.21771   0.00000  Uiso   1.00
Zn84   Zn    0.50000   0.16667   0.11563   0.00000  Uiso   1.00
C85    C     0.83359   0.08677   0.16666   0.00000  Uiso   1.00
C86    C     0.83125   0.02127   0.20706   0.00000  Uiso   1.00
C87    C     0.83279   0.29078   0.16661   0.00000  Uiso   1.00
C88    C     0.83387   0.04255   0.16672   0.00000  Uiso   1.00
C89    C     0.86646   0.19359   0.02835   0.00000  Uiso   1.00
C90    C     0.80020   0.13975   0.30499   0.00000  Uiso   1.00
C91    C     0.86612   0.19379   0.31389   0.00000  Uiso   1.00
C92    C     0.80054   0.13955   0.01944   0.00000  Uiso   1.00
C93    C     0.98871   0.13072   0.11268   0.00000  Uiso   1.00
C94    C     0.67796   0.20263   0.22065   0.00000  Uiso   1.00
C95    C     0.83308   0.24656   0.16667   0.00000  Uiso   1.00
C96    C     0.73396   0.16646   0.15487   0.00000  Uiso   1.00
C97    C     0.93270   0.16687   0.17847   0.00000  Uiso   1.00
C98    C     0.67914   0.15989   0.14988   0.00000  Uiso   1.00
C99    C     0.98753   0.17344   0.18345   0.00000  Uiso   1.00
C100   C     0.83629   0.02133   0.12638   0.00000  Uiso   1.00
C101   C     0.83037   0.31200   0.20695   0.00000  Uiso   1.00
C102   C     0.83541   0.31206   0.12627   0.00000  Uiso   1.00
H103   H     0.83888   0.03743   0.09499   0.00000  Uiso   1.00
H104   H     0.82779   0.29590   0.23834   0.00000  Uiso   1.00
H105   H     0.83688   0.29602   0.09468   0.00000  Uiso   1.00
H106   H     0.82979   0.03731   0.23865   0.00000  Uiso   1.00
H107   H     0.99491   0.13700   0.07829   0.00000  Uiso   1.00
H108   H     0.67179   0.19634   0.25505   0.00000  Uiso   1.00
I109   I     0.92041   0.23542   0.06993   0.00000  Uiso   1.00
I110   I     0.74625   0.09791   0.26341   0.00000  Uiso   1.00
I111   I     0.91673   0.23791   0.28650   0.00000  Uiso   1.00
I112   I     0.74994   0.09543   0.04683   0.00000  Uiso   1.00
N113   N     0.83332   0.16666   0.28573   0.00000  Uiso   1.00
N114   N     0.83335   0.16668   0.04760   0.00000  Uiso   1.00
O115   O     0.83333   0.10558   0.20487   0.00000  Uiso   1.00
O116   O     0.70341   0.23411   0.21276   0.00000  Uiso   1.00
O117   O     0.83334   0.22775   0.12846   0.00000  Uiso   1.00
O118   O     0.83333   0.10559   0.12843   0.00000  Uiso   1.00
O119   O     0.83334   0.22774   0.20490   0.00000  Uiso   1.00
O120   O     0.75725   0.16666   0.19595   0.00000  Uiso   1.00
O121   O     0.90942   0.16667   0.13739   0.00000  Uiso   1.00
O122   O     0.75725   0.16667   0.11950   0.00000  Uiso   1.00
O123   O     0.90942   0.16666   0.21383   0.00000  Uiso   1.00
O124   O     0.96324   0.09925   0.12056   0.00000  Uiso   1.00
Zn125  Zn    0.83333   0.16666   0.21771   0.00000  Uiso   1.00
Zn126  Zn    0.83333   0.16667   0.11563   0.00000  Uiso   1.00
C127   C     0.16692   0.42010   0.16666   0.00000  Uiso   1.00
C128   C     0.16459   0.35460   0.20706   0.00000  Uiso   1.00
C129   C     0.16613   0.62412   0.16661   0.00000  Uiso   1.00
C130   C     0.16720   0.37588   0.16672   0.00000  Uiso   1.00
C131   C     0.19980   0.52692   0.02835   0.00000  Uiso   1.00
C132   C     0.13353   0.47308   0.30499   0.00000  Uiso   1.00
C133   C     0.19945   0.52712   0.31389   0.00000  Uiso   1.00
C134   C     0.13388   0.47288   0.01944   0.00000  Uiso   1.00
C135   C     0.32204   0.46405   0.11268   0.00000  Uiso   1.00
C136   C     0.01130   0.53596   0.22065   0.00000  Uiso   1.00
C137   C     0.16641   0.57990   0.16667   0.00000  Uiso   1.00
C138   C     0.06729   0.49979   0.15487   0.00000  Uiso   1.00
C139   C     0.26604   0.50021   0.17847   0.00000  Uiso   1.00
C140   C     0.01247   0.49323   0.14988   0.00000  Uiso   1.00
C141   C     0.32086   0.50677   0.18345   0.00000  Uiso   1.00
C142   C     0.16963   0.35466   0.12638   0.00000  Uiso   1.00
C143   C     0.16370   0.64534   0.20695   0.00000  Uiso   1.00
C144   C     0.16874   0.64540   0.12627   0.00000  Uiso   1.00
H145   H     0.17221   0.37077   0.09499   0.00000  Uiso   1.00
H146   H     0.16112   0.62923   0.23834   0.00000  Uiso   1.00
H147   H     0.17021   0.62936   0.09468   0.00000  Uiso   1.00
H148   H     0.16312   0.37064   0.23865   0.00000  Uiso   1.00
H149   H     0.32824   0.47034   0.07829   0.00000  Uiso   1.00
H150   H     0.00512   0.52967   0.25505   0.00000  Uiso   1.00
I151   I     0.25375   0.56876   0.06993   0.00000  Uiso   1.00
I152   I     0.07958   0.43125   0.26341   0.00000  Uiso   1.00
I153   I     0.25006   0.57124   0.28650   0.00000  Uiso   1.00
I154   I     0.08327   0.42876   0.04683   0.00000  Uiso   1.00
N155   N     0.16665   0.49999   0.28573   0.00000  Uiso   1.00
N156   N     0.16668   0.50001   0.04760   0.00000  Uiso   1.00
O157   O     0.16666   0.43892   0.20487   0.00000  Uiso   1.00
O158   O     0.03675   0.56745   0.21276   0.00000  Uiso   1.00
O159   O     0.16667   0.56108   0.12846   0.00000  Uiso   1.00
O160   O     0.16666   0.43893   0.12843   0.00000  Uiso   1.00
O161   O     0.16667   0.56107   0.20490   0.00000  Uiso   1.00
O162   O     0.09058   0.50000   0.19595   0.00000  Uiso   1.00
O163   O     0.24275   0.50000   0.13739   0.00000  Uiso   1.00
O164   O     0.09058   0.50000   0.11950   0.00000  Uiso   1.00
O165   O     0.24275   0.50000   0.21383   0.00000  Uiso   1.00
O166   O     0.29657   0.43258   0.12056   0.00000  Uiso   1.00
Zn167  Zn    0.16667   0.49999   0.21771   0.00000  Uiso   1.00
Zn168  Zn    0.16667   0.50001   0.11563   0.00000  Uiso   1.00
C169   C     0.50026   0.42010   0.16666   0.00000  Uiso   1.00
C170   C     0.49792   0.35460   0.20706   0.00000  Uiso   1.00
C171   C     0.49946   0.62412   0.16661   0.00000  Uiso   1.00
C172   C     0.50054   0.37588   0.16672   0.00000  Uiso   1.00
C173   C     0.53313   0.52692   0.02835   0.00000  Uiso   1.00
C174   C     0.46687   0.47308   0.30499   0.00000  Uiso   1.00
C175   C     0.53279   0.52712   0.31389   0.00000  Uiso   1.00
C176   C     0.46721   0.47288   0.01944   0.00000  Uiso   1.00
C177   C     0.65538   0.46405   0.11268   0.00000  Uiso   1.00
C178   C     0.34463   0.53596   0.22065   0.00000  Uiso   1.00
C179   C     0.49974   0.57990   0.16667   0.00000  Uiso   1.00
C180   C     0.40063   0.49979   0.15487   0.00000  Uiso   1.00
C181   C     0.59937   0.50021   0.17847   0.00000  Uiso   1.00
C182   C     0.34580   0.49323   0.14988   0.00000  Uiso   1.00
C183   C     0.65419   0.50677   0.18345   0.00000  Uiso   1.00
C184   C     0.50296   0.35466   0.12638   0.00000  Uiso   1.00
C185   C     0.49704   0.64534   0.20695   0.00000  Uiso   1.00
C186   C     0.50208   0.64540   0.12627   0.00000  Uiso   1.00
H187   H     0.50554   0.37077   0.09499   0.00000  Uiso   1.00
H188   H     0.49445   0.62923   0.23834   0.00000  Uiso   1.00
H189   H     0.50354   0.62936   0.09468   0.00000  Uiso   1.00
H190   H     0.49645   0.37064   0.23865   0.00000  Uiso   1.00
H191   H     0.66158   0.47034   0.07829   0.00000  Uiso   1.00
H192   H     0.33846   0.52967   0.25505   0.00000  Uiso   1.00
I193   I     0.58708   0.56876   0.06993   0.00000  Uiso   1.00
I194   I     0.41291   0.43125   0.26341   0.00000  Uiso   1.00
I195   I     0.58339   0.57124   0.28650   0.00000  Uiso   1.00
I196   I     0.41660   0.42876   0.04683   0.00000  Uiso   1.00
N197   N     0.49999   0.49999   0.28573   0.00000  Uiso   1.00
N198   N     0.50001   0.50001   0.04760   0.00000  Uiso   1.00
O199   O     0.50000   0.43892   0.20487   0.00000  Uiso   1.00
O200   O     0.37008   0.56745   0.21276   0.00000  Uiso   1.00
O201   O     0.50000   0.56108   0.12846   0.00000  Uiso   1.00
O202   O     0.50000   0.43893   0.12843   0.00000  Uiso   1.00
O203   O     0.50000   0.56107   0.20490   0.00000  Uiso   1.00
O204   O     0.42392   0.50000   0.19595   0.00000  Uiso   1.00
O205   O     0.57608   0.50000   0.13739   0.00000  Uiso   1.00
O206   O     0.42392   0.50000   0.11950   0.00000  Uiso   1.00
O207   O     0.57608   0.50000   0.21383   0.00000  Uiso   1.00
O208   O     0.62990   0.43258   0.12056   0.00000  Uiso   1.00
Zn209  Zn    0.50000   0.49999   0.21771   0.00000  Uiso   1.00
Zn210  Zn    0.50000   0.50001   0.11563   0.00000  Uiso   1.00
C211   C     0.83359   0.42010   0.16666   0.00000  Uiso   1.00
C212   C     0.83125   0.35460   0.20706   0.00000  Uiso   1.00
C213   C     0.83279   0.62412   0.16661   0.00000  Uiso   1.00
C214   C     0.83387   0.37588   0.16672   0.00000  Uiso   1.00
C215   C     0.86646   0.52692   0.02835   0.00000  Uiso   1.00
C216   C     0.80020   0.47308   0.30499   0.00000  Uiso   1.00
C217   C     0.86612   0.52712   0.31389   0.00000  Uiso   1.00
C218   C     0.80054   0.47288   0.01944   0.00000  Uiso   1.00
C219   C     0.98871   0.46405   0.11268   0.00000  Uiso   1.00
C220   C     0.67796   0.53596   0.22065   0.00000  Uiso   1.00
C221   C     0.83308   0.57990   0.16667   0.00000  Uiso   1.00
C222   C     0.73396   0.49979   0.15487   0.00000  Uiso   1.00
C223   C     0.93270   0.50021   0.17847   0.00000  Uiso   1.00
C224   C     0.67914   0.49323   0.14988   0.00000  Uiso   1.00
C225   C     0.98753   0.50677   0.18345   0.00000  Uiso   1.00
C226   C     0.83629   0.35466   0.12638   0.00000  Uiso   1.00
C227   C     0.83037   0.64534   0.20695   0.00000  Uiso   1.00
C228   C     0.83541   0.64540   0.12627   0.00000  Uiso   1.00
H229   H     0.83888   0.37077   0.09499   0.00000  Uiso   1.00
H230   H     0.82779   0.62923   0.23834   0.00000  Uiso   1.00
H231   H     0.83688   0.62936   0.09468   0.00000  Uiso   1.00
H232   H     0.82979   0.37064   0.23865   0.00000  Uiso   1.00
H233   H     0.99491   0.47034   0.07829   0.00000  Uiso   1.00
H234   H     0.67179   0.52967   0.25505   0.00000  Uiso   1.00
I235   I     0.92041   0.56876   0.06993   0.00000  Uiso   1.00
I236   I     0.74625   0.43125   0.26341   0.00000  Uiso   1.00
I237   I     0.91673   0.57124   0.28650   0.00000  Uiso   1.00
I238   I     0.74994   0.42876   0.04683   0.00000  Uiso   1.00
N239   N     0.83332   0.49999   0.28573   0.00000  Uiso   1.00
N240   N     0.83335   0.50001   0.04760   0.00000  Uiso   1.00
O241   O     0.83333   0.43892   0.20487   0.00000  Uiso   1.00
O242   O     0.70341   0.56745   0.21276   0.00000  Uiso   1.00
O243   O     0.83334   0.56108   0.12846   0.00000  Uiso   1.00
O244   O     0.83333   0.43893   0.12843   0.00000  Uiso   1.00
O245   O     0.83334   0.56107   0.20490   0.00000  Uiso   1.00
O246   O     0.75725   0.50000   0.19595   0.00000  Uiso   1.00
O247   O     0.90942   0.50000   0.13739   0.00000  Uiso   1.00
O248   O     0.75725   0.50000   0.11950   0.00000  Uiso   1.00
O249   O     0.90942   0.50000   0.21383   0.00000  Uiso   1.00
O250   O     0.96324   0.43258   0.12056   0.00000  Uiso   1.00
Zn251  Zn    0.83333   0.49999   0.21771   0.00000  Uiso   1.00
Zn252  Zn    0.83333   0.50001   0.11563   0.00000  Uiso   1.00
C253   C     0.16692   0.75343   0.16666   0.00000  Uiso   1.00
C254   C     0.16459   0.68794   0.20706   0.00000  Uiso   1.00
C255   C     0.16613   0.95745   0.16661   0.00000  Uiso   1.00
C256   C     0.16720   0.70922   0.16672   0.00000  Uiso   1.00
C257   C     0.19980   0.86026   0.02835   0.00000  Uiso   1.00
C258   C     0.13353   0.80641   0.30499   0.00000  Uiso   1.00
C259   C     0.19945   0.86045   0.31389   0.00000  Uiso   1.00
C260   C     0.13388   0.80621   0.01944   0.00000  Uiso   1.00
C261   C     0.32204   0.79738   0.11268   0.00000  Uiso   1.00
C262   C     0.01130   0.86930   0.22065   0.00000  Uiso   1.00
C263   C     0.16641   0.91323   0.16667   0.00000  Uiso   1.00
C264   C     0.06729   0.83313   0.15487   0.00000  Uiso   1.00
C265   C     0.26604   0.83354   0.17847   0.00000  Uiso   1.00
C266   C     0.01247   0.82656   0.14988   0.00000  Uiso   1.00
C267   C     0.32086   0.84011   0.18345   0.00000  Uiso   1.00
C268   C     0.16963   0.68800   0.12638   0.00000  Uiso   1.00
C269   C     0.16370   0.97867   0.20695   0.00000  Uiso   1.00
C270   C     0.16874   0.97873   0.12627   0.00000  Uiso   1.00
H271   H     0.17221   0.70410   0.09499   0.00000  Uiso   1.00
H272   H     0.16112   0.96257   0.23834   0.00000  Uiso   1.00
H273   H     0.17021   0.96269   0.09468   0.00000  Uiso   1.00
H274   H     0.16312   0.70398   0.23865   0.00000  Uiso   1.00
H275   H     0.32824   0.80367   0.07829   0.00000  Uiso   1.00
H276   H     0.00512   0.86301   0.25505   0.00000  Uiso   1.00
I277   I     0.25375   0.90209   0.06993   0.00000  Uiso   1.00
I278   I     0.07958   0.76458   0.26341   0.00000  Uiso   1.00
I279   I     0.25006   0.90458   0.28650   0.00000  Uiso   1.00
I280   I     0.08327   0.76209   0.04683   0.00000  Uiso   1.00
N281   N     0.16665   0.83332   0.28573   0.00000  Uiso   1.00
N282   N     0.16668   0.83334   0.04760   0.00000  Uiso   1.00
O283   O     0.16666   0.77225   0.20487   0.00000  Uiso   1.00
O284   O     0.03675   0.90078   0.21276   0.00000  Uiso   1.00
O285   O     0.16667   0.89442   0.12846   0.00000  Uiso   1.00
O286   O     0.16666   0.77226   0.12843   0.00000  Uiso   1.00
O287   O     0.16667   0.89441   0.20490   0.00000  Uiso   1.00
O288   O     0.09058   0.83333   0.19595   0.00000  Uiso   1.00
O289   O     0.24275   0.83334   0.13739   0.00000  Uiso   1.00
O290   O     0.09058   0.83334   0.11950   0.00000  Uiso   1.00
O291   O     0.24275   0.83333   0.21383   0.00000  Uiso   1.00
O292   O     0.29657   0.76592   0.12056   0.00000  Uiso   1.00
Zn293  Zn    0.16667   0.83333   0.21771   0.00000  Uiso   1.00
Zn294  Zn    0.16667   0.83334   0.11563   0.00000  Uiso   1.00
C295   C     0.50026   0.75343   0.16666   0.00000  Uiso   1.00
C296   C     0.49792   0.68794   0.20706   0.00000  Uiso   1.00
C297   C     0.49946   0.95745   0.16661   0.00000  Uiso   1.00
C298   C     0.50054   0.70922   0.16672   0.00000  Uiso   1.00
C299   C     0.53313   0.86026   0.02835   0.00000  Uiso   1.00
C300   C     0.46687   0.80641   0.30499   0.00000  Uiso   1.00
C301   C     0.53279   0.86045   0.31389   0.00000  Uiso   1.00
C302   C     0.46721   0.80621   0.01944   0.00000  Uiso   1.00
C303   C     0.65538   0.79738   0.11268   0.00000  Uiso   1.00
C304   C     0.34463   0.86930   0.22065   0.00000  Uiso   1.00
C305   C     0.49974   0.91323   0.16667   0.00000  Uiso   1.00
C306   C     0.40063   0.83313   0.15487   0.00000  Uiso   1.00
C307   C     0.59937   0.83354   0.17847   0.00000  Uiso   1.00
C308   C     0.34580   0.82656   0.14988   0.00000  Uiso   1.00
C309   C     0.65419   0.84011   0.18345   0.00000  Uiso   1.00
C310   C     0.50296   0.68800   0.12638   0.00000  Uiso   1.00
C311   C     0.49704   0.97867   0.20695   0.00000  Uiso   1.00
C312   C     0.50208   0.97873   0.12627   0.00000  Uiso   1.00
H313   H     0.50554   0.70410   0.09499   0.00000  Uiso   1.00
H314   H     0.49445   0.96257   0.23834   0.00000  Uiso   1.00
H315   H     0.50354   0.96269   0.09468   0.00000  Uiso   1.00
H316   H     0.49645   0.70398   0.23865   0.00000  Uiso   1.00
H317   H     0.66158   0.80367   0.07829   0.00000  Uiso   1.00
H318   H     0.33846   0.86301   0.25505   0.00000  Uiso   1.00
I319   I     0.58708   0.90209   0.06993   0.00000  Uiso   1.00
I320   I     0.41291   0.76458   0.26341   0.00000  Uiso   1.00
I321   I     0.58339   0.90458   0.28650   0.00000  Uiso   1.00
I322   I     0.41660   0.76209   0.04683   0.00000  Uiso   1.00
N323   N     0.49999   0.83332   0.28573   0.00000  Uiso   1.00
N324   N     0.50001   0.83334   0.04760   0.00000  Uiso   1.00
O325   O     0.50000   0.77225   0.20487   0.00000  Uiso   1.00
O326   O     0.37008   0.90078   0.21276   0.00000  Uiso   1.00
O327   O     0.50000   0.89442   0.12846   0.00000  Uiso   1.00
O328   O     0.50000   0.77226   0.12843   0.00000  Uiso   1.00
O329   O     0.50000   0.89441   0.20490   0.00000  Uiso   1.00
O330   O     0.42392   0.83333   0.19595   0.00000  Uiso   1.00
O331   O     0.57608   0.83334   0.13739   0.00000  Uiso   1.00
O332   O     0.42392   0.83334   0.11950   0.00000  Uiso   1.00
O333   O     0.57608   0.83333   0.21383   0.00000  Uiso   1.00
O334   O     0.62990   0.76592   0.12056   0.00000  Uiso   1.00
Zn335  Zn    0.50000   0.83333   0.21771   0.00000  Uiso   1.00
Zn336  Zn    0.50000   0.83334   0.11563   0.00000  Uiso   1.00
C337   C     0.83359   0.75343   0.16666   0.00000  Uiso   1.00
C338   C     0.83125   0.68794   0.20706   0.00000  Uiso   1.00
C339   C     0.83279   0.95745   0.16661   0.00000  Uiso   1.00
C340   C     0.83387   0.70922   0.16672   0.00000  Uiso   1.00
C341   C     0.86646   0.86026   0.02835   0.00000  Uiso   1.00
C342   C     0.80020   0.80641   0.30499   0.00000  Uiso   1.00
C343   C     0.86612   0.86045   0.31389   0.00000  Uiso   1.00
C344   C     0.80054   0.80621   0.01944   0.00000  Uiso   1.00
C345   C     0.98871   0.79738   0.11268   0.00000  Uiso   1.00
C346   C     0.67796   0.86930   0.22065   0.00000  Uiso   1.00
C347   C     0.83308   0.91323   0.16667   0.00000  Uiso   1.00
C348   C     0.73396   0.83313   0.15487   0.00000  Uiso   1.00
C349   C     0.93270   0.83354   0.17847   0.00000  Uiso   1.00
C350   C     0.67914   0.82656   0.14988   0.00000  Uiso   1.00
C351   C     0.98753   0.84011   0.18345   0.00000  Uiso   1.00
C352   C     0.83629   0.68800   0.12638   0.00000  Uiso   1.00
C353   C     0.83037   0.97867   0.20695   0.00000  Uiso   1.00
C354   C     0.83541   0.97873   0.12627   0.00000  Uiso   1.00
H355   H     0.83888   0.70410   0.09499   0.00000  Uiso   1.00
H356   H     0.82779   0.96257   0.23834   0.00000  Uiso   1.00
H357   H     0.83688   0.96269   0.09468   0.00000  Uiso   1.00
H358   H     0.82979   0.70398   0.23865   0.00000  Uiso   1.00
H359   H     0.99491   0.80367   0.07829   0.00000  Uiso   1.00
H360   H     0.67179   0.86301   0.25505   0.00000  Uiso   1.00
I361   I     0.92041   0.90209   0.06993   0.00000  Uiso   1.00
I362   I     0.74625   0.76458   0.26341   0.00000  Uiso   1.00
I363   I     0.91673   0.90458   0.28650   0.00000  Uiso   1.00
I364   I     0.74994   0.76209   0.04683   0.00000  Uiso   1.00
N365   N     0.83332   0.83332   0.28573   0.00000  Uiso   1.00
N366   N     0.83335   0.83334   0.04760   0.00000  Uiso   1.00
O367   O     0.83333   0.77225   0.20487   0.00000  Uiso   1.00
O368   O     0.70341   0.90078   0.21276   0.00000  Uiso   1.00
O369   O     0.83334   0.89442   0.12846   0.00000  Uiso   1.00
O370   O     0.83333   0.77226   0.12843   0.00000  Uiso   1.00
O371   O     0.83334   0.89441   0.20490   0.00000  Uiso   1.00
O372   O     0.75725   0.83333   0.19595   0.00000  Uiso   1.00
O373   O     0.90942   0.83334   0.13739   0.00000  Uiso   1.00
O374   O     0.75725   0.83334   0.11950   0.00000  Uiso   1.00
O375   O     0.90942   0.83333   0.21383   0.00000  Uiso   1.00
O376   O     0.96324   0.76592   0.12056   0.00000  Uiso   1.00
Zn377  Zn    0.83333   0.83333   0.21771   0.00000  Uiso   1.00
Zn378  Zn    0.83333   0.83334   0.11563   0.00000  Uiso   1.00
C379   C     0.16692   0.08677   0.50000   0.00000  Uiso   1.00
C380   C     0.16459   0.02127   0.54040   0.00000  Uiso   1.00
C381   C     0.16613   0.29078   0.49995   0.00000  Uiso   1.00
C382   C     0.16720   0.04255   0.50005   0.00000  Uiso   1.00
C383   C     0.19980   0.19359   0.36168   0.00000  Uiso   1.00
C384   C     0.13353   0.13975   0.63832   0.00000  Uiso   1.00
C385   C     0.19945   0.19379   0.64723   0.00000  Uiso   1.00
C386   C     0.13388   0.13955   0.35277   0.00000  Uiso   1.00
C387   C     0.32204   0.13072   0.44601   0.00000  Uiso   1.00
C388   C     0.01130   0.20263   0.55398   0.00000  Uiso   1.00
C389   C     0.16641   0.24656   0.50000   0.00000  Uiso   1.00
C390   C     0.06729   0.16646   0.48820   0.00000  Uiso   1.00
C391   C     0.26604   0.16687   0.51180   0.00000  Uiso   1.00
C392   C     0.01247   0.15989   0.48321   0.00000  Uiso   1.00
C393   C     0.32086   0.17344   0.51679   0.00000  Uiso   1.00
C394   C     0.16963   0.02133   0.45972   0.00000  Uiso   1.00
C395   C     0.16370   0.31200   0.54028   0.00000  Uiso   1.00
C396   C     0.16874   0.31206   0.45960   0.00000  Uiso   1.00
H397   H     0.17221   0.03743   0.42832   0.00000  Uiso   1.00
H398   H     0.16112   0.29590   0.57168   0.00000  Uiso   1.00
H399   H     0.17021   0.29602   0.42802   0.00000  Uiso   1.00
H400   H     0.16312   0.03731   0.57198   0.00000  Uiso   1.00
H401   H     0.32824   0.13700   0.41162   0.00000  Uiso   1.00
H402   H     0.00512   0.19634   0.58839   0.00000  Uiso   1.00
I403   I     0.25375   0.23542   0.40326   0.00000  Uiso   1.00
I404   I     0.07958   0.09791   0.59674   0.00000  Uiso   1.00
I405   I     0.25006   0.23791   0.61984   0.00000  Uiso   1.00
I406   I     0.08327   0.09543   0.38016   0.00000  Uiso   1.00
N407   N     0.16665   0.16666   0.61907   0.00000  Uiso   1.00
N408   N     0.16668   0.16668   0.38093   0.00000  Uiso   1.00
O409   O     0.16666   0.10558   0.53821   0.00000  Uiso   1.00
O410   O     0.03675   0.23411   0.54610   0.00000  Uiso   1.00
O411   O     0.16667   0.22775   0.46179   0.00000  Uiso   1.00
O412   O     0.16666   0.10559   0.46176   0.00000  Uiso   1.00
O413   O     0.16667   0.22774   0.53824   0.00000  Uiso   1.00
O414   O     0.09058   0.16666   0.52928   0.00000  Uiso   1.00
O415   O     0.24275   0.16667   0.47072   0.00000  Uiso   1.00
O416   O     0.09058   0.16667   0.45284   0.00000  Uiso   1.00
O417   O     0.24275   0.16666   0.54716   0.00000  Uiso   1.00
O418   O     0.29657   0.09925   0.45389   0.00000  Uiso   1.00
Zn419  Zn    0.16667   0.16666   0.55104   0.00000  Uiso   1.00
Zn420  Zn    0.16667   0.16667   0.44896   0.00000  Uiso   1.00
C421   C     0.50026   0.08677   0.50000   0.00000  Uiso   1.00
C422   C     0.49792   0.02127   0.54040   0.00000  Uiso   1.00
C423   C     0.49946   0.29078   0.49995   0.00000  Uiso   1.00
C424   C     0.50054   0.04255   0.50005   0.00000  Uiso   1.00
C425   C     0.53313   0.19359   0.36168   0.00000  Uiso   1.00
C426   C     0.46687   0.13975   0.63832   0.00000  Uiso   1.00
C427   C     0.53279   0.19379   0.64723   0.00000  Uiso   1.00
C428   C     0.46721   0.13955   0.35277   0.00000  Uiso   1.00
C429   C     0.65538   0.13072   0.44601   0.00000  Uiso   1.00
C430   C     0.34463   0.20263   0.55398   0.00000  Uiso   1.00
C431   C     0.49974   0.24656   0.50000   0.00000  Uiso   1.00
C432   C     0.40063   0.16646   0.48820   0.00000  Uiso   1.00
C433   C     0.59937   0.16687   0.51180   0.00000  Uiso   1.00
C434   C     0.34580   0.15989   0.48321   0.00000  Uiso   1.00
C435   C     0.65419   0.17344   0.51679   0.00000  Uiso   1.00
C436   C     0.50296   0.02133   0.45972   0.00000  Uiso   1.00
C437   C     0.49704   0.31200   0.54028   0.00000  Uiso   1.00
C438   C     0.50208   0.31206   0.45960   0.00000  Uiso   1.00
H439   H     0.50554   0.03743   0.42832   0.00000  Uiso   1.00
H440   H     0.49445   0.29590   0.57168   0.00000  Uiso   1.00
H441   H     0.50354   0.29602   0.42802   0.00000  Uiso   1.00
H442   H     0.49645   0.03731   0.57198   0.00000  Uiso   1.00
H443   H     0.66158   0.13700   0.41162   0.00000  Uiso   1.00
H444   H     0.33846   0.19634   0.58839   0.00000  Uiso   1.00
I445   I     0.58708   0.23542   0.40326   0.00000  Uiso   1.00
I446   I     0.41291   0.09791   0.59674   0.00000  Uiso   1.00
I447   I     0.58339   0.23791   0.61984   0.00000  Uiso   1.00
I448   I     0.41660   0.09543   0.38016   0.00000  Uiso   1.00
N449   N     0.49999   0.16666   0.61907   0.00000  Uiso   1.00
N450   N     0.50001   0.16668   0.38093   0.00000  Uiso   1.00
O451   O     0.50000   0.10558   0.53821   0.00000  Uiso   1.00
O452   O     0.37008   0.23411   0.54610   0.00000  Uiso   1.00
O453   O     0.50000   0.22775   0.46179   0.00000  Uiso   1.00
O454   O     0.50000   0.10559   0.46176   0.00000  Uiso   1.00
O455   O     0.50000   0.22774   0.53824   0.00000  Uiso   1.00
O456   O     0.42392   0.16666   0.52928   0.00000  Uiso   1.00
O457   O     0.57608   0.16667   0.47072   0.00000  Uiso   1.00
O458   O     0.42392   0.16667   0.45284   0.00000  Uiso   1.00
O459   O     0.57608   0.16666   0.54716   0.00000  Uiso   1.00
O460   O     0.62990   0.09925   0.45389   0.00000  Uiso   1.00
Zn461  Zn    0.50000   0.16666   0.55104   0.00000  Uiso   1.00
Zn462  Zn    0.50000   0.16667   0.44896   0.00000  Uiso   1.00
C463   C     0.83359   0.08677   0.50000   0.00000  Uiso   1.00
C464   C     0.83125   0.02127   0.54040   0.00000  Uiso   1.00
C465   C     0.83279   0.29078   0.49995   0.00000  Uiso   1.00
C466   C     0.83387   0.04255   0.50005   0.00000  Uiso   1.00
C467   C     0.86646   0.19359   0.36168   0.00000  Uiso   1.00
C468   C     0.80020   0.13975   0.63832   0.00000  Uiso   1.00
C469   C     0.86612   0.19379   0.64723   0.00000  Uiso   1.00
C470   C     0.80054   0.13955   0.35277   0.00000  Uiso   1.00
C471   C     0.98871   0.13072   0.44601   0.00000  Uiso   1.00
C472   C     0.67796   0.20263   0.55398   0.00000  Uiso   1.00
C473   C     0.83308   0.24656   0.50000   0.00000  Uiso   1.00
C474   C     0.73396   0.16646   0.48820   0.00000  Uiso   1.00
C475   C     0.93270   0.16687   0.51180   0.00000  Uiso   1.00
C476   C     0.67914   0.15989   0.48321   0.00000  Uiso   1.00
C477   C     0.98753   0.17344   0.51679   0.00000  Uiso   1.00
C478   C     0.83629   0.02133   0.45972   0.00000  Uiso   1.00
C479   C     0.83037   0.31200   0.54028   0.00000  Uiso   1.00
C480   C     0.83541   0.31206   0.45960   0.00000  Uiso   1.00
H481   H     0.83888   0.03743   0.42832   0.00000  Uiso   1.00
H482   H     0.82779   0.29590   0.57168   0.00000  Uiso   1.00
H483   H     0.83688   0.29602   0.42802   0.00000  Uiso   1.00
H484   H     0.82979   0.03731   0.57198   0.00000  Uiso   1.00
H485   H     0.99491   0.13700   0.41162   0.00000  Uiso   1.00
H486   H     0.67179   0.19634   0.58839   0.00000  Uiso   1.00
I487   I     0.92041   0.23542   0.40326   0.00000  Uiso   1.00
I488   I     0.74625   0.09791   0.59674   0.00000  Uiso   1.00
I489   I     0.91673   0.23791   0.61984   0.00000  Uiso   1.00
I490   I     0.74994   0.09543   0.38016   0.00000  Uiso   1.00
N491   N     0.83332   0.16666   0.61907   0.00000  Uiso   1.00
N492   N     0.83335   0.16668   0.38093   0.00000  Uiso   1.00
O493   O     0.83333   0.10558   0.53821   0.00000  Uiso   1.00
O494   O     0.70341   0.23411   0.54610   0.00000  Uiso   1.00
O495   O     0.83334   0.22775   0.46179   0.00000  Uiso   1.00
O496   O     0.83333   0.10559   0.46176   0.00000  Uiso   1.00
O497   O     0.83334   0.22774   0.53824   0.00000  Uiso   1.00
O498   O     0.75725   0.16666   0.52928   0.00000  Uiso   1.00
O499   O     0.90942   0.16667   0.47072   0.00000  Uiso   1.00
O500   O     0.75725   0.16667   0.45284   0.00000  Uiso   1.00
O501   O     0.90942   0.16666   0.54716   0.00000  Uiso   1.00
O502   O     0.96324   0.09925   0.45389   0.00000  Uiso   1.00
Zn503  Zn    0.83333   0.16666   0.55104   0.00000  Uiso   1.00
Zn504  Zn    0.83333   0.16667   0.44896   0.00000  Uiso   1.00
C505   C     0.16692   0.42010   0.50000   0.00000  Uiso   1.00
C506   C     0.16459   0.35460   0.54040   0.00000  Uiso   1.00
C507   C     0.16613   0.62412   0.49995   0.00000  Uiso   1.00
C508   C     0.16720   0.37588   0.50005   0.00000  Uiso   1.00
C509   C     0.19980   0.52692   0.36168   0.00000  Uiso   1.00
C510   C     0.13353   0.47308   0.63832   0.00000  Uiso   1.00
C511   C     0.19945   0.52712   0.64723   0.00000  Uiso   1.00
C512   C     0.13388   0.47288   0.35277   0.00000  Uiso   1.00
C513   C     0.32204   0.46405   0.44601   0.00000  Uiso   1.00
C514   C     0.01130   0.53596   0.55398   0.00000  Uiso   1.00
C515   C     0.16641   0.57990   0.50000   0.00000  Uiso   1.00
C516   C     0.06729   0.49979   0.48820   0.00000  Uiso   1.00
C517   C     0.26604   0.50021   0.51180   0.00000  Uiso   1.00
C518   C     0.01247   0.49323   0.48321   0.00000  Uiso   1.00
C519   C     0.32086   0.50677   0.51679   0.00000  Uiso   1.00
C520   C     0.16963   0.35466   0.45972   0.00000  Uiso   1.00
C521   C     0.16370   0.64534   0.54028   0.00000  Uiso   1.00
C522   C     0.16874   0.64540   0.45960   0.00000  Uiso   1.00
H523   H     0.17221   0.37077   0.42832   0.00000  Uiso   1.00
H524   H     0.16112   0.62923   0.57168   0.00000  Uiso   1.00
H525   H     0.17021   0.62936   0.42802   0.00000  Uiso   1.00
H526   H     0.16312   0.37064   0.57198   0.00000  Uiso   1.00
H527   H     0.32824   0.47034   0.41162   0.00000  Uiso   1.00
H528   H     0.00512   0.52967   0.58839   0.00000  Uiso   1.00
I529   I     0.25375   0.56876   0.40326   0.00000  Uiso   1.00
I530   I     0.07958   0.43125   0.59674   0.00000  Uiso   1.00
I531   I     0.25006   0.57124   0.61984   0.00000  Uiso   1.00
I532   I     0.08327   0.42876   0.38016   0.00000  Uiso   1.00
N533   N     0.16665   0.49999   0.61907   0.00000  Uiso   1.00
N534   N     0.16668   0.50001   0.38093   0.00000  Uiso   1.00
O535   O     0.16666   0.43892   0.53821   0.00000  Uiso   1.00
O536   O     0.03675   0.56745   0.54610   0.00000  Uiso   1.00
O537   O     0.16667   0.56108   0.46179   0.00000  Uiso   1.00
O538   O     0.16666   0.43893   0.46176   0.00000  Uiso   1.00
O539   O     0.16667   0.56107   0.53824   0.00000  Uiso   1.00
O540   O     0.09058   0.50000   0.52928   0.00000  Uiso   1.00
O541   O     0.24275   0.50000   0.47072   0.00000  Uiso   1.00
O542   O     0.09058   0.50000   0.45284   0.00000  Uiso   1.00
O543   O     0.24275   0.50000   0.54716   0.00000  Uiso   1.00
O544   O     0.29657   0.43258   0.45389   0.00000  Uiso   1.00
Zn545  Zn    0.16667   0.49999   0.55104   0.00000  Uiso   1.00
Zn546  Zn    0.16667   0.50001   0.44896   0.00000  Uiso   1.00
C547   C     0.50026   0.42010   0.50000   0.00000  Uiso   1.00
C548   C     0.49792   0.35460   0.54040   0.00000  Uiso   1.00
C549   C     0.49946   0.62412   0.49995   0.00000  Uiso   1.00
C550   C     0.50054   0.37588   0.50005   0.00000  Uiso   1.00
C551   C     0.53313   0.52692   0.36168   0.00000  Uiso   1.00
C552   C     0.46687   0.47308   0.63832   0.00000  Uiso   1.00
C553   C     0.53279   0.52712   0.64723   0.00000  Uiso   1.00
C554   C     0.46721   0.47288   0.35277   0.00000  Uiso   1.00
C555   C     0.65538   0.46405   0.44601   0.00000  Uiso   1.00
C556   C     0.34463   0.53596   0.55398   0.00000  Uiso   1.00
C557   C     0.49974   0.57990   0.50000   0.00000  Uiso   1.00
C558   C     0.40063   0.49979   0.48820   0.00000  Uiso   1.00
C559   C     0.59937   0.50021   0.51180   0.00000  Uiso   1.00
C560   C     0.34580   0.49323   0.48321   0.00000  Uiso   1.00
C561   C     0.65419   0.50677   0.51679   0.00000  Uiso   1.00
C562   C     0.50296   0.35466   0.45972   0.00000  Uiso   1.00
C563   C     0.49704   0.64534   0.54028   0.00000  Uiso   1.00
C564   C     0.50208   0.64540   0.45960   0.00000  Uiso   1.00
H565   H     0.50554   0.37077   0.42832   0.00000  Uiso   1.00
H566   H     0.49445   0.62923   0.57168   0.00000  Uiso   1.00
H567   H     0.50354   0.62936   0.42802   0.00000  Uiso   1.00
H568   H     0.49645   0.37064   0.57198   0.00000  Uiso   1.00
H569   H     0.66158   0.47034   0.41162   0.00000  Uiso   1.00
H570   H     0.33846   0.52967   0.58839   0.00000  Uiso   1.00
I571   I     0.58708   0.56876   0.40326   0.00000  Uiso   1.00
I572   I     0.41291   0.43125   0.59674   0.00000  Uiso   1.00
I573   I     0.58339   0.57124   0.61984   0.00000  Uiso   1.00
I574   I     0.41660   0.42876   0.38016   0.00000  Uiso   1.00
N575   N     0.49999   0.49999   0.61907   0.00000  Uiso   1.00
N576   N     0.50001   0.50001   0.38093   0.00000  Uiso   1.00
O577   O     0.50000   0.43892   0.53821   0.00000  Uiso   1.00
O578   O     0.37008   0.56745   0.54610   0.00000  Uiso   1.00
O579   O     0.50000   0.56108   0.46179   0.00000  Uiso   1.00
O580   O     0.50000   0.43893   0.46176   0.00000  Uiso   1.00
O581   O     0.50000   0.56107   0.53824   0.00000  Uiso   1.00
O582   O     0.42392   0.50000   0.52928   0.00000  Uiso   1.00
O583   O     0.57608   0.50000   0.47072   0.00000  Uiso   1.00
O584   O     0.42392   0.50000   0.45284   0.00000  Uiso   1.00
O585   O     0.57608   0.50000   0.54716   0.00000  Uiso   1.00
O586   O     0.62990   0.43258   0.45389   0.00000  Uiso   1.00
Zn587  Zn    0.50000   0.49999   0.55104   0.00000  Uiso   1.00
Zn588  Zn    0.50000   0.50001   0.44896   0.00000  Uiso   1.00
C589   C     0.83359   0.42010   0.50000   0.00000  Uiso   1.00
C590   C     0.83125   0.35460   0.54040   0.00000  Uiso   1.00
C591   C     0.83279   0.62412   0.49995   0.00000  Uiso   1.00
C592   C     0.83387   0.37588   0.50005   0.00000  Uiso   1.00
C593   C     0.86646   0.52692   0.36168   0.00000  Uiso   1.00
C594   C     0.80020   0.47308   0.63832   0.00000  Uiso   1.00
C595   C     0.86612   0.52712   0.64723   0.00000  Uiso   1.00
C596   C     0.80054   0.47288   0.35277   0.00000  Uiso   1.00
C597   C     0.98871   0.46405   0.44601   0.00000  Uiso   1.00
C598   C     0.67796   0.53596   0.55398   0.00000  Uiso   1.00
C599   C     0.83308   0.57990   0.50000   0.00000  Uiso   1.00
C600   C     0.73396   0.49979   0.48820   0.00000  Uiso   1.00
C601   C     0.93270   0.50021   0.51180   0.00000  Uiso   1.00
C602   C     0.67914   0.49323   0.48321   0.00000  Uiso   1.00
C603   C     0.98753   0.50677   0.51679   0.00000  Uiso   1.00
C604   C     0.83629   0.35466   0.45972   0.00000  Uiso   1.00
C605   C     0.83037   0.64534   0.54028   0.00000  Uiso   1.00
C606   C     0.83541   0.64540   0.45960   0.00000  Uiso   1.00
H607   H     0.83888   0.37077   0.42832   0.00000  Uiso   1.00
H608   H     0.82779   0.62923   0.57168   0.00000  Uiso   1.00
H609   H     0.83688   0.62936   0.42802   0.00000  Uiso   1.00
H610   H     0.82979   0.37064   0.57198   0.00000  Uiso   1.00
H611   H     0.99491   0.47034   0.41162   0.00000  Uiso   1.00
H612   H     0.67179   0.52967   0.58839   0.00000  Uiso   1.00
I613   I     0.92041   0.56876   0.40326   0.00000  Uiso   1.00
I614   I     0.74625   0.43125   0.59674   0.00000  Uiso   1.00
I615   I     0.91673   0.57124   0.61984   0.00000  Uiso   1.00
I616   I     0.74994   0.42876   0.38016   0.00000  Uiso   1.00
N617   N     0.83332   0.49999   0.61907   0.00000  Uiso   1.00
N618   N     0.83335   0.50001   0.38093   0.00000  Uiso   1.00
O619   O     0.83333   0.43892   0.53821   0.00000  Uiso   1.00
O620   O     0.70341   0.56745   0.54610   0.00000  Uiso   1.00
O621   O     0.83334   0.56108   0.46179   0.00000  Uiso   1.00
O622   O     0.83333   0.43893   0.46176   0.00000  Uiso   1.00
O623   O     0.83334   0.56107   0.53824   0.00000  Uiso   1.00
O624   O     0.75725   0.50000   0.52928   0.00000  Uiso   1.00
O625   O     0.90942   0.50000   0.47072   0.00000  Uiso   1.00
O626   O     0.75725   0.50000   0.45284   0.00000  Uiso   1.00
O627   O     0.90942   0.50000   0.54716   0.00000  Uiso   1.00
O628   O     0.96324   0.43258   0.45389   0.00000  Uiso   1.00
Zn629  Zn    0.83333   0.49999   0.55104   0.00000  Uiso   1.00
Zn630  Zn    0.83333   0.50001   0.44896   0.00000  Uiso   1.00
C631   C     0.16692   0.75343   0.50000   0.00000  Uiso   1.00
C632   C     0.16459   0.68794   0.54040   0.00000  Uiso   1.00
C633   C     0.16613   0.95745   0.49995   0.00000  Uiso   1.00
C634   C     0.16720   0.70922   0.50005   0.00000  Uiso   1.00
C635   C     0.19980   0.86026   0.36168   0.00000  Uiso   1.00
C636   C     0.13353   0.80641   0.63832   0.00000  Uiso   1.00
C637   C     0.19945   0.86045   0.64723   0.00000  Uiso   1.00
C638   C     0.13388   0.80621   0.35277   0.00000  Uiso   1.00
C639   C     0.32204   0.79738   0.44601   0.00000  Uiso   1.00
C640   C     0.01130   0.86930   0.55398   0.00000  Uiso   1.00
C641   C     0.16641   0.91323   0.50000   0.00000  Uiso   1.00
C642   C     0.06729   0.83313   0.48820   0.00000  Uiso   1.00
C643   C     0.26604   0.83354   0.51180   0.00000  Uiso   1.00
C644   C     0.01247   0.82656   0.48321   0.00000  Uiso   1.00
C645   C     0.32086   0.84011   0.51679   0.00000  Uiso   1.00
C646   C     0.16963   0.68800   0.45972   0.00000  Uiso   1.00
C647   C     0.16370   0.97867   0.54028   0.00000  Uiso   1.00
C648   C     0.16874   0.97873   0.45960   0.00000  Uiso   1.00
H649   H     0.17221   0.70410   0.42832   0.00000  Uiso   1.00
H650   H     0.16112   0.96257   0.57168   0.00000  Uiso   1.00
H651   H     0.17021   0.96269   0.42802   0.00000  Uiso   1.00
H652   H     0.16312   0.70398   0.57198   0.00000  Uiso   1.00
H653   H     0.32824   0.80367   0.41162   0.00000  Uiso   1.00
H654   H     0.00512   0.86301   0.58839   0.00000  Uiso   1.00
I655   I     0.25375   0.90209   0.40326   0.00000  Uiso   1.00
I656   I     0.07958   0.76458   0.59674   0.00000  Uiso   1.00
I657   I     0.25006   0.90458   0.61984   0.00000  Uiso   1.00
I658   I     0.08327   0.76209   0.38016   0.00000  Uiso   1.00
N659   N     0.16665   0.83332   0.61907   0.00000  Uiso   1.00
N660   N     0.16668   0.83334   0.38093   0.00000  Uiso   1.00
O661   O     0.16666   0.77225   0.53821   0.00000  Uiso   1.00
O662   O     0.03675   0.90078   0.54610   0.00000  Uiso   1.00
O663   O     0.16667   0.89442   0.46179   0.00000  Uiso   1.00
O664   O     0.16666   0.77226   0.46176   0.00000  Uiso   1.00
O665   O     0.16667   0.89441   0.53824   0.00000  Uiso   1.00
O666   O     0.09058   0.83333   0.52928   0.00000  Uiso   1.00
O667   O     0.24275   0.83334   0.47072   0.00000  Uiso   1.00
O668   O     0.09058   0.83334   0.45284   0.00000  Uiso   1.00
O669   O     0.24275   0.83333   0.54716   0.00000  Uiso   1.00
O670   O     0.29657   0.76592   0.45389   0.00000  Uiso   1.00
Zn671  Zn    0.16667   0.83333   0.55104   0.00000  Uiso   1.00
Zn672  Zn    0.16667   0.83334   0.44896   0.00000  Uiso   1.00
C673   C     0.50026   0.75343   0.50000   0.00000  Uiso   1.00
C674   C     0.49792   0.68794   0.54040   0.00000  Uiso   1.00
C675   C     0.49946   0.95745   0.49995   0.00000  Uiso   1.00
C676   C     0.50054   0.70922   0.50005   0.00000  Uiso   1.00
C677   C     0.53313   0.86026   0.36168   0.00000  Uiso   1.00
C678   C     0.46687   0.80641   0.63832   0.00000  Uiso   1.00
C679   C     0.53279   0.86045   0.64723   0.00000  Uiso   1.00
C680   C     0.46721   0.80621   0.35277   0.00000  Uiso   1.00
C681   C     0.65538   0.79738   0.44601   0.00000  Uiso   1.00
C682   C     0.34463   0.86930   0.55398   0.00000  Uiso   1.00
C683   C     0.49974   0.91323   0.50000   0.00000  Uiso   1.00
C684   C     0.40063   0.83313   0.48820   0.00000  Uiso   1.00
C685   C     0.59937   0.83354   0.51180   0.00000  Uiso   1.00
C686   C     0.34580   0.82656   0.48321   0.00000  Uiso   1.00
C687   C     0.65419   0.84011   0.51679   0.00000  Uiso   1.00
C688   C     0.50296   0.68800   0.45972   0.00000  Uiso   1.00
C689   C     0.49704   0.97867   0.54028   0.00000  Uiso   1.00
C690   C     0.50208   0.97873   0.45960   0.00000  Uiso   1.00
H691   H     0.50554   0.70410   0.42832   0.00000  Uiso   1.00
H692   H     0.49445   0.96257   0.57168   0.00000  Uiso   1.00
H693   H     0.50354   0.96269   0.42802   0.00000  Uiso   1.00
H694   H     0.49645   0.70398   0.57198   0.00000  Uiso   1.00
H695   H     0.66158   0.80367   0.41162   0.00000  Uiso   1.00
H696   H     0.33846   0.86301   0.58839   0.00000  Uiso   1.00
I697   I     0.58708   0.90209   0.40326   0.00000  Uiso   1.00
I698   I     0.41291   0.76458   0.59674   0.00000  Uiso   1.00
I699   I     0.58339   0.90458   0.61984   0.00000  Uiso   1.00
I700   I     0.41660   0.76209   0.38016   0.00000  Uiso   1.00
N701   N     0.49999   0.83332   0.61907   0.00000  Uiso   1.00
N702   N     0.50001   0.83334   0.38093   0.00000  Uiso   1.00
O703   O     0.50000   0.77225   0.53821   0.00000  Uiso   1.00
O704   O     0.37008   0.90078   0.54610   0.00000  Uiso   1.00
O705   O     0.50000   0.89442   0.46179   0.00000  Uiso   1.00
O706   O     0.50000   0.77226   0.46176   0.00000  Uiso   1.00
O707   O     0.50000   0.89441   0.53824   0.00000  Uiso   1.00
O708   O     0.42392   0.83333   0.52928   0.00000  Uiso   1.00
O709   O     0.57608   0.83334   0.47072   0.00000  Uiso   1.00
O710   O     0.42392   0.83334   0.45284   0.00000  Uiso   1.00
O711   O     0.57608   0.83333   0.54716   0.00000  Uiso   1.00
O712   O     0.62990   0.76592   0.45389   0.00000  Uiso   1.00
Zn713  Zn    0.50000   0.83333   0.55104   0.00000  Uiso   1.00
Zn714  Zn    0.50000   0.83334   0.44896   0.00000  Uiso   1.00
C715   C     0.83359   0.75343   0.50000   0.00000  Uiso   1.00
C716   C     0.83125   0.68794   0.54040   0.00000  Uiso   1.00
C717   C     0.83279   0.95745   0.49995   0.00000  Uiso   1.00
C718   C     0.83387   0.70922   0.50005   0.00000  Uiso   1.00
C719   C     0.86646   0.86026   0.36168   0.00000  Uiso   1.00
C720   C     0.80020   0.80641   0.63832   0.00000  Uiso   1.00
C721   C     0.86612   0.86045   0.64723   0.00000  Uiso   1.00
C722   C     0.80054   0.80621   0.35277   0.00000  Uiso   1.00
C723   C     0.98871   0.79738   0.44601   0.00000  Uiso   1.00
C724   C     0.67796   0.86930   0.55398   0.00000  Uiso   1.00
C725   C     0.83308   0.91323   0.50000   0.00000  Uiso   1.00
C726   C     0.73396   0.83313   0.48820   0.00000  Uiso   1.00
C727   C     0.93270   0.83354   0.51180   0.00000  Uiso   1.00
C728   C     0.67914   0.82656   0.48321   0.00000  Uiso   1.00
C729   C     0.98753   0.84011   0.51679   0.00000  Uiso   1.00
C730   C     0.83629   0.68800   0.45972   0.00000  Uiso   1.00
C731   C     0.83037   0.97867   0.54028   0.00000  Uiso   1.00
C732   C     0.83541   0.97873   0.45960   0.00000  Uiso   1.00
H733   H     0.83888   0.70410   0.42832   0.00000  Uiso   1.00
H734   H     0.82779   0.96257   0.57168   0.00000  Uiso   1.00
H735   H     0.83688   0.96269   0.42802   0.00000  Uiso   1.00
H736   H     0.82979   0.70398   0.57198   0.00000  Uiso   1.00
H737   H     0.99491   0.80367   0.41162   0.00000  Uiso   1.00
H738   H     0.67179   0.86301   0.58839   0.00000  Uiso   1.00
I739   I     0.92041   0.90209   0.40326   0.00000  Uiso   1.00
I740   I     0.74625   0.76458   0.59674   0.00000  Uiso   1.00
I741   I     0.91673   0.90458   0.61984   0.00000  Uiso   1.00
I742   I     0.74994   0.76209   0.38016   0.00000  Uiso   1.00
N743   N     0.83332   0.83332   0.61907   0.00000  Uiso   1.00
N744   N     0.83335   0.83334   0.38093   0.00000  Uiso   1.00
O745   O     0.83333   0.77225   0.53821   0.00000  Uiso   1.00
O746   O     0.70341   0.90078   0.54610   0.00000  Uiso   1.00
O747   O     0.83334   0.89442   0.46179   0.00000  Uiso   1.00
O748   O     0.83333   0.77226   0.46176   0.00000  Uiso   1.00
O749   O     0.83334   0.89441   0.53824   0.00000  Uiso   1.00
O750   O     0.75725   0.83333   0.52928   0.00000  Uiso   1.00
O751   O     0.90942   0.83334   0.47072   0.00000  Uiso   1.00
O752   O     0.75725   0.83334   0.45284   0.00000  Uiso   1.00
O753   O     0.90942   0.83333   0.54716   0.00000  Uiso   1.00
O754   O     0.96324   0.76592   0.45389   0.00000  Uiso   1.00
Zn755  Zn    0.83333   0.83333   0.55104   0.00000  Uiso   1.00
Zn756  Zn    0.83333   0.83334   0.44896   0.00000  Uiso   1.00
C757   C     0.16692   0.08677   0.83333   0.00000  Uiso   1.00
C758   C     0.16459   0.02127   0.87373   0.00000  Uiso   1.00
C759   C     0.16613   0.29078   0.83328   0.00000  Uiso   1.00
C760   C     0.16720   0.04255   0.83338   0.00000  Uiso   1.00
C761   C     0.19980   0.19359   0.69501   0.00000  Uiso   1.00
C762   C     0.13353   0.13975   0.97165   0.00000  Uiso   1.00
C763   C     0.19945   0.19379   0.98056   0.00000  Uiso   1.00
C764   C     0.13388   0.13955   0.68611   0.00000  Uiso   1.00
C765   C     0.32204   0.13072   0.77935   0.00000  Uiso   1.00
C766   C     0.01130   0.20263   0.88732   0.00000  Uiso   1.00
C767   C     0.16641   0.24656   0.83334   0.00000  Uiso   1.00
C768   C     0.06729   0.16646   0.82153   0.00000  Uiso   1.00
C769   C     0.26604   0.16687   0.84513   0.00000  Uiso   1.00
C770   C     0.01247   0.15989   0.81654   0.00000  Uiso   1.00
C771   C     0.32086   0.17344   0.85012   0.00000  Uiso   1.00
C772   C     0.16963   0.02133   0.79305   0.00000  Uiso   1.00
C773   C     0.16370   0.31200   0.87362   0.00000  Uiso   1.00
C774   C     0.16874   0.31206   0.79294   0.00000  Uiso   1.00
H775   H     0.17221   0.03743   0.76166   0.00000  Uiso   1.00
H776   H     0.16112   0.29590   0.90501   0.00000  Uiso   1.00
H777   H     0.17021   0.29602   0.76135   0.00000  Uiso   1.00
H778   H     0.16312   0.03731   0.90532   0.00000  Uiso   1.00
H779   H     0.32824   0.13700   0.74495   0.00000  Uiso   1.00
H780   H     0.00512   0.19634   0.92172   0.00000  Uiso   1.00
I781   I     0.25375   0.23542   0.73659   0.00000  Uiso   1.00
I782   I     0.07958   0.09791   0.93007   0.00000  Uiso   1.00
I783   I     0.25006   0.23791   0.95317   0.00000  Uiso   1.00
I784   I     0.08327   0.09543   0.71350   0.00000  Uiso   1.00
N785   N     0.16665   0.16666   0.95240   0.00000  Uiso   1.00
N786   N     0.16668   0.16668   0.71427   0.00000  Uiso   1.00
O787   O     0.16666   0.10558   0.87154   0.00000  Uiso   1.00
O788   O     0.03675   0.23411   0.87943   0.00000  Uiso   1.00
O789   O     0.16667   0.22775   0.79513   0.00000  Uiso   1.00
O790   O     0.16666   0.10559   0.79510   0.00000  Uiso   1.00
O791   O     0.16667   0.22774   0.87157   0.00000  Uiso   1.00
O792   O     0.09058   0.16666   0.86261   0.00000  Uiso   1.00
O793   O     0.24275   0.16667   0.80405   0.00000  Uiso   1.00
O794   O     0.09058   0.16667   0.78617   0.00000  Uiso   1.00
O795   O     0.24275   0.16666   0.88050   0.00000  Uiso   1.00
O796   O     0.29657   0.09925   0.78722   0.00000  Uiso   1.00
Zn797  Zn    0.16667   0.16666   0.88437   0.00000  Uiso   1.00
Zn798  Zn    0.16667   0.16667   0.78229   0.00000  Uiso   1.00
C799   C     0.50026   0.08677   0.83333   0.00000  Uiso   1.00
C800   C     0.49792   0.02127   0.87373   0.00000  Uiso   1.00
C801   C     0.49946   0.29078   0.83328   0.00000  Uiso   1.00
C802   C     0.50054   0.04255   0.83338   0.00000  Uiso   1.00
C803   C     0.53313   0.19359   0.69501   0.00000  Uiso   1.00
C804   C     0.46687   0.13975   0.97165   0.00000  Uiso   1.00
C805   C     0.53279   0.19379   0.98056   0.00000  Uiso   1.00
C806   C     0.46721   0.13955   0.68611   0.00000  Uiso   1.00
C807   C     0.65538   0.13072   0.77935   0.00000  Uiso   1.00
C808   C     0.34463   0.20263   0.88732   0.00000  Uiso   1.00
C809   C     0.49974   0.24656   0.83334   0.00000  Uiso   1.00
C810   C     0.40063   0.16646   0.82153   0.00000  Uiso   1.00
C811   C     0.59937   0.16687   0.84513   0.00000  Uiso   1.00
C812   C     0.34580   0.15989   0.81654   0.00000  Uiso   1.00
C813   C     0.65419   0.17344   0.85012   0.00000  Uiso   1.00
C814   C     0.50296   0.02133   0.79305   0.00000  Uiso   1.00
C815   C     0.49704   0.31200   0.87362   0.00000  Uiso   1.00
C816   C     0.50208   0.31206   0.79294   0.00000  Uiso   1.00
H817   H     0.50554   0.03743   0.76166   0.00000  Uiso   1.00
H818   H     0.49445   0.29590   0.90501   0.00000  Uiso   1.00
H819   H     0.50354   0.29602   0.76135   0.00000  Uiso   1.00
H820   H     0.49645   0.03731   0.90532   0.00000  Uiso   1.00
H821   H     0.66158   0.13700   0.74495   0.00000  Uiso   1.00
H822   H     0.33846   0.19634   0.92172   0.00000  Uiso   1.00
I823   I     0.58708   0.23542   0.73659   0.00000  Uiso   1.00
I824   I     0.41291   0.09791   0.93007   0.00000  Uiso   1.00
I825   I     0.58339   0.23791   0.95317   0.00000  Uiso   1.00
I826   I     0.41660   0.09543   0.71350   0.00000  Uiso   1.00
N827   N     0.49999   0.16666   0.95240   0.00000  Uiso   1.00
N828   N     0.50001   0.16668   0.71427   0.00000  Uiso   1.00
O829   O     0.50000   0.10558   0.87154   0.00000  Uiso   1.00
O830   O     0.37008   0.23411   0.87943   0.00000  Uiso   1.00
O831   O     0.50000   0.22775   0.79513   0.00000  Uiso   1.00
O832   O     0.50000   0.10559   0.79510   0.00000  Uiso   1.00
O833   O     0.50000   0.22774   0.87157   0.00000  Uiso   1.00
O834   O     0.42392   0.16666   0.86261   0.00000  Uiso   1.00
O835   O     0.57608   0.16667   0.80405   0.00000  Uiso   1.00
O836   O     0.42392   0.16667   0.78617   0.00000  Uiso   1.00
O837   O     0.57608   0.16666   0.88050   0.00000  Uiso   1.00
O838   O     0.62990   0.09925   0.78722   0.00000  Uiso   1.00
Zn839  Zn    0.50000   0.16666   0.88437   0.00000  Uiso   1.00
Zn840  Zn    0.50000   0.16667   0.78229   0.00000  Uiso   1.00
C841   C     0.83359   0.08677   0.83333   0.00000  Uiso   1.00
C842   C     0.83125   0.02127   0.87373   0.00000  Uiso   1.00
C843   C     0.83279   0.29078   0.83328   0.00000  Uiso   1.00
C844   C     0.83387   0.04255   0.83338   0.00000  Uiso   1.00
C845   C     0.86646   0.19359   0.69501   0.00000  Uiso   1.00
C846   C     0.80020   0.13975   0.97165   0.00000  Uiso   1.00
C847   C     0.86612   0.19379   0.98056   0.00000  Uiso   1.00
C848   C     0.80054   0.13955   0.68611   0.00000  Uiso   1.00
C849   C     0.98871   0.13072   0.77935   0.00000  Uiso   1.00
C850   C     0.67796   0.20263   0.88732   0.00000  Uiso   1.00
C851   C     0.83308   0.24656   0.83334   0.00000  Uiso   1.00
C852   C     0.73396   0.16646   0.82153   0.00000  Uiso   1.00
C853   C     0.93270   0.16687   0.84513   0.00000  Uiso   1.00
C854   C     0.67914   0.15989   0.81654   0.00000  Uiso   1.00
C855   C     0.98753   0.17344   0.85012   0.00000  Uiso   1.00
C856   C     0.83629   0.02133   0.79305   0.00000  Uiso   1.00
C857   C     0.83037   0.31200   0.87362   0.00000  Uiso   1.00
C858   C     0.83541   0.31206   0.79294   0.00000  Uiso   1.00
H859   H     0.83888   0.03743   0.76166   0.00000  Uiso   1.00
H860   H     0.82779   0.29590   0.90501   0.00000  Uiso   1.00
H861   H     0.83688   0.29602   0.76135   0.00000  Uiso   1.00
H862   H     0.82979   0.03731   0.90532   0.00000  Uiso   1.00
H863   H     0.99491   0.13700   0.74495   0.00000  Uiso   1.00
H864   H     0.67179   0.19634   0.92172   0.00000  Uiso   1.00
I865   I     0.92041   0.23542   0.73659   0.00000  Uiso   1.00
I866   I     0.74625   0.09791   0.93007   0.00000  Uiso   1.00
I867   I     0.91673   0.23791   0.95317   0.00000  Uiso   1.00
I868   I     0.74994   0.09543   0.71350   0.00000  Uiso   1.00
N869   N     0.83332   0.16666   0.95240   0.00000  Uiso   1.00
N870   N     0.83335   0.16668   0.71427   0.00000  Uiso   1.00
O871   O     0.83333   0.10558   0.87154   0.00000  Uiso   1.00
O872   O     0.70341   0.23411   0.87943   0.00000  Uiso   1.00
O873   O     0.83334   0.22775   0.79513   0.00000  Uiso   1.00
O874   O     0.83333   0.10559   0.79510   0.00000  Uiso   1.00
O875   O     0.83334   0.22774   0.87157   0.00000  Uiso   1.00
O876   O     0.75725   0.16666   0.86261   0.00000  Uiso   1.00
O877   O     0.90942   0.16667   0.80405   0.00000  Uiso   1.00
O878   O     0.75725   0.16667   0.78617   0.00000  Uiso   1.00
O879   O     0.90942   0.16666   0.88050   0.00000  Uiso   1.00
O880   O     0.96324   0.09925   0.78722   0.00000  Uiso   1.00
Zn881  Zn    0.83333   0.16666   0.88437   0.00000  Uiso   1.00
Zn882  Zn    0.83333   0.16667   0.78229   0.00000  Uiso   1.00
C883   C     0.16692   0.42010   0.83333   0.00000  Uiso   1.00
C884   C     0.16459   0.35460   0.87373   0.00000  Uiso   1.00
C885   C     0.16613   0.62412   0.83328   0.00000  Uiso   1.00
C886   C     0.16720   0.37588   0.83338   0.00000  Uiso   1.00
C887   C     0.19980   0.52692   0.69501   0.00000  Uiso   1.00
C888   C     0.13353   0.47308   0.97165   0.00000  Uiso   1.00
C889   C     0.19945   0.52712   0.98056   0.00000  Uiso   1.00
C890   C     0.13388   0.47288   0.68611   0.00000  Uiso   1.00
C891   C     0.32204   0.46405   0.77935   0.00000  Uiso   1.00
C892   C     0.01130   0.53596   0.88732   0.00000  Uiso   1.00
C893   C     0.16641   0.57990   0.83334   0.00000  Uiso   1.00
C894   C     0.06729   0.49979   0.82153   0.00000  Uiso   1.00
C895   C     0.26604   0.50021   0.84513   0.00000  Uiso   1.00
C896   C     0.01247   0.49323   0.81654   0.00000  Uiso   1.00
C897   C     0.32086   0.50677   0.85012   0.00000  Uiso   1.00
C898   C     0.16963   0.35466   0.79305   0.00000  Uiso   1.00
C899   C     0.16370   0.64534   0.87362   0.00000  Uiso   1.00
C900   C     0.16874   0.64540   0.79294   0.00000  Uiso   1.00
H901   H     0.17221   0.37077   0.76166   0.00000  Uiso   1.00
H902   H     0.16112   0.62923   0.90501   0.00000  Uiso   1.00
H903   H     0.17021   0.62936   0.76135   0.00000  Uiso   1.00
H904   H     0.16312   0.37064   0.90532   0.00000  Uiso   1.00
H905   H     0.32824   0.47034   0.74495   0.00000  Uiso   1.00
H906   H     0.00512   0.52967   0.92172   0.00000  Uiso   1.00
I907   I     0.25375   0.56876   0.73659   0.00000  Uiso   1.00
I908   I     0.07958   0.43125   0.93007   0.00000  Uiso   1.00
I909   I     0.25006   0.57124   0.95317   0.00000  Uiso   1.00
I910   I     0.08327   0.42876   0.71350   0.00000  Uiso   1.00
N911   N     0.16665   0.49999   0.95240   0.00000  Uiso   1.00
N912   N     0.16668   0.50001   0.71427   0.00000  Uiso   1.00
O913   O     0.16666   0.43892   0.87154   0.00000  Uiso   1.00
O914   O     0.03675   0.56745   0.87943   0.00000  Uiso   1.00
O915   O     0.16667   0.56108   0.79513   0.00000  Uiso   1.00
O916   O     0.16666   0.43893   0.79510   0.00000  Uiso   1.00
O917   O     0.16667   0.56107   0.87157   0.00000  Uiso   1.00
O918   O     0.09058   0.50000   0.86261   0.00000  Uiso   1.00
O919   O     0.24275   0.50000   0.80405   0.00000  Uiso   1.00
O920   O     0.09058   0.50000   0.78617   0.00000  Uiso   1.00
O921   O     0.24275   0.50000   0.88050   0.00000  Uiso   1.00
O922   O     0.29657   0.43258   0.78722   0.00000  Uiso   1.00
Zn923  Zn    0.16667   0.49999   0.88437   0.00000  Uiso   1.00
Zn924  Zn    0.16667   0.50001   0.78229   0.00000  Uiso   1.00
C925   C     0.50026   0.42010   0.83333   0.00000  Uiso   1.00
C926   C     0.49792   0.35460   0.87373   0.00000  Uiso   1.00
C927   C     0.49946   0.62412   0.83328   0.00000  Uiso   1.00
C928   C     0.50054   0.37588   0.83338   0.00000  Uiso   1.00
C929   C     0.53313   0.52692   0.69501   0.00000  Uiso   1.00
C930   C     0.46687   0.47308   0.97165   0.00000  Uiso   1.00
C931   C     0.53279   0.52712   0.98056   0.00000  Uiso   1.00
C932   C     0.46721   0.47288   0.68611   0.00000  Uiso   1.00
C933   C     0.65538   0.46405   0.77935   0.00000  Uiso   1.00
C934   C     0.34463   0.53596   0.88732   0.00000  Uiso   1.00
C935   C     0.49974   0.57990   0.83334   0.00000  Uiso   1.00
C936   C     0.40063   0.49979   0.82153   0.00000  Uiso   1.00
C937   C     0.59937   0.50021   0.84513   0.00000  Uiso   1.00
C938   C     0.34580   0.49323   0.81654   0.00000  Uiso   1.00
C939   C     0.65419   0.50677   0.85012   0.00000  Uiso   1.00
C940   C     0.50296   0.35466   0.79305   0.00000  Uiso   1.00
C941   C     0.49704   0.64534   0.87362   0.00000  Uiso   1.00
C942   C     0.50208   0.64540   0.79294   0.00000  Uiso   1.00
H943   H     0.50554   0.37077   0.76166   0.00000  Uiso   1.00
H944   H     0.49445   0.62923   0.90501   0.00000  Uiso   1.00
H945   H     0.50354   0.62936   0.76135   0.00000  Uiso   1.00
H946   H     0.49645   0.37064   0.90532   0.00000  Uiso   1.00
H947   H     0.66158   0.47034   0.74495   0.00000  Uiso   1.00
H948   H     0.33846   0.52967   0.92172   0.00000  Uiso   1.00
I949   I     0.58708   0.56876   0.73659   0.00000  Uiso   1.00
I950   I     0.41291   0.43125   0.93007   0.00000  Uiso   1.00
I951   I     0.58339   0.57124   0.95317   0.00000  Uiso   1.00
I952   I     0.41660   0.42876   0.71350   0.00000  Uiso   1.00
N953   N     0.49999   0.49999   0.95240   0.00000  Uiso   1.00
N954   N     0.50001   0.50001   0.71427   0.00000  Uiso   1.00
O955   O     0.50000   0.43892   0.87154   0.00000  Uiso   1.00
O956   O     0.37008   0.56745   0.87943   0.00000  Uiso   1.00
O957   O     0.50000   0.56108   0.79513   0.00000  Uiso   1.00
O958   O     0.50000   0.43893   0.79510   0.00000  Uiso   1.00
O959   O     0.50000   0.56107   0.87157   0.00000  Uiso   1.00
O960   O     0.42392   0.50000   0.86261   0.00000  Uiso   1.00
O961   O     0.57608   0.50000   0.80405   0.00000  Uiso   1.00
O962   O     0.42392   0.50000   0.78617   0.00000  Uiso   1.00
O963   O     0.57608   0.50000   0.88050   0.00000  Uiso   1.00
O964   O     0.62990   0.43258   0.78722   0.00000  Uiso   1.00
Zn965  Zn    0.50000   0.49999   0.88437   0.00000  Uiso   1.00
Zn966  Zn    0.50000   0.50001   0.78229   0.00000  Uiso   1.00
C967   C     0.83359   0.42010   0.83333   0.00000  Uiso   1.00
C968   C     0.83125   0.35460   0.87373   0.00000  Uiso   1.00
C969   C     0.83279   0.62412   0.83328   0.00000  Uiso   1.00
C970   C     0.83387   0.37588   0.83338   0.00000  Uiso   1.00
C971   C     0.86646   0.52692   0.69501   0.00000  Uiso   1.00
C972   C     0.80020   0.47308   0.97165   0.00000  Uiso   1.00
C973   C     0.86612   0.52712   0.98056   0.00000  Uiso   1.00
C974   C     0.80054   0.47288   0.68611   0.00000  Uiso   1.00
C975   C     0.98871   0.46405   0.77935   0.00000  Uiso   1.00
C976   C     0.67796   0.53596   0.88732   0.00000  Uiso   1.00
C977   C     0.83308   0.57990   0.83334   0.00000  Uiso   1.00
C978   C     0.73396   0.49979   0.82153   0.00000  Uiso   1.00
C979   C     0.93270   0.50021   0.84513   0.00000  Uiso   1.00
C980   C     0.67914   0.49323   0.81654   0.00000  Uiso   1.00
C981   C     0.98753   0.50677   0.85012   0.00000  Uiso   1.00
C982   C     0.83629   0.35466   0.79305   0.00000  Uiso   1.00
C983   C     0.83037   0.64534   0.87362   0.00000  Uiso   1.00
C984   C     0.83541   0.64540   0.79294   0.00000  Uiso   1.00
H985   H     0.83888   0.37077   0.76166   0.00000  Uiso   1.00
H986   H     0.82779   0.62923   0.90501   0.00000  Uiso   1.00
H987   H     0.83688   0.62936   0.76135   0.00000  Uiso   1.00
H988   H     0.82979   0.37064   0.90532   0.00000  Uiso   1.00
H989   H     0.99491   0.47034   0.74495   0.00000  Uiso   1.00
H990   H     0.67179   0.52967   0.92172   0.00000  Uiso   1.00
I991   I     0.92041   0.56876   0.73659   0.00000  Uiso   1.00
I992   I     0.74625   0.43125   0.93007   0.00000  Uiso   1.00
I993   I     0.91673   0.57124   0.95317   0.00000  Uiso   1.00
I994   I     0.74994   0.42876   0.71350   0.00000  Uiso   1.00
N995   N     0.83332   0.49999   0.95240   0.00000  Uiso   1.00
N996   N     0.83335   0.50001   0.71427   0.00000  Uiso   1.00
O997   O     0.83333   0.43892   0.87154   0.00000  Uiso   1.00
O998   O     0.70341   0.56745   0.87943   0.00000  Uiso   1.00
O999   O     0.83334   0.56108   0.79513   0.00000  Uiso   1.00
O1000  O     0.83333   0.43893   0.79510   0.00000  Uiso   1.00
O1001  O     0.83334   0.56107   0.87157   0.00000  Uiso   1.00
O1002  O     0.75725   0.50000   0.86261   0.00000  Uiso   1.00
O1003  O     0.90942   0.50000   0.80405   0.00000  Uiso   1.00
O1004  O     0.75725   0.50000   0.78617   0.00000  Uiso   1.00
O1005  O     0.90942   0.50000   0.88050   0.00000  Uiso   1.00
O1006  O     0.96324   0.43258   0.78722   0.00000  Uiso   1.00
Zn1007 Zn    0.83333   0.49999   0.88437   0.00000  Uiso   1.00
Zn1008 Zn    0.83333   0.50001   0.78229   0.00000  Uiso   1.00
C1009  C     0.16692   0.75343   0.83333   0.00000  Uiso   1.00
C1010  C     0.16459   0.68794   0.87373   0.00000  Uiso   1.00
C1011  C     0.16613   0.95745   0.83328   0.00000  Uiso   1.00
C1012  C     0.16720   0.70922   0.83338   0.00000  Uiso   1.00
C1013  C     0.19980   0.86026   0.69501   0.00000  Uiso   1.00
C1014  C     0.13353   0.80641   0.97165   0.00000  Uiso   1.00
C1015  C     0.19945   0.86045   0.98056   0.00000  Uiso   1.00
C1016  C     0.13388   0.80621   0.68611   0.00000  Uiso   1.00
C1017  C     0.32204   0.79738   0.77935   0.00000  Uiso   1.00
C1018  C     0.01130   0.86930   0.88732   0.00000  Uiso   1.00
C1019  C     0.16641   0.91323   0.83334   0.00000  Uiso   1.00
C1020  C     0.06729   0.83313   0.82153   0.00000  Uiso   1.00
C1021  C     0.26604   0.83354   0.84513   0.00000  Uiso   1.00
C1022  C     0.01247   0.82656   0.81654   0.00000  Uiso   1.00
C1023  C     0.32086   0.84011   0.85012   0.00000  Uiso   1.00
C1024  C     0.16963   0.68800   0.79305   0.00000  Uiso   1.00
C1025  C     0.16370   0.97867   0.87362   0.00000  Uiso   1.00
C1026  C     0.16874   0.97873   0.79294   0.00000  Uiso   1.00
H1027  H     0.17221   0.70410   0.76166   0.00000  Uiso   1.00
H1028  H     0.16112   0.96257   0.90501   0.00000  Uiso   1.00
H1029  H     0.17021   0.96269   0.76135   0.00000  Uiso   1.00
H1030  H     0.16312   0.70398   0.90532   0.00000  Uiso   1.00
H1031  H     0.32824   0.80367   0.74495   0.00000  Uiso   1.00
H1032  H     0.00512   0.86301   0.92172   0.00000  Uiso   1.00
I1033  I     0.25375   0.90209   0.73659   0.00000  Uiso   1.00
I1034  I     0.07958   0.76458   0.93007   0.00000  Uiso   1.00
I1035  I     0.25006   0.90458   0.95317   0.00000  Uiso   1.00
I1036  I     0.08327   0.76209   0.71350   0.00000  Uiso   1.00
N1037  N     0.16665   0.83332   0.95240   0.00000  Uiso   1.00
N1038  N     0.16668   0.83334   0.71427   0.00000  Uiso   1.00
O1039  O     0.16666   0.77225   0.87154   0.00000  Uiso   1.00
O1040  O     0.03675   0.90078   0.87943   0.00000  Uiso   1.00
O1041  O     0.16667   0.89442   0.79513   0.00000  Uiso   1.00
O1042  O     0.16666   0.77226   0.79510   0.00000  Uiso   1.00
O1043  O     0.16667   0.89441   0.87157   0.00000  Uiso   1.00
O1044  O     0.09058   0.83333   0.86261   0.00000  Uiso   1.00
O1045  O     0.24275   0.83334   0.80405   0.00000  Uiso   1.00
O1046  O     0.09058   0.83334   0.78617   0.00000  Uiso   1.00
O1047  O     0.24275   0.83333   0.88050   0.00000  Uiso   1.00
O1048  O     0.29657   0.76592   0.78722   0.00000  Uiso   1.00
Zn1049 Zn    0.16667   0.83333   0.88437   0.00000  Uiso   1.00
Zn1050 Zn    0.16667   0.83334   0.78229   0.00000  Uiso   1.00
C1051  C     0.50026   0.75343   0.83333   0.00000  Uiso   1.00
C1052  C     0.49792   0.68794   0.87373   0.00000  Uiso   1.00
C1053  C     0.49946   0.95745   0.83328   0.00000  Uiso   1.00
C1054  C     0.50054   0.70922   0.83338   0.00000  Uiso   1.00
C1055  C     0.53313   0.86026   0.69501   0.00000  Uiso   1.00
C1056  C     0.46687   0.80641   0.97165   0.00000  Uiso   1.00
C1057  C     0.53279   0.86045   0.98056   0.00000  Uiso   1.00
C1058  C     0.46721   0.80621   0.68611   0.00000  Uiso   1.00
C1059  C     0.65538   0.79738   0.77935   0.00000  Uiso   1.00
C1060  C     0.34463   0.86930   0.88732   0.00000  Uiso   1.00
C1061  C     0.49974   0.91323   0.83334   0.00000  Uiso   1.00
C1062  C     0.40063   0.83313   0.82153   0.00000  Uiso   1.00
C1063  C     0.59937   0.83354   0.84513   0.00000  Uiso   1.00
C1064  C     0.34580   0.82656   0.81654   0.00000  Uiso   1.00
C1065  C     0.65419   0.84011   0.85012   0.00000  Uiso   1.00
C1066  C     0.50296   0.68800   0.79305   0.00000  Uiso   1.00
C1067  C     0.49704   0.97867   0.87362   0.00000  Uiso   1.00
C1068  C     0.50208   0.97873   0.79294   0.00000  Uiso   1.00
H1069  H     0.50554   0.70410   0.76166   0.00000  Uiso   1.00
H1070  H     0.49445   0.96257   0.90501   0.00000  Uiso   1.00
H1071  H     0.50354   0.96269   0.76135   0.00000  Uiso   1.00
H1072  H     0.49645   0.70398   0.90532   0.00000  Uiso   1.00
H1073  H     0.66158   0.80367   0.74495   0.00000  Uiso   1.00
H1074  H     0.33846   0.86301   0.92172   0.00000  Uiso   1.00
I1075  I     0.58708   0.90209   0.73659   0.00000  Uiso   1.00
I1076  I     0.41291   0.76458   0.93007   0.00000  Uiso   1.00
I1077  I     0.58339   0.90458   0.95317   0.00000  Uiso   1.00
I1078  I     0.41660   0.76209   0.71350   0.00000  Uiso   1.00
N1079  N     0.49999   0.83332   0.95240   0.00000  Uiso   1.00
N1080  N     0.50001   0.83334   0.71427   0.00000  Uiso   1.00
O1081  O     0.50000   0.77225   0.87154   0.00000  Uiso   1.00
O1082  O     0.37008   0.90078   0.87943   0.00000  Uiso   1.00
O1083  O     0.50000   0.89442   0.79513   0.00000  Uiso   1.00
O1084  O     0.50000   0.77226   0.79510   0.00000  Uiso   1.00
O1085  O     0.50000   0.89441   0.87157   0.00000  Uiso   1.00
O1086  O     0.42392   0.83333   0.86261   0.00000  Uiso   1.00
O1087  O     0.57608   0.83334   0.80405   0.00000  Uiso   1.00
O1088  O     0.42392   0.83334   0.78617   0.00000  Uiso   1.00
O1089  O     0.57608   0.83333   0.88050   0.00000  Uiso   1.00
O1090  O     0.62990   0.76592   0.78722   0.00000  Uiso   1.00
Zn1091 Zn    0.50000   0.83333   0.88437   0.00000  Uiso   1.00
Zn1092 Zn    0.50000   0.83334   0.78229   0.00000  Uiso   1.00
C1093  C     0.83359   0.75343   0.83333   0.00000  Uiso   1.00
C1094  C     0.83125   0.68794   0.87373   0.00000  Uiso   1.00
C1095  C     0.83279   0.95745   0.83328   0.00000  Uiso   1.00
C1096  C     0.83387   0.70922   0.83338   0.00000  Uiso   1.00
C1097  C     0.86646   0.86026   0.69501   0.00000  Uiso   1.00
C1098  C     0.80020   0.80641   0.97165   0.00000  Uiso   1.00
C1099  C     0.86612   0.86045   0.98056   0.00000  Uiso   1.00
C1100  C     0.80054   0.80621   0.68611   0.00000  Uiso   1.00
C1101  C     0.98871   0.79738   0.77935   0.00000  Uiso   1.00
C1102  C     0.67796   0.86930   0.88732   0.00000  Uiso   1.00
C1103  C     0.83308   0.91323   0.83334   0.00000  Uiso   1.00
C1104  C     0.73396   0.83313   0.82153   0.00000  Uiso   1.00
C1105  C     0.93270   0.83354   0.84513   0.00000  Uiso   1.00
C1106  C     0.67914   0.82656   0.81654   0.00000  Uiso   1.00
C1107  C     0.98753   0.84011   0.85012   0.00000  Uiso   1.00
C1108  C     0.83629   0.68800   0.79305   0.00000  Uiso   1.00
C1109  C     0.83037   0.97867   0.87362   0.00000  Uiso   1.00
C1110  C     0.83541   0.97873   0.79294   0.00000  Uiso   1.00
H1111  H     0.83888   0.70410   0.76166   0.00000  Uiso   1.00
H1112  H     0.82779   0.96257   0.90501   0.00000  Uiso   1.00
H1113  H     0.83688   0.96269   0.76135   0.00000  Uiso   1.00
H1114  H     0.82979   0.70398   0.90532   0.00000  Uiso   1.00
H1115  H     0.99491   0.80367   0.74495   0.00000  Uiso   1.00
H1116  H     0.67179   0.86301   0.92172   0.00000  Uiso   1.00
I1117  I     0.92041   0.90209   0.73659   0.00000  Uiso   1.00
I1118  I     0.74625   0.76458   0.93007   0.00000  Uiso   1.00
I1119  I     0.91673   0.90458   0.95317   0.00000  Uiso   1.00
I1120  I     0.74994   0.76209   0.71350   0.00000  Uiso   1.00
N1121  N     0.83332   0.83332   0.95240   0.00000  Uiso   1.00
N1122  N     0.83335   0.83334   0.71427   0.00000  Uiso   1.00
O1123  O     0.83333   0.77225   0.87154   0.00000  Uiso   1.00
O1124  O     0.70341   0.90078   0.87943   0.00000  Uiso   1.00
O1125  O     0.83334   0.89442   0.79513   0.00000  Uiso   1.00
O1126  O     0.83333   0.77226   0.79510   0.00000  Uiso   1.00
O1127  O     0.83334   0.89441   0.87157   0.00000  Uiso   1.00
O1128  O     0.75725   0.83333   0.86261   0.00000  Uiso   1.00
O1129  O     0.90942   0.83334   0.80405   0.00000  Uiso   1.00
O1130  O     0.75725   0.83334   0.78617   0.00000  Uiso   1.00
O1131  O     0.90942   0.83333   0.88050   0.00000  Uiso   1.00
O1132  O     0.96324   0.76592   0.78722   0.00000  Uiso   1.00
Zn1133 Zn    0.83333   0.83333   0.88437   0.00000  Uiso   1.00
Zn1134 Zn    0.83333   0.83334   0.78229   0.00000  Uiso   1.00
loop_
_geom_bond_atom_site_label_1
_geom_bond_atom_site_label_2
_geom_bond_distance
_geom_bond_site_symmetry_2
_ccdc_geom_bond_type
C1     C4      1.422   .     S
C1     O34     1.295   .     A
C1     O31     1.294   .     A
C2     C4      1.398   .     A
C2     H22     1.082   .     S
C2     C269    1.369   1_545 S
C3     C18     1.398   .     A
C3     C17     1.397   .     A
C3     C11     1.422   .     S
C4     C16     1.397   .     A
C5     I25     2.139   .     S
C5     N30     1.376   .     A
C5     C763    1.429   1_554 S
C6     I26     2.139   .     S
C6     N29     1.376   .     A
C6     C386    1.429   .     S
C7     N29     1.376   .     A
C7     I27     2.131   .     S
C7     C383    1.429   .     S
C8     N30     1.376   .     A
C8     I28     2.131   .     S
C8     C762    1.429   1_554 S
C9     H23     1.083   .     S
C9     O40     1.222   .     D
C9     C56     1.491   .     S
C10    O32     1.222   .     D
C10    H24     1.083   .     S
C10    C99     1.491   1_455 S
C11    O33     1.294   .     A
C11    O35     1.295   .     A
C12    O36     1.284   .     A
C12    C14     1.413   .     S
C12    O38     1.296   .     A
C13    O37     1.284   .     A
C13    C15     1.413   .     S
C13    O39     1.296   .     A
C14    C93     1.491   1_455 S
C14    C99     1.359   1_455 S
C15    C52     1.491   .     S
C15    C56     1.359   .     S
C16    H19     1.083   .     S
C16    C270    1.369   1_545 S
C17    H20     1.083   .     S
C17    C128    1.369   .     S
C18    H21     1.082   .     S
C18    C142    1.369   .     S
N29    Zn41    2.036   .     S
N30    Zn42    2.036   .     S
O31    Zn41    2.001   .     S
O33    Zn42    2.001   .     S
O34    Zn42    2.002   .     S
O35    Zn41    2.002   .     S
O36    Zn41    1.984   .     S
O37    Zn42    1.984   .     S
O38    Zn42    1.997   .     S
O39    Zn41    1.997   .     S
C43    C46     1.422   .     S
C43    O76     1.295   .     A
C43    O73     1.294   .     A
C44    C46     1.398   .     A
C44    H64     1.082   .     S
C44    C311    1.369   1_545 S
C45    C60     1.398   .     A
C45    C59     1.397   .     A
C45    C53     1.422   .     S
C46    C58     1.397   .     A
C47    I67     2.139   .     S
C47    N72     1.376   .     A
C47    C805    1.429   1_554 S
C48    I68     2.139   .     S
C48    N71     1.376   .     A
C48    C428    1.429   .     S
C49    N71     1.376   .     A
C49    I69     2.131   .     S
C49    C425    1.429   .     S
C50    N72     1.376   .     A
C50    I70     2.131   .     S
C50    C804    1.429   1_554 S
C51    H65     1.083   .     S
C51    O82     1.222   .     D
C51    C98     1.491   .     S
C52    O74     1.222   .     D
C52    H66     1.083   .     S
C53    O75     1.294   .     A
C53    O77     1.295   .     A
C54    O78     1.284   .     A
C54    C56     1.413   .     S
C54    O80     1.296   .     A
C55    O79     1.284   .     A
C55    C57     1.413   .     S
C55    O81     1.296   .     A
C57    C94     1.491   .     S
C57    C98     1.359   .     S
C58    H61     1.083   .     S
C58    C312    1.369   1_545 S
C59    H62     1.083   .     S
C59    C170    1.369   .     S
C60    H63     1.082   .     S
C60    C184    1.369   .     S
N71    Zn83    2.036   .     S
N72    Zn84    2.036   .     S
O73    Zn83    2.001   .     S
O75    Zn84    2.001   .     S
O76    Zn84    2.002   .     S
O77    Zn83    2.002   .     S
O78    Zn83    1.984   .     S
O79    Zn84    1.984   .     S
O80    Zn84    1.997   .     S
O81    Zn83    1.997   .     S
C85    C88     1.422   .     S
C85    O118    1.295   .     A
C85    O115    1.294   .     A
C86    C88     1.398   .     A
C86    H106    1.082   .     S
C86    C353    1.369   1_545 S
C87    C102    1.398   .     A
C87    C101    1.397   .     A
C87    C95     1.422   .     S
C88    C100    1.397   .     A
C89    I109    2.139   .     S
C89    N114    1.376   .     A
C89    C847    1.429   1_554 S
C90    I110    2.139   .     S
C90    N113    1.376   .     A
C90    C470    1.429   .     S
C91    N113    1.376   .     A
C91    I111    2.131   .     S
C91    C467    1.429   .     S
C92    N114    1.376   .     A
C92    I112    2.131   .     S
C92    C846    1.429   1_554 S
C93    H107    1.083   .     S
C93    O124    1.222   .     D
C93    C14     1.491   1_655 S
C94    O116    1.222   .     D
C94    H108    1.083   .     S
C95    O117    1.294   .     A
C95    O119    1.295   .     A
C96    O120    1.284   .     A
C96    C98     1.413   .     S
C96    O122    1.296   .     A
C97    O121    1.284   .     A
C97    C99     1.413   .     S
C97    O123    1.296   .     A
C99    C10     1.491   1_655 S
C99    C14     1.359   1_655 S
C100   H103    1.083   .     S
C100   C354    1.369   1_545 S
C101   H104    1.083   .     S
C101   C212    1.369   .     S
C102   H105    1.082   .     S
C102   C226    1.369   .     S
N113   Zn125   2.036   .     S
N114   Zn126   2.036   .     S
O115   Zn125   2.001   .     S
O117   Zn126   2.001   .     S
O118   Zn126   2.002   .     S
O119   Zn125   2.002   .     S
O120   Zn125   1.984   .     S
O121   Zn126   1.984   .     S
O122   Zn126   1.997   .     S
O123   Zn125   1.997   .     S
C127   C130    1.422   .     S
C127   O160    1.295   .     A
C127   O157    1.294   .     A
C128   C130    1.398   .     A
C128   H148    1.082   .     S
C129   C144    1.398   .     A
C129   C143    1.397   .     A
C129   C137    1.422   .     S
C130   C142    1.397   .     A
C131   I151    2.139   .     S
C131   N156    1.376   .     A
C131   C889    1.429   1_554 S
C132   I152    2.139   .     S
C132   N155    1.376   .     A
C132   C512    1.429   .     S
C133   N155    1.376   .     A
C133   I153    2.131   .     S
C133   C509    1.429   .     S
C134   N156    1.376   .     A
C134   I154    2.131   .     S
C134   C888    1.429   1_554 S
C135   H149    1.083   .     S
C135   O166    1.222   .     D
C135   C182    1.491   .     S
C136   O158    1.222   .     D
C136   H150    1.083   .     S
C136   C225    1.491   1_455 S
C137   O159    1.294   .     A
C137   O161    1.295   .     A
C138   O162    1.284   .     A
C138   C140    1.413   .     S
C138   O164    1.296   .     A
C139   O163    1.284   .     A
C139   C141    1.413   .     S
C139   O165    1.296   .     A
C140   C219    1.491   1_455 S
C140   C225    1.359   1_455 S
C141   C178    1.491   .     S
C141   C182    1.359   .     S
C142   H145    1.083   .     S
C143   H146    1.083   .     S
C143   C254    1.369   .     S
C144   H147    1.082   .     S
C144   C268    1.369   .     S
N155   Zn167   2.036   .     S
N156   Zn168   2.036   .     S
O157   Zn167   2.001   .     S
O159   Zn168   2.001   .     S
O160   Zn168   2.002   .     S
O161   Zn167   2.002   .     S
O162   Zn167   1.984   .     S
O163   Zn168   1.984   .     S
O164   Zn168   1.997   .     S
O165   Zn167   1.997   .     S
C169   C172    1.422   .     S
C169   O202    1.295   .     A
C169   O199    1.294   .     A
C170   C172    1.398   .     A
C170   H190    1.082   .     S
C171   C186    1.398   .     A
C171   C185    1.397   .     A
C171   C179    1.422   .     S
C172   C184    1.397   .     A
C173   I193    2.139   .     S
C173   N198    1.376   .     A
C173   C931    1.429   1_554 S
C174   I194    2.139   .     S
C174   N197    1.376   .     A
C174   C554    1.429   .     S
C175   N197    1.376   .     A
C175   I195    2.131   .     S
C175   C551    1.429   .     S
C176   N198    1.376   .     A
C176   I196    2.131   .     S
C176   C930    1.429   1_554 S
C177   H191    1.083   .     S
C177   O208    1.222   .     D
C177   C224    1.491   .     S
C178   O200    1.222   .     D
C178   H192    1.083   .     S
C179   O201    1.294   .     A
C179   O203    1.295   .     A
C180   O204    1.284   .     A
C180   C182    1.413   .     S
C180   O206    1.296   .     A
C181   O205    1.284   .     A
C181   C183    1.413   .     S
C181   O207    1.296   .     A
C183   C220    1.491   .     S
C183   C224    1.359   .     S
C184   H187    1.083   .     S
C185   H188    1.083   .     S
C185   C296    1.369   .     S
C186   H189    1.082   .     S
C186   C310    1.369   .     S
N197   Zn209   2.036   .     S
N198   Zn210   2.036   .     S
O199   Zn209   2.001   .     S
O201   Zn210   2.001   .     S
O202   Zn210   2.002   .     S
O203   Zn209   2.002   .     S
O204   Zn209   1.984   .     S
O205   Zn210   1.984   .     S
O206   Zn210   1.997   .     S
O207   Zn209   1.997   .     S
C211   C214    1.422   .     S
C211   O244    1.295   .     A
C211   O241    1.294   .     A
C212   C214    1.398   .     A
C212   H232    1.082   .     S
C213   C228    1.398   .     A
C213   C227    1.397   .     A
C213   C221    1.422   .     S
C214   C226    1.397   .     A
C215   I235    2.139   .     S
C215   N240    1.376   .     A
C215   C973    1.429   1_554 S
C216   I236    2.139   .     S
C216   N239    1.376   .     A
C216   C596    1.429   .     S
C217   N239    1.376   .     A
C217   I237    2.131   .     S
C217   C593    1.429   .     S
C218   N240    1.376   .     A
C218   I238    2.131   .     S
C218   C972    1.429   1_554 S
C219   H233    1.083   .     S
C219   O250    1.222   .     D
C219   C140    1.491   1_655 S
C220   O242    1.222   .     D
C220   H234    1.083   .     S
C221   O243    1.294   .     A
C221   O245    1.295   .     A
C222   O246    1.284   .     A
C222   C224    1.413   .     S
C222   O248    1.296   .     A
C223   O247    1.284   .     A
C223   C225    1.413   .     S
C223   O249    1.296   .     A
C225   C136    1.491   1_655 S
C225   C140    1.359   1_655 S
C226   H229    1.083   .     S
C227   H230    1.083   .     S
C227   C338    1.369   .     S
C228   H231    1.082   .     S
C228   C352    1.369   .     S
N239   Zn251   2.036   .     S
N240   Zn252   2.036   .     S
O241   Zn251   2.001   .     S
O243   Zn252   2.001   .     S
O244   Zn252   2.002   .     S
O245   Zn251   2.002   .     S
O246   Zn251   1.984   .     S
O247   Zn252   1.984   .     S
O248   Zn252   1.997   .     S
O249   Zn251   1.997   .     S
C253   C256    1.422   .     S
C253   O286    1.295   .     A
C253   O283    1.294   .     A
C254   C256    1.398   .     A
C254   H274    1.082   .     S
C255   C270    1.398   .     A
C255   C269    1.397   .     A
C255   C263    1.422   .     S
C256   C268    1.397   .     A
C257   I277    2.139   .     S
C257   N282    1.376   .     A
C257   C1015   1.429   1_554 S
C258   I278    2.139   .     S
C258   N281    1.376   .     A
C258   C638    1.429   .     S
C259   N281    1.376   .     A
C259   I279    2.131   .     S
C259   C635    1.429   .     S
C260   N282    1.376   .     A
C260   I280    2.131   .     S
C260   C1014   1.429   1_554 S
C261   H275    1.083   .     S
C261   O292    1.222   .     D
C261   C308    1.491   .     S
C262   O284    1.222   .     D
C262   H276    1.083   .     S
C262   C351    1.491   1_455 S
C263   O285    1.294   .     A
C263   O287    1.295   .     A
C264   O288    1.284   .     A
C264   C266    1.413   .     S
C264   O290    1.296   .     A
C265   O289    1.284   .     A
C265   C267    1.413   .     S
C265   O291    1.296   .     A
C266   C345    1.491   1_455 S
C266   C351    1.359   1_455 S
C267   C304    1.491   .     S
C267   C308    1.359   .     S
C268   H271    1.083   .     S
C269   H272    1.083   .     S
C269   C2      1.369   1_565 S
C270   H273    1.082   .     S
C270   C16     1.369   1_565 S
N281   Zn293   2.036   .     S
N282   Zn294   2.036   .     S
O283   Zn293   2.001   .     S
O285   Zn294   2.001   .     S
O286   Zn294   2.002   .     S
O287   Zn293   2.002   .     S
O288   Zn293   1.984   .     S
O289   Zn294   1.984   .     S
O290   Zn294   1.997   .     S
O291   Zn293   1.997   .     S
C295   C298    1.422   .     S
C295   O328    1.295   .     A
C295   O325    1.294   .     A
C296   C298    1.398   .     A
C296   H316    1.082   .     S
C297   C312    1.398   .     A
C297   C311    1.397   .     A
C297   C305    1.422   .     S
C298   C310    1.397   .     A
C299   I319    2.139   .     S
C299   N324    1.376   .     A
C299   C1057   1.429   1_554 S
C300   I320    2.139   .     S
C300   N323    1.376   .     A
C300   C680    1.429   .     S
C301   N323    1.376   .     A
C301   I321    2.131   .     S
C301   C677    1.429   .     S
C302   N324    1.376   .     A
C302   I322    2.131   .     S
C302   C1056   1.429   1_554 S
C303   H317    1.083   .     S
C303   O334    1.222   .     D
C303   C350    1.491   .     S
C304   O326    1.222   .     D
C304   H318    1.083   .     S
C305   O327    1.294   .     A
C305   O329    1.295   .     A
C306   O330    1.284   .     A
C306   C308    1.413   .     S
C306   O332    1.296   .     A
C307   O331    1.284   .     A
C307   C309    1.413   .     S
C307   O333    1.296   .     A
C309   C346    1.491   .     S
C309   C350    1.359   .     S
C310   H313    1.083   .     S
C311   H314    1.083   .     S
C311   C44     1.369   1_565 S
C312   H315    1.082   .     S
C312   C58     1.369   1_565 S
N323   Zn335   2.036   .     S
N324   Zn336   2.036   .     S
O325   Zn335   2.001   .     S
O327   Zn336   2.001   .     S
O328   Zn336   2.002   .     S
O329   Zn335   2.002   .     S
O330   Zn335   1.984   .     S
O331   Zn336   1.984   .     S
O332   Zn336   1.997   .     S
O333   Zn335   1.997   .     S
C337   C340    1.422   .     S
C337   O370    1.295   .     A
C337   O367    1.294   .     A
C338   C340    1.398   .     A
C338   H358    1.082   .     S
C339   C354    1.398   .     A
C339   C353    1.397   .     A
C339   C347    1.422   .     S
C340   C352    1.397   .     A
C341   I361    2.139   .     S
C341   N366    1.376   .     A
C341   C1099   1.429   1_554 S
C342   I362    2.139   .     S
C342   N365    1.376   .     A
C342   C722    1.429   .     S
C343   N365    1.376   .     A
C343   I363    2.131   .     S
C343   C719    1.429   .     S
C344   N366    1.376   .     A
C344   I364    2.131   .     S
C344   C1098   1.429   1_554 S
C345   H359    1.083   .     S
C345   O376    1.222   .     D
C345   C266    1.491   1_655 S
C346   O368    1.222   .     D
C346   H360    1.083   .     S
C347   O369    1.294   .     A
C347   O371    1.295   .     A
C348   O372    1.284   .     A
C348   C350    1.413   .     S
C348   O374    1.296   .     A
C349   O373    1.284   .     A
C349   C351    1.413   .     S
C349   O375    1.296   .     A
C351   C262    1.491   1_655 S
C351   C266    1.359   1_655 S
C352   H355    1.083   .     S
C353   H356    1.083   .     S
C353   C86     1.369   1_565 S
C354   H357    1.082   .     S
C354   C100    1.369   1_565 S
N365   Zn377   2.036   .     S
N366   Zn378   2.036   .     S
O367   Zn377   2.001   .     S
O369   Zn378   2.001   .     S
O370   Zn378   2.002   .     S
O371   Zn377   2.002   .     S
O372   Zn377   1.984   .     S
O373   Zn378   1.984   .     S
O374   Zn378   1.997   .     S
O375   Zn377   1.997   .     S
C379   C382    1.422   .     S
C379   O412    1.295   .     A
C379   O409    1.294   .     A
C380   C382    1.398   .     A
C380   H400    1.082   .     S
C380   C647    1.369   1_545 S
C381   C396    1.398   .     A
C381   C395    1.397   .     A
C381   C389    1.422   .     S
C382   C394    1.397   .     A
C383   I403    2.139   .     S
C383   N408    1.376   .     A
C384   I404    2.139   .     S
C384   N407    1.376   .     A
C384   C764    1.429   .     S
C385   N407    1.376   .     A
C385   I405    2.131   .     S
C385   C761    1.429   .     S
C386   N408    1.376   .     A
C386   I406    2.131   .     S
C387   H401    1.083   .     S
C387   O418    1.222   .     D
C387   C434    1.491   .     S
C388   O410    1.222   .     D
C388   H402    1.083   .     S
C388   C477    1.491   1_455 S
C389   O411    1.294   .     A
C389   O413    1.295   .     A
C390   O414    1.284   .     A
C390   C392    1.413   .     S
C390   O416    1.296   .     A
C391   O415    1.284   .     A
C391   C393    1.413   .     S
C391   O417    1.296   .     A
C392   C471    1.491   1_455 S
C392   C477    1.359   1_455 S
C393   C430    1.491   .     S
C393   C434    1.359   .     S
C394   H397    1.083   .     S
C394   C648    1.369   1_545 S
C395   H398    1.083   .     S
C395   C506    1.369   .     S
C396   H399    1.082   .     S
C396   C520    1.369   .     S
N407   Zn419   2.036   .     S
N408   Zn420   2.036   .     S
O409   Zn419   2.001   .     S
O411   Zn420   2.001   .     S
O412   Zn420   2.002   .     S
O413   Zn419   2.002   .     S
O414   Zn419   1.984   .     S
O415   Zn420   1.984   .     S
O416   Zn420   1.997   .     S
O417   Zn419   1.997   .     S
C421   C424    1.422   .     S
C421   O454    1.295   .     A
C421   O451    1.294   .     A
C422   C424    1.398   .     A
C422   H442    1.082   .     S
C422   C689    1.369   1_545 S
C423   C438    1.398   .     A
C423   C437    1.397   .     A
C423   C431    1.422   .     S
C424   C436    1.397   .     A
C425   I445    2.139   .     S
C425   N450    1.376   .     A
C426   I446    2.139   .     S
C426   N449    1.376   .     A
C426   C806    1.429   .     S
C427   N449    1.376   .     A
C427   I447    2.131   .     S
C427   C803    1.429   .     S
C428   N450    1.376   .     A
C428   I448    2.131   .     S
C429   H443    1.083   .     S
C429   O460    1.222   .     D
C429   C476    1.491   .     S
C430   O452    1.222   .     D
C430   H444    1.083   .     S
C431   O453    1.294   .     A
C431   O455    1.295   .     A
C432   O456    1.284   .     A
C432   C434    1.413   .     S
C432   O458    1.296   .     A
C433   O457    1.284   .     A
C433   C435    1.413   .     S
C433   O459    1.296   .     A
C435   C472    1.491   .     S
C435   C476    1.359   .     S
C436   H439    1.083   .     S
C436   C690    1.369   1_545 S
C437   H440    1.083   .     S
C437   C548    1.369   .     S
C438   H441    1.082   .     S
C438   C562    1.369   .     S
N449   Zn461   2.036   .     S
N450   Zn462   2.036   .     S
O451   Zn461   2.001   .     S
O453   Zn462   2.001   .     S
O454   Zn462   2.002   .     S
O455   Zn461   2.002   .     S
O456   Zn461   1.984   .     S
O457   Zn462   1.984   .     S
O458   Zn462   1.997   .     S
O459   Zn461   1.997   .     S
C463   C466    1.422   .     S
C463   O496    1.295   .     A
C463   O493    1.294   .     A
C464   C466    1.398   .     A
C464   H484    1.082   .     S
C464   C731    1.369   1_545 S
C465   C480    1.398   .     A
C465   C479    1.397   .     A
C465   C473    1.422   .     S
C466   C478    1.397   .     A
C467   I487    2.139   .     S
C467   N492    1.376   .     A
C468   I488    2.139   .     S
C468   N491    1.376   .     A
C468   C848    1.429   .     S
C469   N491    1.376   .     A
C469   I489    2.131   .     S
C469   C845    1.429   .     S
C470   N492    1.376   .     A
C470   I490    2.131   .     S
C471   H485    1.083   .     S
C471   O502    1.222   .     D
C471   C392    1.491   1_655 S
C472   O494    1.222   .     D
C472   H486    1.083   .     S
C473   O495    1.294   .     A
C473   O497    1.295   .     A
C474   O498    1.284   .     A
C474   C476    1.413   .     S
C474   O500    1.296   .     A
C475   O499    1.284   .     A
C475   C477    1.413   .     S
C475   O501    1.296   .     A
C477   C388    1.491   1_655 S
C477   C392    1.359   1_655 S
C478   H481    1.083   .     S
C478   C732    1.369   1_545 S
C479   H482    1.083   .     S
C479   C590    1.369   .     S
C480   H483    1.082   .     S
C480   C604    1.369   .     S
N491   Zn503   2.036   .     S
N492   Zn504   2.036   .     S
O493   Zn503   2.001   .     S
O495   Zn504   2.001   .     S
O496   Zn504   2.002   .     S
O497   Zn503   2.002   .     S
O498   Zn503   1.984   .     S
O499   Zn504   1.984   .     S
O500   Zn504   1.997   .     S
O501   Zn503   1.997   .     S
C505   C508    1.422   .     S
C505   O538    1.295   .     A
C505   O535    1.294   .     A
C506   C508    1.398   .     A
C506   H526    1.082   .     S
C507   C522    1.398   .     A
C507   C521    1.397   .     A
C507   C515    1.422   .     S
C508   C520    1.397   .     A
C509   I529    2.139   .     S
C509   N534    1.376   .     A
C510   I530    2.139   .     S
C510   N533    1.376   .     A
C510   C890    1.429   .     S
C511   N533    1.376   .     A
C511   I531    2.131   .     S
C511   C887    1.429   .     S
C512   N534    1.376   .     A
C512   I532    2.131   .     S
C513   H527    1.083   .     S
C513   O544    1.222   .     D
C513   C560    1.491   .     S
C514   O536    1.222   .     D
C514   H528    1.083   .     S
C514   C603    1.491   1_455 S
C515   O537    1.294   .     A
C515   O539    1.295   .     A
C516   O540    1.284   .     A
C516   C518    1.413   .     S
C516   O542    1.296   .     A
C517   O541    1.284   .     A
C517   C519    1.413   .     S
C517   O543    1.296   .     A
C518   C597    1.491   1_455 S
C518   C603    1.359   1_455 S
C519   C556    1.491   .     S
C519   C560    1.359   .     S
C520   H523    1.083   .     S
C521   H524    1.083   .     S
C521   C632    1.369   .     S
C522   H525    1.082   .     S
C522   C646    1.369   .     S
N533   Zn545   2.036   .     S
N534   Zn546   2.036   .     S
O535   Zn545   2.001   .     S
O537   Zn546   2.001   .     S
O538   Zn546   2.002   .     S
O539   Zn545   2.002   .     S
O540   Zn545   1.984   .     S
O541   Zn546   1.984   .     S
O542   Zn546   1.997   .     S
O543   Zn545   1.997   .     S
C547   C550    1.422   .     S
C547   O580    1.295   .     A
C547   O577    1.294   .     A
C548   C550    1.398   .     A
C548   H568    1.082   .     S
C549   C564    1.398   .     A
C549   C563    1.397   .     A
C549   C557    1.422   .     S
C550   C562    1.397   .     A
C551   I571    2.139   .     S
C551   N576    1.376   .     A
C552   I572    2.139   .     S
C552   N575    1.376   .     A
C552   C932    1.429   .     S
C553   N575    1.376   .     A
C553   I573    2.131   .     S
C553   C929    1.429   .     S
C554   N576    1.376   .     A
C554   I574    2.131   .     S
C555   H569    1.083   .     S
C555   O586    1.222   .     D
C555   C602    1.491   .     S
C556   O578    1.222   .     D
C556   H570    1.083   .     S
C557   O579    1.294   .     A
C557   O581    1.295   .     A
C558   O582    1.284   .     A
C558   C560    1.413   .     S
C558   O584    1.296   .     A
C559   O583    1.284   .     A
C559   C561    1.413   .     S
C559   O585    1.296   .     A
C561   C598    1.491   .     S
C561   C602    1.359   .     S
C562   H565    1.083   .     S
C563   H566    1.083   .     S
C563   C674    1.369   .     S
C564   H567    1.082   .     S
C564   C688    1.369   .     S
N575   Zn587   2.036   .     S
N576   Zn588   2.036   .     S
O577   Zn587   2.001   .     S
O579   Zn588   2.001   .     S
O580   Zn588   2.002   .     S
O581   Zn587   2.002   .     S
O582   Zn587   1.984   .     S
O583   Zn588   1.984   .     S
O584   Zn588   1.997   .     S
O585   Zn587   1.997   .     S
C589   C592    1.422   .     S
C589   O622    1.295   .     A
C589   O619    1.294   .     A
C590   C592    1.398   .     A
C590   H610    1.082   .     S
C591   C606    1.398   .     A
C591   C605    1.397   .     A
C591   C599    1.422   .     S
C592   C604    1.397   .     A
C593   I613    2.139   .     S
C593   N618    1.376   .     A
C594   I614    2.139   .     S
C594   N617    1.376   .     A
C594   C974    1.429   .     S
C595   N617    1.376   .     A
C595   I615    2.131   .     S
C595   C971    1.429   .     S
C596   N618    1.376   .     A
C596   I616    2.131   .     S
C597   H611    1.083   .     S
C597   O628    1.222   .     D
C597   C518    1.491   1_655 S
C598   O620    1.222   .     D
C598   H612    1.083   .     S
C599   O621    1.294   .     A
C599   O623    1.295   .     A
C600   O624    1.284   .     A
C600   C602    1.413   .     S
C600   O626    1.296   .     A
C601   O625    1.284   .     A
C601   C603    1.413   .     S
C601   O627    1.296   .     A
C603   C514    1.491   1_655 S
C603   C518    1.359   1_655 S
C604   H607    1.083   .     S
C605   H608    1.083   .     S
C605   C716    1.369   .     S
C606   H609    1.082   .     S
C606   C730    1.369   .     S
N617   Zn629   2.036   .     S
N618   Zn630   2.036   .     S
O619   Zn629   2.001   .     S
O621   Zn630   2.001   .     S
O622   Zn630   2.002   .     S
O623   Zn629   2.002   .     S
O624   Zn629   1.984   .     S
O625   Zn630   1.984   .     S
O626   Zn630   1.997   .     S
O627   Zn629   1.997   .     S
C631   C634    1.422   .     S
C631   O664    1.295   .     A
C631   O661    1.294   .     A
C632   C634    1.398   .     A
C632   H652    1.082   .     S
C633   C648    1.398   .     A
C633   C647    1.397   .     A
C633   C641    1.422   .     S
C634   C646    1.397   .     A
C635   I655    2.139   .     S
C635   N660    1.376   .     A
C636   I656    2.139   .     S
C636   N659    1.376   .     A
C636   C1016   1.429   .     S
C637   N659    1.376   .     A
C637   I657    2.131   .     S
C637   C1013   1.429   .     S
C638   N660    1.376   .     A
C638   I658    2.131   .     S
C639   H653    1.083   .     S
C639   O670    1.222   .     D
C639   C686    1.491   .     S
C640   O662    1.222   .     D
C640   H654    1.083   .     S
C640   C729    1.491   1_455 S
C641   O663    1.294   .     A
C641   O665    1.295   .     A
C642   O666    1.284   .     A
C642   C644    1.413   .     S
C642   O668    1.296   .     A
C643   O667    1.284   .     A
C643   C645    1.413   .     S
C643   O669    1.296   .     A
C644   C723    1.491   1_455 S
C644   C729    1.359   1_455 S
C645   C682    1.491   .     S
C645   C686    1.359   .     S
C646   H649    1.083   .     S
C647   H650    1.083   .     S
C647   C380    1.369   1_565 S
C648   H651    1.082   .     S
C648   C394    1.369   1_565 S
N659   Zn671   2.036   .     S
N660   Zn672   2.036   .     S
O661   Zn671   2.001   .     S
O663   Zn672   2.001   .     S
O664   Zn672   2.002   .     S
O665   Zn671   2.002   .     S
O666   Zn671   1.984   .     S
O667   Zn672   1.984   .     S
O668   Zn672   1.997   .     S
O669   Zn671   1.997   .     S
C673   C676    1.422   .     S
C673   O706    1.295   .     A
C673   O703    1.294   .     A
C674   C676    1.398   .     A
C674   H694    1.082   .     S
C675   C690    1.398   .     A
C675   C689    1.397   .     A
C675   C683    1.422   .     S
C676   C688    1.397   .     A
C677   I697    2.139   .     S
C677   N702    1.376   .     A
C678   I698    2.139   .     S
C678   N701    1.376   .     A
C678   C1058   1.429   .     S
C679   N701    1.376   .     A
C679   I699    2.131   .     S
C679   C1055   1.429   .     S
C680   N702    1.376   .     A
C680   I700    2.131   .     S
C681   H695    1.083   .     S
C681   O712    1.222   .     D
C681   C728    1.491   .     S
C682   O704    1.222   .     D
C682   H696    1.083   .     S
C683   O705    1.294   .     A
C683   O707    1.295   .     A
C684   O708    1.284   .     A
C684   C686    1.413   .     S
C684   O710    1.296   .     A
C685   O709    1.284   .     A
C685   C687    1.413   .     S
C685   O711    1.296   .     A
C687   C724    1.491   .     S
C687   C728    1.359   .     S
C688   H691    1.083   .     S
C689   H692    1.083   .     S
C689   C422    1.369   1_565 S
C690   H693    1.082   .     S
C690   C436    1.369   1_565 S
N701   Zn713   2.036   .     S
N702   Zn714   2.036   .     S
O703   Zn713   2.001   .     S
O705   Zn714   2.001   .     S
O706   Zn714   2.002   .     S
O707   Zn713   2.002   .     S
O708   Zn713   1.984   .     S
O709   Zn714   1.984   .     S
O710   Zn714   1.997   .     S
O711   Zn713   1.997   .     S
C715   C718    1.422   .     S
C715   O748    1.295   .     A
C715   O745    1.294   .     A
C716   C718    1.398   .     A
C716   H736    1.082   .     S
C717   C732    1.398   .     A
C717   C731    1.397   .     A
C717   C725    1.422   .     S
C718   C730    1.397   .     A
C719   I739    2.139   .     S
C719   N744    1.376   .     A
C720   I740    2.139   .     S
C720   N743    1.376   .     A
C720   C1100   1.429   .     S
C721   N743    1.376   .     A
C721   I741    2.131   .     S
C721   C1097   1.429   .     S
C722   N744    1.376   .     A
C722   I742    2.131   .     S
C723   H737    1.083   .     S
C723   O754    1.222   .     D
C723   C644    1.491   1_655 S
C724   O746    1.222   .     D
C724   H738    1.083   .     S
C725   O747    1.294   .     A
C725   O749    1.295   .     A
C726   O750    1.284   .     A
C726   C728    1.413   .     S
C726   O752    1.296   .     A
C727   O751    1.284   .     A
C727   C729    1.413   .     S
C727   O753    1.296   .     A
C729   C640    1.491   1_655 S
C729   C644    1.359   1_655 S
C730   H733    1.083   .     S
C731   H734    1.083   .     S
C731   C464    1.369   1_565 S
C732   H735    1.082   .     S
C732   C478    1.369   1_565 S
N743   Zn755   2.036   .     S
N744   Zn756   2.036   .     S
O745   Zn755   2.001   .     S
O747   Zn756   2.001   .     S
O748   Zn756   2.002   .     S
O749   Zn755   2.002   .     S
O750   Zn755   1.984   .     S
O751   Zn756   1.984   .     S
O752   Zn756   1.997   .     S
O753   Zn755   1.997   .     S
C757   C760    1.422   .     S
C757   O790    1.295   .     A
C757   O787    1.294   .     A
C758   C760    1.398   .     A
C758   H778    1.082   .     S
C758   C1025   1.369   1_545 S
C759   C774    1.398   .     A
C759   C773    1.397   .     A
C759   C767    1.422   .     S
C760   C772    1.397   .     A
C761   I781    2.139   .     S
C761   N786    1.376   .     A
C762   I782    2.139   .     S
C762   N785    1.376   .     A
C762   C8      1.429   1_556 S
C763   N785    1.376   .     A
C763   I783    2.131   .     S
C763   C5      1.429   1_556 S
C764   N786    1.376   .     A
C764   I784    2.131   .     S
C765   H779    1.083   .     S
C765   O796    1.222   .     D
C765   C812    1.491   .     S
C766   O788    1.222   .     D
C766   H780    1.083   .     S
C766   C855    1.491   1_455 S
C767   O789    1.294   .     A
C767   O791    1.295   .     A
C768   O792    1.284   .     A
C768   C770    1.413   .     S
C768   O794    1.296   .     A
C769   O793    1.284   .     A
C769   C771    1.413   .     S
C769   O795    1.296   .     A
C770   C849    1.491   1_455 S
C770   C855    1.359   1_455 S
C771   C808    1.491   .     S
C771   C812    1.359   .     S
C772   H775    1.083   .     S
C772   C1026   1.369   1_545 S
C773   H776    1.083   .     S
C773   C884    1.369   .     S
C774   H777    1.082   .     S
C774   C898    1.369   .     S
N785   Zn797   2.036   .     S
N786   Zn798   2.036   .     S
O787   Zn797   2.001   .     S
O789   Zn798   2.001   .     S
O790   Zn798   2.002   .     S
O791   Zn797   2.002   .     S
O792   Zn797   1.984   .     S
O793   Zn798   1.984   .     S
O794   Zn798   1.997   .     S
O795   Zn797   1.997   .     S
C799   C802    1.422   .     S
C799   O832    1.295   .     A
C799   O829    1.294   .     A
C800   C802    1.398   .     A
C800   H820    1.082   .     S
C800   C1067   1.369   1_545 S
C801   C816    1.398   .     A
C801   C815    1.397   .     A
C801   C809    1.422   .     S
C802   C814    1.397   .     A
C803   I823    2.139   .     S
C803   N828    1.376   .     A
C804   I824    2.139   .     S
C804   N827    1.376   .     A
C804   C50     1.429   1_556 S
C805   N827    1.376   .     A
C805   I825    2.131   .     S
C805   C47     1.429   1_556 S
C806   N828    1.376   .     A
C806   I826    2.131   .     S
C807   H821    1.083   .     S
C807   O838    1.222   .     D
C807   C854    1.491   .     S
C808   O830    1.222   .     D
C808   H822    1.083   .     S
C809   O831    1.294   .     A
C809   O833    1.295   .     A
C810   O834    1.284   .     A
C810   C812    1.413   .     S
C810   O836    1.296   .     A
C811   O835    1.284   .     A
C811   C813    1.413   .     S
C811   O837    1.296   .     A
C813   C850    1.491   .     S
C813   C854    1.359   .     S
C814   H817    1.083   .     S
C814   C1068   1.369   1_545 S
C815   H818    1.083   .     S
C815   C926    1.369   .     S
C816   H819    1.082   .     S
C816   C940    1.369   .     S
N827   Zn839   2.036   .     S
N828   Zn840   2.036   .     S
O829   Zn839   2.001   .     S
O831   Zn840   2.001   .     S
O832   Zn840   2.002   .     S
O833   Zn839   2.002   .     S
O834   Zn839   1.984   .     S
O835   Zn840   1.984   .     S
O836   Zn840   1.997   .     S
O837   Zn839   1.997   .     S
C841   C844    1.422   .     S
C841   O874    1.295   .     A
C841   O871    1.294   .     A
C842   C844    1.398   .     A
C842   H862    1.082   .     S
C842   C1109   1.369   1_545 S
C843   C858    1.398   .     A
C843   C857    1.397   .     A
C843   C851    1.422   .     S
C844   C856    1.397   .     A
C845   I865    2.139   .     S
C845   N870    1.376   .     A
C846   I866    2.139   .     S
C846   N869    1.376   .     A
C846   C92     1.429   1_556 S
C847   N869    1.376   .     A
C847   I867    2.131   .     S
C847   C89     1.429   1_556 S
C848   N870    1.376   .     A
C848   I868    2.131   .     S
C849   H863    1.083   .     S
C849   O880    1.222   .     D
C849   C770    1.491   1_655 S
C850   O872    1.222   .     D
C850   H864    1.083   .     S
C851   O873    1.294   .     A
C851   O875    1.295   .     A
C852   O876    1.284   .     A
C852   C854    1.413   .     S
C852   O878    1.296   .     A
C853   O877    1.284   .     A
C853   C855    1.413   .     S
C853   O879    1.296   .     A
C855   C766    1.491   1_655 S
C855   C770    1.359   1_655 S
C856   H859    1.083   .     S
C856   C1110   1.369   1_545 S
C857   H860    1.083   .     S
C857   C968    1.369   .     S
C858   H861    1.082   .     S
C858   C982    1.369   .     S
N869   Zn881   2.036   .     S
N870   Zn882   2.036   .     S
O871   Zn881   2.001   .     S
O873   Zn882   2.001   .     S
O874   Zn882   2.002   .     S
O875   Zn881   2.002   .     S
O876   Zn881   1.984   .     S
O877   Zn882   1.984   .     S
O878   Zn882   1.997   .     S
O879   Zn881   1.997   .     S
C883   C886    1.422   .     S
C883   O916    1.295   .     A
C883   O913    1.294   .     A
C884   C886    1.398   .     A
C884   H904    1.082   .     S
C885   C900    1.398   .     A
C885   C899    1.397   .     A
C885   C893    1.422   .     S
C886   C898    1.397   .     A
C887   I907    2.139   .     S
C887   N912    1.376   .     A
C888   I908    2.139   .     S
C888   N911    1.376   .     A
C888   C134    1.429   1_556 S
C889   N911    1.376   .     A
C889   I909    2.131   .     S
C889   C131    1.429   1_556 S
C890   N912    1.376   .     A
C890   I910    2.131   .     S
C891   H905    1.083   .     S
C891   O922    1.222   .     D
C891   C938    1.491   .     S
C892   O914    1.222   .     D
C892   H906    1.083   .     S
C892   C981    1.491   1_455 S
C893   O915    1.294   .     A
C893   O917    1.295   .     A
C894   O918    1.284   .     A
C894   C896    1.413   .     S
C894   O920    1.296   .     A
C895   O919    1.284   .     A
C895   C897    1.413   .     S
C895   O921    1.296   .     A
C896   C975    1.491   1_455 S
C896   C981    1.359   1_455 S
C897   C934    1.491   .     S
C897   C938    1.359   .     S
C898   H901    1.083   .     S
C899   H902    1.083   .     S
C899   C1010   1.369   .     S
C900   H903    1.082   .     S
C900   C1024   1.369   .     S
N911   Zn923   2.036   .     S
N912   Zn924   2.036   .     S
O913   Zn923   2.001   .     S
O915   Zn924   2.001   .     S
O916   Zn924   2.002   .     S
O917   Zn923   2.002   .     S
O918   Zn923   1.984   .     S
O919   Zn924   1.984   .     S
O920   Zn924   1.997   .     S
O921   Zn923   1.997   .     S
C925   C928    1.422   .     S
C925   O958    1.295   .     A
C925   O955    1.294   .     A
C926   C928    1.398   .     A
C926   H946    1.082   .     S
C927   C942    1.398   .     A
C927   C941    1.397   .     A
C927   C935    1.422   .     S
C928   C940    1.397   .     A
C929   I949    2.139   .     S
C929   N954    1.376   .     A
C930   I950    2.139   .     S
C930   N953    1.376   .     A
C930   C176    1.429   1_556 S
C931   N953    1.376   .     A
C931   I951    2.131   .     S
C931   C173    1.429   1_556 S
C932   N954    1.376   .     A
C932   I952    2.131   .     S
C933   H947    1.083   .     S
C933   O964    1.222   .     D
C933   C980    1.491   .     S
C934   O956    1.222   .     D
C934   H948    1.083   .     S
C935   O957    1.294   .     A
C935   O959    1.295   .     A
C936   O960    1.284   .     A
C936   C938    1.413   .     S
C936   O962    1.296   .     A
C937   O961    1.284   .     A
C937   C939    1.413   .     S
C937   O963    1.296   .     A
C939   C976    1.491   .     S
C939   C980    1.359   .     S
C940   H943    1.083   .     S
C941   H944    1.083   .     S
C941   C1052   1.369   .     S
C942   H945    1.082   .     S
C942   C1066   1.369   .     S
N953   Zn965   2.036   .     S
N954   Zn966   2.036   .     S
O955   Zn965   2.001   .     S
O957   Zn966   2.001   .     S
O958   Zn966   2.002   .     S
O959   Zn965   2.002   .     S
O960   Zn965   1.984   .     S
O961   Zn966   1.984   .     S
O962   Zn966   1.997   .     S
O963   Zn965   1.997   .     S
C967   C970    1.422   .     S
C967   O1000   1.295   .     A
C967   O997    1.294   .     A
C968   C970    1.398   .     A
C968   H988    1.082   .     S
C969   C984    1.398   .     A
C969   C983    1.397   .     A
C969   C977    1.422   .     S
C970   C982    1.397   .     A
C971   I991    2.139   .     S
C971   N996    1.376   .     A
C972   I992    2.139   .     S
C972   N995    1.376   .     A
C972   C218    1.429   1_556 S
C973   N995    1.376   .     A
C973   I993    2.131   .     S
C973   C215    1.429   1_556 S
C974   N996    1.376   .     A
C974   I994    2.131   .     S
C975   H989    1.083   .     S
C975   O1006   1.222   .     D
C975   C896    1.491   1_655 S
C976   O998    1.222   .     D
C976   H990    1.083   .     S
C977   O999    1.294   .     A
C977   O1001   1.295   .     A
C978   O1002   1.284   .     A
C978   C980    1.413   .     S
C978   O1004   1.296   .     A
C979   O1003   1.284   .     A
C979   C981    1.413   .     S
C979   O1005   1.296   .     A
C981   C892    1.491   1_655 S
C981   C896    1.359   1_655 S
C982   H985    1.083   .     S
C983   H986    1.083   .     S
C983   C1094   1.369   .     S
C984   H987    1.082   .     S
C984   C1108   1.369   .     S
N995   Zn1007  2.036   .     S
N996   Zn1008  2.036   .     S
O997   Zn1007  2.001   .     S
O999   Zn1008  2.001   .     S
O1000  Zn1008  2.002   .     S
O1001  Zn1007  2.002   .     S
O1002  Zn1007  1.984   .     S
O1003  Zn1008  1.984   .     S
O1004  Zn1008  1.997   .     S
O1005  Zn1007  1.997   .     S
C1009  C1012   1.422   .     S
C1009  O1042   1.295   .     A
C1009  O1039   1.294   .     A
C1010  C1012   1.398   .     A
C1010  H1030   1.082   .     S
C1011  C1026   1.398   .     A
C1011  C1025   1.397   .     A
C1011  C1019   1.422   .     S
C1012  C1024   1.397   .     A
C1013  I1033   2.139   .     S
C1013  N1038   1.376   .     A
C1014  I1034   2.139   .     S
C1014  N1037   1.376   .     A
C1014  C260    1.429   1_556 S
C1015  N1037   1.376   .     A
C1015  I1035   2.131   .     S
C1015  C257    1.429   1_556 S
C1016  N1038   1.376   .     A
C1016  I1036   2.131   .     S
C1017  H1031   1.083   .     S
C1017  O1048   1.222   .     D
C1017  C1064   1.491   .     S
C1018  O1040   1.222   .     D
C1018  H1032   1.083   .     S
C1018  C1107   1.491   1_455 S
C1019  O1041   1.294   .     A
C1019  O1043   1.295   .     A
C1020  O1044   1.284   .     A
C1020  C1022   1.413   .     S
C1020  O1046   1.296   .     A
C1021  O1045   1.284   .     A
C1021  C1023   1.413   .     S
C1021  O1047   1.296   .     A
C1022  C1101   1.491   1_455 S
C1022  C1107   1.359   1_455 S
C1023  C1060   1.491   .     S
C1023  C1064   1.359   .     S
C1024  H1027   1.083   .     S
C1025  H1028   1.083   .     S
C1025  C758    1.369   1_565 S
C1026  H1029   1.082   .     S
C1026  C772    1.369   1_565 S
N1037  Zn1049  2.036   .     S
N1038  Zn1050  2.036   .     S
O1039  Zn1049  2.001   .     S
O1041  Zn1050  2.001   .     S
O1042  Zn1050  2.002   .     S
O1043  Zn1049  2.002   .     S
O1044  Zn1049  1.984   .     S
O1045  Zn1050  1.984   .     S
O1046  Zn1050  1.997   .     S
O1047  Zn1049  1.997   .     S
C1051  C1054   1.422   .     S
C1051  O1084   1.295   .     A
C1051  O1081   1.294   .     A
C1052  C1054   1.398   .     A
C1052  H1072   1.082   .     S
C1053  C1068   1.398   .     A
C1053  C1067   1.397   .     A
C1053  C1061   1.422   .     S
C1054  C1066   1.397   .     A
C1055  I1075   2.139   .     S
C1055  N1080   1.376   .     A
C1056  I1076   2.139   .     S
C1056  N1079   1.376   .     A
C1056  C302    1.429   1_556 S
C1057  N1079   1.376   .     A
C1057  I1077   2.131   .     S
C1057  C299    1.429   1_556 S
C1058  N1080   1.376   .     A
C1058  I1078   2.131   .     S
C1059  H1073   1.083   .     S
C1059  O1090   1.222   .     D
C1059  C1106   1.491   .     S
C1060  O1082   1.222   .     D
C1060  H1074   1.083   .     S
C1061  O1083   1.294   .     A
C1061  O1085   1.295   .     A
C1062  O1086   1.284   .     A
C1062  C1064   1.413   .     S
C1062  O1088   1.296   .     A
C1063  O1087   1.284   .     A
C1063  C1065   1.413   .     S
C1063  O1089   1.296   .     A
C1065  C1102   1.491   .     S
C1065  C1106   1.359   .     S
C1066  H1069   1.083   .     S
C1067  H1070   1.083   .     S
C1067  C800    1.369   1_565 S
C1068  H1071   1.082   .     S
C1068  C814    1.369   1_565 S
N1079  Zn1091  2.036   .     S
N1080  Zn1092  2.036   .     S
O1081  Zn1091  2.001   .     S
O1083  Zn1092  2.001   .     S
O1084  Zn1092  2.002   .     S
O1085  Zn1091  2.002   .     S
O1086  Zn1091  1.984   .     S
O1087  Zn1092  1.984   .     S
O1088  Zn1092  1.997   .     S
O1089  Zn1091  1.997   .     S
C1093  C1096   1.422   .     S
C1093  O1126   1.295   .     A
C1093  O1123   1.294   .     A
C1094  C1096   1.398   .     A
C1094  H1114   1.082   .     S
C1095  C1110   1.398   .     A
C1095  C1109   1.397   .     A
C1095  C1103   1.422   .     S
C1096  C1108   1.397   .     A
C1097  I1117   2.139   .     S
C1097  N1122   1.376   .     A
C1098  I1118   2.139   .     S
C1098  N1121   1.376   .     A
C1098  C344    1.429   1_556 S
C1099  N1121   1.376   .     A
C1099  I1119   2.131   .     S
C1099  C341    1.429   1_556 S
C1100  N1122   1.376   .     A
C1100  I1120   2.131   .     S
C1101  H1115   1.083   .     S
C1101  O1132   1.222   .     D
C1101  C1022   1.491   1_655 S
C1102  O1124   1.222   .     D
C1102  H1116   1.083   .     S
C1103  O1125   1.294   .     A
C1103  O1127   1.295   .     A
C1104  O1128   1.284   .     A
C1104  C1106   1.413   .     S
C1104  O1130   1.296   .     A
C1105  O1129   1.284   .     A
C1105  C1107   1.413   .     S
C1105  O1131   1.296   .     A
C1107  C1018   1.491   1_655 S
C1107  C1022   1.359   1_655 S
C1108  H1111   1.083   .     S
C1109  H1112   1.083   .     S
C1109  C842    1.369   1_565 S
C1110  H1113   1.082   .     S
C1110  C856    1.369   1_565 S
N1121  Zn1133  2.036   .     S
N1122  Zn1134  2.036   .     S
O1123  Zn1133  2.001   .     S
O1125  Zn1134  2.001   .     S
O1126  Zn1134  2.002   .     S
O1127  Zn1133  2.002   .     S
O1128  Zn1133  1.984   .     S
O1129  Zn1134  1.984   .     S
O1130  Zn1134  1.997   .     S
O1131  Zn1133  1.997   .     S
