data_str_m3_o1_o16_pcu_sym.194
_audit_creation_date              2020-01-03
_audit_creation_method            'Materials Studio'
_symmetry_space_group_name_H-M    'P1'
_symmetry_Int_Tables_number       1
_symmetry_cell_setting            triclinic
loop_
_symmetry_equiv_pos_as_xyz
  x,y,z
_cell_length_a                    29.6323
_cell_length_b                    32.0065
_cell_length_c                    26.1787
_cell_angle_alpha                 90.5980
_cell_angle_beta                  69.1385
_cell_angle_gamma                 89.4757
loop_
_atom_site_label
_atom_site_type_symbol
_atom_site_fract_x
_atom_site_fract_y
_atom_site_fract_z
_atom_site_U_iso_or_equiv
_atom_site_adp_type
_atom_site_occupancy
O1     O     0.12846   0.22775   0.25001   0.00000  Uiso   1.00
O2     O     0.20490   0.22774   0.25001   0.00000  Uiso   1.00
C3     C     0.16700   0.24661   0.24852   0.00000  Uiso   1.00
O4     O     0.10947   0.16666   0.32681   0.00000  Uiso   1.00
O5     O     0.18591   0.16665   0.32681   0.00000  Uiso   1.00
C6     C     0.13952   0.16451   0.35272   0.00000  Uiso   1.00
Zn7    Zn    0.11562   0.16667   0.25000   0.00000  Uiso   1.00
Zn8    Zn    0.21771   0.16666   0.25000   0.00000  Uiso   1.00
O9     O     0.12843   0.10559   0.25000   0.00000  Uiso   1.00
O10    O     0.20488   0.10558   0.25000   0.00000  Uiso   1.00
O11    O     0.14742   0.16668   0.17319   0.00000  Uiso   1.00
O12    O     0.22387   0.16667   0.17319   0.00000  Uiso   1.00
C13    C     0.16681   0.08674   0.24992   0.00000  Uiso   1.00
C14    C     0.19373   0.16608   0.14750   0.00000  Uiso   1.00
C15    C     0.26256   0.12432   0.00594   0.00000  Uiso   1.00
H16    H     0.28036   0.13216   0.07824   0.00000  Uiso   1.00
H17    H     0.29660   0.10857   0.48428   0.00000  Uiso   1.00
C18    C     0.21060   0.15947   0.08844   0.00000  Uiso   1.00
C19    C     0.07404   0.17135   0.44730   0.00000  Uiso   1.00
C20    C     0.06184   0.17102   0.00395   0.00000  Uiso   1.00
C21    C     0.09670   0.16298   0.02647   0.00000  Uiso   1.00
C22    C     0.14439   0.15217   0.49288   0.00000  Uiso   1.00
C23    C     0.15428   0.14358   0.43729   0.00000  Uiso   1.00
C24    C     0.18231   0.14912   0.01333   0.00000  Uiso   1.00
C25    C     0.22656   0.12879   0.48247   0.00000  Uiso   1.00
C26    C     0.23287   0.11298   0.42979   0.00000  Uiso   1.00
C27    C     0.19675   0.12050   0.40794   0.00000  Uiso   1.00
C28    C     0.17727   0.16729   0.06357   0.00000  Uiso   1.00
C29    C     0.25404   0.13867   0.05927   0.00000  Uiso   1.00
C30    C     0.12152   0.15860   0.41279   0.00000  Uiso   1.00
H31    H     0.14627   0.18683   0.08521   0.00000  Uiso   1.00
H32    H     0.08519   0.16434   0.07054   0.00000  Uiso   1.00
H33    H     0.02575   0.17961   0.03114   0.00000  Uiso   1.00
H34    H     0.20159   0.10721   0.36815   0.00000  Uiso   1.00
C35    C     0.19219   0.31171   0.27545   0.00000  Uiso   1.00
H36    H     0.21045   0.29494   0.29842   0.00000  Uiso   1.00
C37    C     0.19230   0.02116   0.27633   0.00000  Uiso   1.00
H38    H     0.21087   0.03742   0.29945   0.00000  Uiso   1.00
C39    C     0.16730   0.04267   0.24861   0.00000  Uiso   1.00
C40    C     0.14302   0.02218   0.21898   0.00000  Uiso   1.00
H41    H     0.12512   0.03976   0.19630   0.00000  Uiso   1.00
C42    C     0.14394   0.31246   0.21624   0.00000  Uiso   1.00
C43    C     0.16780   0.29080   0.24606   0.00000  Uiso   1.00
C44    C     0.31805   0.13571   0.22368   0.00000  Uiso   1.00
H45    H     0.30694   0.11094   0.20249   0.00000  Uiso   1.00
C46    C     0.03258   0.13570   0.22369   0.00000  Uiso   1.00
H47    H     0.05755   0.11096   0.20249   0.00000  Uiso   1.00
N48    N     0.04760   0.16668   0.25002   0.00000  Uiso   1.00
C49    C     0.01462   0.19782   0.27645   0.00000  Uiso   1.00
C50    C     0.30028   0.19751   0.27618   0.00000  Uiso   1.00
H51    H     0.27480   0.22212   0.29680   0.00000  Uiso   1.00
N52    N     0.28573   0.16665   0.25001   0.00000  Uiso   1.00
N53    N     0.12289   0.29158   0.18136   0.00000  Uiso   1.00
O54    O     0.14656   0.26165   0.14844   0.00000  Uiso   1.00
O55    O     0.08413   0.30692   0.17572   0.00000  Uiso   1.00
C56    C     0.02778   0.23372   0.30506   0.00000  Uiso   1.00
H57    H     0.05450   0.22382   0.32266   0.00000  Uiso   1.00
H58    H     0.04226   0.25941   0.27587   0.00000  Uiso   1.00
H59    H     0.32915   0.24576   0.33945   0.00000  Uiso   1.00
C60    C     0.27785   0.08908   0.39573   0.00000  Uiso   1.00
H61    H     0.27633   0.07884   0.35570   0.00000  Uiso   1.00
H62    H     0.30992   0.10918   0.38743   0.00000  Uiso   1.00
H63    H     0.28222   0.06078   0.41778   0.00000  Uiso   1.00
C64    C     0.03644   0.18788   0.42621   0.00000  Uiso   1.00
H65    H     0.00113   0.19370   0.45958   0.00000  Uiso   1.00
H66    H     0.04869   0.21833   0.40695   0.00000  Uiso   1.00
H67    H     0.02978   0.16523   0.39744   0.00000  Uiso   1.00
O68    O     0.46179   0.22775   0.25001   0.00000  Uiso   1.00
O69    O     0.53823   0.22774   0.25001   0.00000  Uiso   1.00
C70    C     0.50033   0.24661   0.24852   0.00000  Uiso   1.00
O71    O     0.44280   0.16666   0.32681   0.00000  Uiso   1.00
O72    O     0.51924   0.16665   0.32681   0.00000  Uiso   1.00
C73    C     0.47285   0.16451   0.35272   0.00000  Uiso   1.00
Zn74   Zn    0.44896   0.16667   0.25000   0.00000  Uiso   1.00
Zn75   Zn    0.55104   0.16666   0.25000   0.00000  Uiso   1.00
O76    O     0.46177   0.10559   0.25000   0.00000  Uiso   1.00
O77    O     0.53821   0.10558   0.25000   0.00000  Uiso   1.00
O78    O     0.48076   0.16668   0.17319   0.00000  Uiso   1.00
O79    O     0.55720   0.16667   0.17319   0.00000  Uiso   1.00
C80    C     0.50014   0.08674   0.24992   0.00000  Uiso   1.00
C81    C     0.52706   0.16608   0.14750   0.00000  Uiso   1.00
C82    C     0.59590   0.12432   0.00594   0.00000  Uiso   1.00
H83    H     0.61369   0.13216   0.07824   0.00000  Uiso   1.00
H84    H     0.62993   0.10857   0.48428   0.00000  Uiso   1.00
C85    C     0.54393   0.15947   0.08844   0.00000  Uiso   1.00
C86    C     0.40737   0.17135   0.44730   0.00000  Uiso   1.00
C87    C     0.39518   0.17102   0.00395   0.00000  Uiso   1.00
C88    C     0.43003   0.16298   0.02647   0.00000  Uiso   1.00
C89    C     0.47772   0.15217   0.49288   0.00000  Uiso   1.00
C90    C     0.48762   0.14358   0.43729   0.00000  Uiso   1.00
C91    C     0.51564   0.14912   0.01333   0.00000  Uiso   1.00
C92    C     0.55990   0.12879   0.48247   0.00000  Uiso   1.00
C93    C     0.56621   0.11298   0.42979   0.00000  Uiso   1.00
C94    C     0.53008   0.12050   0.40794   0.00000  Uiso   1.00
C95    C     0.51061   0.16729   0.06357   0.00000  Uiso   1.00
C96    C     0.58737   0.13867   0.05927   0.00000  Uiso   1.00
C97    C     0.45485   0.15860   0.41279   0.00000  Uiso   1.00
H98    H     0.47961   0.18683   0.08521   0.00000  Uiso   1.00
H99    H     0.41852   0.16434   0.07054   0.00000  Uiso   1.00
H100   H     0.35908   0.17961   0.03114   0.00000  Uiso   1.00
H101   H     0.53493   0.10721   0.36815   0.00000  Uiso   1.00
C102   C     0.52552   0.31171   0.27545   0.00000  Uiso   1.00
H103   H     0.54378   0.29494   0.29842   0.00000  Uiso   1.00
C104   C     0.52563   0.02116   0.27633   0.00000  Uiso   1.00
H105   H     0.54420   0.03742   0.29945   0.00000  Uiso   1.00
C106   C     0.50063   0.04267   0.24861   0.00000  Uiso   1.00
C107   C     0.47635   0.02218   0.21898   0.00000  Uiso   1.00
H108   H     0.45845   0.03976   0.19630   0.00000  Uiso   1.00
C109   C     0.47727   0.31246   0.21624   0.00000  Uiso   1.00
C110   C     0.50114   0.29080   0.24606   0.00000  Uiso   1.00
C111   C     0.65138   0.13571   0.22368   0.00000  Uiso   1.00
H112   H     0.64028   0.11094   0.20249   0.00000  Uiso   1.00
C113   C     0.36592   0.13570   0.22369   0.00000  Uiso   1.00
H114   H     0.39088   0.11096   0.20249   0.00000  Uiso   1.00
N115   N     0.38093   0.16668   0.25002   0.00000  Uiso   1.00
C116   C     0.34795   0.19782   0.27645   0.00000  Uiso   1.00
C117   C     0.63362   0.19751   0.27618   0.00000  Uiso   1.00
H118   H     0.60813   0.22212   0.29680   0.00000  Uiso   1.00
N119   N     0.61906   0.16665   0.25001   0.00000  Uiso   1.00
N120   N     0.45622   0.29158   0.18136   0.00000  Uiso   1.00
O121   O     0.47989   0.26165   0.14844   0.00000  Uiso   1.00
O122   O     0.41746   0.30692   0.17572   0.00000  Uiso   1.00
C123   C     0.36111   0.23372   0.30506   0.00000  Uiso   1.00
H124   H     0.38783   0.22382   0.32266   0.00000  Uiso   1.00
H125   H     0.37560   0.25941   0.27587   0.00000  Uiso   1.00
H126   H     0.66248   0.24576   0.33945   0.00000  Uiso   1.00
C127   C     0.61119   0.08908   0.39573   0.00000  Uiso   1.00
H128   H     0.60967   0.07884   0.35570   0.00000  Uiso   1.00
H129   H     0.64326   0.10918   0.38743   0.00000  Uiso   1.00
H130   H     0.61555   0.06078   0.41778   0.00000  Uiso   1.00
C131   C     0.36977   0.18788   0.42621   0.00000  Uiso   1.00
H132   H     0.33446   0.19370   0.45958   0.00000  Uiso   1.00
H133   H     0.38202   0.21833   0.40695   0.00000  Uiso   1.00
H134   H     0.36312   0.16523   0.39744   0.00000  Uiso   1.00
O135   O     0.79512   0.22775   0.25001   0.00000  Uiso   1.00
O136   O     0.87157   0.22774   0.25001   0.00000  Uiso   1.00
C137   C     0.83367   0.24661   0.24852   0.00000  Uiso   1.00
O138   O     0.77613   0.16666   0.32681   0.00000  Uiso   1.00
O139   O     0.85258   0.16665   0.32681   0.00000  Uiso   1.00
C140   C     0.80618   0.16451   0.35272   0.00000  Uiso   1.00
Zn141  Zn    0.78229   0.16667   0.25000   0.00000  Uiso   1.00
Zn142  Zn    0.88438   0.16666   0.25000   0.00000  Uiso   1.00
O143   O     0.79510   0.10559   0.25000   0.00000  Uiso   1.00
O144   O     0.87154   0.10558   0.25000   0.00000  Uiso   1.00
O145   O     0.81409   0.16668   0.17319   0.00000  Uiso   1.00
O146   O     0.89053   0.16667   0.17319   0.00000  Uiso   1.00
C147   C     0.83348   0.08674   0.24992   0.00000  Uiso   1.00
C148   C     0.86040   0.16608   0.14750   0.00000  Uiso   1.00
C149   C     0.92923   0.12432   0.00594   0.00000  Uiso   1.00
H150   H     0.94702   0.13216   0.07824   0.00000  Uiso   1.00
H151   H     0.96327   0.10857   0.48428   0.00000  Uiso   1.00
C152   C     0.87727   0.15947   0.08844   0.00000  Uiso   1.00
C153   C     0.74070   0.17135   0.44730   0.00000  Uiso   1.00
C154   C     0.72851   0.17102   0.00395   0.00000  Uiso   1.00
C155   C     0.76337   0.16298   0.02647   0.00000  Uiso   1.00
C156   C     0.81105   0.15217   0.49288   0.00000  Uiso   1.00
C157   C     0.82095   0.14358   0.43729   0.00000  Uiso   1.00
C158   C     0.84897   0.14912   0.01333   0.00000  Uiso   1.00
C159   C     0.89323   0.12879   0.48247   0.00000  Uiso   1.00
C160   C     0.89954   0.11298   0.42979   0.00000  Uiso   1.00
C161   C     0.86341   0.12050   0.40794   0.00000  Uiso   1.00
C162   C     0.84394   0.16729   0.06357   0.00000  Uiso   1.00
C163   C     0.92070   0.13867   0.05927   0.00000  Uiso   1.00
C164   C     0.78819   0.15860   0.41279   0.00000  Uiso   1.00
H165   H     0.81294   0.18683   0.08521   0.00000  Uiso   1.00
H166   H     0.75186   0.16434   0.07054   0.00000  Uiso   1.00
H167   H     0.69242   0.17961   0.03114   0.00000  Uiso   1.00
H168   H     0.86826   0.10721   0.36815   0.00000  Uiso   1.00
C169   C     0.85885   0.31171   0.27545   0.00000  Uiso   1.00
H170   H     0.87711   0.29494   0.29842   0.00000  Uiso   1.00
C171   C     0.85897   0.02116   0.27633   0.00000  Uiso   1.00
H172   H     0.87753   0.03742   0.29945   0.00000  Uiso   1.00
C173   C     0.83396   0.04267   0.24861   0.00000  Uiso   1.00
C174   C     0.80969   0.02218   0.21898   0.00000  Uiso   1.00
H175   H     0.79178   0.03976   0.19630   0.00000  Uiso   1.00
C176   C     0.81060   0.31246   0.21624   0.00000  Uiso   1.00
C177   C     0.83447   0.29080   0.24606   0.00000  Uiso   1.00
C178   C     0.98471   0.13571   0.22368   0.00000  Uiso   1.00
H179   H     0.97361   0.11094   0.20249   0.00000  Uiso   1.00
C180   C     0.69925   0.13570   0.22369   0.00000  Uiso   1.00
H181   H     0.72421   0.11096   0.20249   0.00000  Uiso   1.00
N182   N     0.71426   0.16668   0.25002   0.00000  Uiso   1.00
C183   C     0.68128   0.19782   0.27645   0.00000  Uiso   1.00
C184   C     0.96695   0.19751   0.27618   0.00000  Uiso   1.00
H185   H     0.94147   0.22212   0.29680   0.00000  Uiso   1.00
N186   N     0.95239   0.16665   0.25001   0.00000  Uiso   1.00
N187   N     0.78955   0.29158   0.18136   0.00000  Uiso   1.00
O188   O     0.81323   0.26165   0.14844   0.00000  Uiso   1.00
O189   O     0.75079   0.30692   0.17572   0.00000  Uiso   1.00
C190   C     0.69445   0.23372   0.30506   0.00000  Uiso   1.00
H191   H     0.72116   0.22382   0.32266   0.00000  Uiso   1.00
H192   H     0.70893   0.25941   0.27587   0.00000  Uiso   1.00
H193   H     0.99582   0.24576   0.33945   0.00000  Uiso   1.00
C194   C     0.94452   0.08908   0.39573   0.00000  Uiso   1.00
H195   H     0.94300   0.07884   0.35570   0.00000  Uiso   1.00
H196   H     0.97659   0.10918   0.38743   0.00000  Uiso   1.00
H197   H     0.94888   0.06078   0.41778   0.00000  Uiso   1.00
C198   C     0.70310   0.18788   0.42621   0.00000  Uiso   1.00
H199   H     0.66780   0.19370   0.45958   0.00000  Uiso   1.00
H200   H     0.71535   0.21833   0.40695   0.00000  Uiso   1.00
H201   H     0.69645   0.16523   0.39744   0.00000  Uiso   1.00
O202   O     0.12846   0.56108   0.25001   0.00000  Uiso   1.00
O203   O     0.20490   0.56107   0.25001   0.00000  Uiso   1.00
C204   C     0.16700   0.57994   0.24852   0.00000  Uiso   1.00
O205   O     0.10947   0.50000   0.32681   0.00000  Uiso   1.00
O206   O     0.18591   0.49999   0.32681   0.00000  Uiso   1.00
C207   C     0.13952   0.49784   0.35272   0.00000  Uiso   1.00
Zn208  Zn    0.11562   0.50001   0.25000   0.00000  Uiso   1.00
Zn209  Zn    0.21771   0.49999   0.25000   0.00000  Uiso   1.00
O210   O     0.12843   0.43893   0.25000   0.00000  Uiso   1.00
O211   O     0.20488   0.43892   0.25000   0.00000  Uiso   1.00
O212   O     0.14742   0.50001   0.17319   0.00000  Uiso   1.00
O213   O     0.22387   0.50000   0.17319   0.00000  Uiso   1.00
C214   C     0.16681   0.42007   0.24992   0.00000  Uiso   1.00
C215   C     0.19373   0.49941   0.14750   0.00000  Uiso   1.00
C216   C     0.26256   0.45765   0.00594   0.00000  Uiso   1.00
H217   H     0.28036   0.46549   0.07824   0.00000  Uiso   1.00
H218   H     0.29660   0.44190   0.48428   0.00000  Uiso   1.00
C219   C     0.21060   0.49280   0.08844   0.00000  Uiso   1.00
C220   C     0.07404   0.50468   0.44730   0.00000  Uiso   1.00
C221   C     0.06184   0.50435   0.00395   0.00000  Uiso   1.00
C222   C     0.09670   0.49631   0.02647   0.00000  Uiso   1.00
C223   C     0.14439   0.48551   0.49288   0.00000  Uiso   1.00
C224   C     0.15428   0.47691   0.43729   0.00000  Uiso   1.00
C225   C     0.18231   0.48246   0.01333   0.00000  Uiso   1.00
C226   C     0.22656   0.46212   0.48247   0.00000  Uiso   1.00
C227   C     0.23287   0.44631   0.42979   0.00000  Uiso   1.00
C228   C     0.19675   0.45384   0.40794   0.00000  Uiso   1.00
C229   C     0.17727   0.50062   0.06357   0.00000  Uiso   1.00
C230   C     0.25404   0.47200   0.05927   0.00000  Uiso   1.00
C231   C     0.12152   0.49193   0.41279   0.00000  Uiso   1.00
H232   H     0.14627   0.52017   0.08521   0.00000  Uiso   1.00
H233   H     0.08519   0.49767   0.07054   0.00000  Uiso   1.00
H234   H     0.02575   0.51294   0.03114   0.00000  Uiso   1.00
H235   H     0.20159   0.44054   0.36815   0.00000  Uiso   1.00
C236   C     0.19219   0.64504   0.27545   0.00000  Uiso   1.00
H237   H     0.21045   0.62827   0.29842   0.00000  Uiso   1.00
C238   C     0.19230   0.35450   0.27633   0.00000  Uiso   1.00
H239   H     0.21087   0.37076   0.29945   0.00000  Uiso   1.00
C240   C     0.16730   0.37600   0.24861   0.00000  Uiso   1.00
C241   C     0.14302   0.35552   0.21898   0.00000  Uiso   1.00
H242   H     0.12512   0.37309   0.19630   0.00000  Uiso   1.00
C243   C     0.14394   0.64579   0.21624   0.00000  Uiso   1.00
C244   C     0.16780   0.62413   0.24606   0.00000  Uiso   1.00
C245   C     0.31805   0.46904   0.22368   0.00000  Uiso   1.00
H246   H     0.30694   0.44427   0.20249   0.00000  Uiso   1.00
C247   C     0.03258   0.46904   0.22369   0.00000  Uiso   1.00
H248   H     0.05755   0.44429   0.20249   0.00000  Uiso   1.00
N249   N     0.04760   0.50001   0.25002   0.00000  Uiso   1.00
C250   C     0.01462   0.53115   0.27645   0.00000  Uiso   1.00
C251   C     0.30028   0.53084   0.27618   0.00000  Uiso   1.00
H252   H     0.27480   0.55545   0.29680   0.00000  Uiso   1.00
N253   N     0.28573   0.49998   0.25001   0.00000  Uiso   1.00
N254   N     0.12289   0.62492   0.18136   0.00000  Uiso   1.00
O255   O     0.14656   0.59498   0.14844   0.00000  Uiso   1.00
O256   O     0.08413   0.64026   0.17572   0.00000  Uiso   1.00
C257   C     0.02778   0.56705   0.30506   0.00000  Uiso   1.00
H258   H     0.05450   0.55715   0.32266   0.00000  Uiso   1.00
H259   H     0.04226   0.59274   0.27587   0.00000  Uiso   1.00
H260   H     0.32915   0.57909   0.33945   0.00000  Uiso   1.00
C261   C     0.27785   0.42242   0.39573   0.00000  Uiso   1.00
H262   H     0.27633   0.41217   0.35570   0.00000  Uiso   1.00
H263   H     0.30992   0.44251   0.38743   0.00000  Uiso   1.00
H264   H     0.28222   0.39411   0.41778   0.00000  Uiso   1.00
C265   C     0.03644   0.52121   0.42621   0.00000  Uiso   1.00
H266   H     0.00113   0.52703   0.45958   0.00000  Uiso   1.00
H267   H     0.04869   0.55167   0.40695   0.00000  Uiso   1.00
H268   H     0.02978   0.49856   0.39744   0.00000  Uiso   1.00
O269   O     0.46179   0.56108   0.25001   0.00000  Uiso   1.00
O270   O     0.53823   0.56107   0.25001   0.00000  Uiso   1.00
C271   C     0.50033   0.57994   0.24852   0.00000  Uiso   1.00
O272   O     0.44280   0.50000   0.32681   0.00000  Uiso   1.00
O273   O     0.51924   0.49999   0.32681   0.00000  Uiso   1.00
C274   C     0.47285   0.49784   0.35272   0.00000  Uiso   1.00
Zn275  Zn    0.44896   0.50001   0.25000   0.00000  Uiso   1.00
Zn276  Zn    0.55104   0.49999   0.25000   0.00000  Uiso   1.00
O277   O     0.46177   0.43893   0.25000   0.00000  Uiso   1.00
O278   O     0.53821   0.43892   0.25000   0.00000  Uiso   1.00
O279   O     0.48076   0.50001   0.17319   0.00000  Uiso   1.00
O280   O     0.55720   0.50000   0.17319   0.00000  Uiso   1.00
C281   C     0.50014   0.42007   0.24992   0.00000  Uiso   1.00
C282   C     0.52706   0.49941   0.14750   0.00000  Uiso   1.00
C283   C     0.59590   0.45765   0.00594   0.00000  Uiso   1.00
H284   H     0.61369   0.46549   0.07824   0.00000  Uiso   1.00
H285   H     0.62993   0.44190   0.48428   0.00000  Uiso   1.00
C286   C     0.54393   0.49280   0.08844   0.00000  Uiso   1.00
C287   C     0.40737   0.50468   0.44730   0.00000  Uiso   1.00
C288   C     0.39518   0.50435   0.00395   0.00000  Uiso   1.00
C289   C     0.43003   0.49631   0.02647   0.00000  Uiso   1.00
C290   C     0.47772   0.48551   0.49288   0.00000  Uiso   1.00
C291   C     0.48762   0.47691   0.43729   0.00000  Uiso   1.00
C292   C     0.51564   0.48246   0.01333   0.00000  Uiso   1.00
C293   C     0.55990   0.46212   0.48247   0.00000  Uiso   1.00
C294   C     0.56621   0.44631   0.42979   0.00000  Uiso   1.00
C295   C     0.53008   0.45384   0.40794   0.00000  Uiso   1.00
C296   C     0.51061   0.50062   0.06357   0.00000  Uiso   1.00
C297   C     0.58737   0.47200   0.05927   0.00000  Uiso   1.00
C298   C     0.45485   0.49193   0.41279   0.00000  Uiso   1.00
H299   H     0.47961   0.52017   0.08521   0.00000  Uiso   1.00
H300   H     0.41852   0.49767   0.07054   0.00000  Uiso   1.00
H301   H     0.35908   0.51294   0.03114   0.00000  Uiso   1.00
H302   H     0.53493   0.44054   0.36815   0.00000  Uiso   1.00
C303   C     0.52552   0.64504   0.27545   0.00000  Uiso   1.00
H304   H     0.54378   0.62827   0.29842   0.00000  Uiso   1.00
C305   C     0.52563   0.35450   0.27633   0.00000  Uiso   1.00
H306   H     0.54420   0.37076   0.29945   0.00000  Uiso   1.00
C307   C     0.50063   0.37600   0.24861   0.00000  Uiso   1.00
C308   C     0.47635   0.35552   0.21898   0.00000  Uiso   1.00
H309   H     0.45845   0.37309   0.19630   0.00000  Uiso   1.00
C310   C     0.47727   0.64579   0.21624   0.00000  Uiso   1.00
C311   C     0.50114   0.62413   0.24606   0.00000  Uiso   1.00
C312   C     0.65138   0.46904   0.22368   0.00000  Uiso   1.00
H313   H     0.64028   0.44427   0.20249   0.00000  Uiso   1.00
C314   C     0.36592   0.46904   0.22369   0.00000  Uiso   1.00
H315   H     0.39088   0.44429   0.20249   0.00000  Uiso   1.00
N316   N     0.38093   0.50001   0.25002   0.00000  Uiso   1.00
C317   C     0.34795   0.53115   0.27645   0.00000  Uiso   1.00
C318   C     0.63362   0.53084   0.27618   0.00000  Uiso   1.00
H319   H     0.60813   0.55545   0.29680   0.00000  Uiso   1.00
N320   N     0.61906   0.49998   0.25001   0.00000  Uiso   1.00
N321   N     0.45622   0.62492   0.18136   0.00000  Uiso   1.00
O322   O     0.47989   0.59498   0.14844   0.00000  Uiso   1.00
O323   O     0.41746   0.64026   0.17572   0.00000  Uiso   1.00
C324   C     0.36111   0.56705   0.30506   0.00000  Uiso   1.00
H325   H     0.38783   0.55715   0.32266   0.00000  Uiso   1.00
H326   H     0.37560   0.59274   0.27587   0.00000  Uiso   1.00
H327   H     0.66248   0.57909   0.33945   0.00000  Uiso   1.00
C328   C     0.61119   0.42242   0.39573   0.00000  Uiso   1.00
H329   H     0.60967   0.41217   0.35570   0.00000  Uiso   1.00
H330   H     0.64326   0.44251   0.38743   0.00000  Uiso   1.00
H331   H     0.61555   0.39411   0.41778   0.00000  Uiso   1.00
C332   C     0.36977   0.52121   0.42621   0.00000  Uiso   1.00
H333   H     0.33446   0.52703   0.45958   0.00000  Uiso   1.00
H334   H     0.38202   0.55167   0.40695   0.00000  Uiso   1.00
H335   H     0.36312   0.49856   0.39744   0.00000  Uiso   1.00
O336   O     0.79512   0.56108   0.25001   0.00000  Uiso   1.00
O337   O     0.87157   0.56107   0.25001   0.00000  Uiso   1.00
C338   C     0.83367   0.57994   0.24852   0.00000  Uiso   1.00
O339   O     0.77613   0.50000   0.32681   0.00000  Uiso   1.00
O340   O     0.85258   0.49999   0.32681   0.00000  Uiso   1.00
C341   C     0.80618   0.49784   0.35272   0.00000  Uiso   1.00
Zn342  Zn    0.78229   0.50001   0.25000   0.00000  Uiso   1.00
Zn343  Zn    0.88438   0.49999   0.25000   0.00000  Uiso   1.00
O344   O     0.79510   0.43893   0.25000   0.00000  Uiso   1.00
O345   O     0.87154   0.43892   0.25000   0.00000  Uiso   1.00
O346   O     0.81409   0.50001   0.17319   0.00000  Uiso   1.00
O347   O     0.89053   0.50000   0.17319   0.00000  Uiso   1.00
C348   C     0.83348   0.42007   0.24992   0.00000  Uiso   1.00
C349   C     0.86040   0.49941   0.14750   0.00000  Uiso   1.00
C350   C     0.92923   0.45765   0.00594   0.00000  Uiso   1.00
H351   H     0.94702   0.46549   0.07824   0.00000  Uiso   1.00
H352   H     0.96327   0.44190   0.48428   0.00000  Uiso   1.00
C353   C     0.87727   0.49280   0.08844   0.00000  Uiso   1.00
C354   C     0.74070   0.50468   0.44730   0.00000  Uiso   1.00
C355   C     0.72851   0.50435   0.00395   0.00000  Uiso   1.00
C356   C     0.76337   0.49631   0.02647   0.00000  Uiso   1.00
C357   C     0.81105   0.48551   0.49288   0.00000  Uiso   1.00
C358   C     0.82095   0.47691   0.43729   0.00000  Uiso   1.00
C359   C     0.84897   0.48246   0.01333   0.00000  Uiso   1.00
C360   C     0.89323   0.46212   0.48247   0.00000  Uiso   1.00
C361   C     0.89954   0.44631   0.42979   0.00000  Uiso   1.00
C362   C     0.86341   0.45384   0.40794   0.00000  Uiso   1.00
C363   C     0.84394   0.50062   0.06357   0.00000  Uiso   1.00
C364   C     0.92070   0.47200   0.05927   0.00000  Uiso   1.00
C365   C     0.78819   0.49193   0.41279   0.00000  Uiso   1.00
H366   H     0.81294   0.52017   0.08521   0.00000  Uiso   1.00
H367   H     0.75186   0.49767   0.07054   0.00000  Uiso   1.00
H368   H     0.69242   0.51294   0.03114   0.00000  Uiso   1.00
H369   H     0.86826   0.44054   0.36815   0.00000  Uiso   1.00
C370   C     0.85885   0.64504   0.27545   0.00000  Uiso   1.00
H371   H     0.87711   0.62827   0.29842   0.00000  Uiso   1.00
C372   C     0.85897   0.35450   0.27633   0.00000  Uiso   1.00
H373   H     0.87753   0.37076   0.29945   0.00000  Uiso   1.00
C374   C     0.83396   0.37600   0.24861   0.00000  Uiso   1.00
C375   C     0.80969   0.35552   0.21898   0.00000  Uiso   1.00
H376   H     0.79178   0.37309   0.19630   0.00000  Uiso   1.00
C377   C     0.81060   0.64579   0.21624   0.00000  Uiso   1.00
C378   C     0.83447   0.62413   0.24606   0.00000  Uiso   1.00
C379   C     0.98471   0.46904   0.22368   0.00000  Uiso   1.00
H380   H     0.97361   0.44427   0.20249   0.00000  Uiso   1.00
C381   C     0.69925   0.46904   0.22369   0.00000  Uiso   1.00
H382   H     0.72421   0.44429   0.20249   0.00000  Uiso   1.00
N383   N     0.71426   0.50001   0.25002   0.00000  Uiso   1.00
C384   C     0.68128   0.53115   0.27645   0.00000  Uiso   1.00
C385   C     0.96695   0.53084   0.27618   0.00000  Uiso   1.00
H386   H     0.94147   0.55545   0.29680   0.00000  Uiso   1.00
N387   N     0.95239   0.49998   0.25001   0.00000  Uiso   1.00
N388   N     0.78955   0.62492   0.18136   0.00000  Uiso   1.00
O389   O     0.81323   0.59498   0.14844   0.00000  Uiso   1.00
O390   O     0.75079   0.64026   0.17572   0.00000  Uiso   1.00
C391   C     0.69445   0.56705   0.30506   0.00000  Uiso   1.00
H392   H     0.72116   0.55715   0.32266   0.00000  Uiso   1.00
H393   H     0.70893   0.59274   0.27587   0.00000  Uiso   1.00
H394   H     0.99582   0.57909   0.33945   0.00000  Uiso   1.00
C395   C     0.94452   0.42242   0.39573   0.00000  Uiso   1.00
H396   H     0.94300   0.41217   0.35570   0.00000  Uiso   1.00
H397   H     0.97659   0.44251   0.38743   0.00000  Uiso   1.00
H398   H     0.94888   0.39411   0.41778   0.00000  Uiso   1.00
C399   C     0.70310   0.52121   0.42621   0.00000  Uiso   1.00
H400   H     0.66780   0.52703   0.45958   0.00000  Uiso   1.00
H401   H     0.71535   0.55167   0.40695   0.00000  Uiso   1.00
H402   H     0.69645   0.49856   0.39744   0.00000  Uiso   1.00
O403   O     0.12846   0.89442   0.25001   0.00000  Uiso   1.00
O404   O     0.20490   0.89441   0.25001   0.00000  Uiso   1.00
C405   C     0.16700   0.91327   0.24852   0.00000  Uiso   1.00
O406   O     0.10947   0.83333   0.32681   0.00000  Uiso   1.00
O407   O     0.18591   0.83332   0.32681   0.00000  Uiso   1.00
C408   C     0.13952   0.83118   0.35272   0.00000  Uiso   1.00
Zn409  Zn    0.11562   0.83334   0.25000   0.00000  Uiso   1.00
Zn410  Zn    0.21771   0.83333   0.25000   0.00000  Uiso   1.00
O411   O     0.12843   0.77226   0.25000   0.00000  Uiso   1.00
O412   O     0.20488   0.77225   0.25000   0.00000  Uiso   1.00
O413   O     0.14742   0.83335   0.17319   0.00000  Uiso   1.00
O414   O     0.22387   0.83334   0.17319   0.00000  Uiso   1.00
C415   C     0.16681   0.75340   0.24992   0.00000  Uiso   1.00
C416   C     0.19373   0.83274   0.14750   0.00000  Uiso   1.00
C417   C     0.26256   0.79099   0.00594   0.00000  Uiso   1.00
H418   H     0.28036   0.79882   0.07824   0.00000  Uiso   1.00
H419   H     0.29660   0.77524   0.48428   0.00000  Uiso   1.00
C420   C     0.21060   0.82614   0.08844   0.00000  Uiso   1.00
C421   C     0.07404   0.83801   0.44730   0.00000  Uiso   1.00
C422   C     0.06184   0.83769   0.00395   0.00000  Uiso   1.00
C423   C     0.09670   0.82965   0.02647   0.00000  Uiso   1.00
C424   C     0.14439   0.81884   0.49288   0.00000  Uiso   1.00
C425   C     0.15428   0.81025   0.43729   0.00000  Uiso   1.00
C426   C     0.18231   0.81579   0.01333   0.00000  Uiso   1.00
C427   C     0.22656   0.79545   0.48247   0.00000  Uiso   1.00
C428   C     0.23287   0.77965   0.42979   0.00000  Uiso   1.00
C429   C     0.19675   0.78717   0.40794   0.00000  Uiso   1.00
C430   C     0.17727   0.83396   0.06357   0.00000  Uiso   1.00
C431   C     0.25404   0.80533   0.05927   0.00000  Uiso   1.00
C432   C     0.12152   0.82526   0.41279   0.00000  Uiso   1.00
H433   H     0.14627   0.85350   0.08521   0.00000  Uiso   1.00
H434   H     0.08519   0.83101   0.07054   0.00000  Uiso   1.00
H435   H     0.02575   0.84628   0.03114   0.00000  Uiso   1.00
H436   H     0.20159   0.77387   0.36815   0.00000  Uiso   1.00
C437   C     0.19219   0.97838   0.27545   0.00000  Uiso   1.00
H438   H     0.21045   0.96160   0.29842   0.00000  Uiso   1.00
C439   C     0.19230   0.68783   0.27633   0.00000  Uiso   1.00
H440   H     0.21087   0.70409   0.29945   0.00000  Uiso   1.00
C441   C     0.16730   0.70933   0.24861   0.00000  Uiso   1.00
C442   C     0.14302   0.68885   0.21898   0.00000  Uiso   1.00
H443   H     0.12512   0.70642   0.19630   0.00000  Uiso   1.00
C444   C     0.14394   0.97912   0.21624   0.00000  Uiso   1.00
C445   C     0.16780   0.95746   0.24606   0.00000  Uiso   1.00
C446   C     0.31805   0.80237   0.22368   0.00000  Uiso   1.00
H447   H     0.30694   0.77760   0.20249   0.00000  Uiso   1.00
C448   C     0.03258   0.80237   0.22369   0.00000  Uiso   1.00
H449   H     0.05755   0.77763   0.20249   0.00000  Uiso   1.00
N450   N     0.04760   0.83334   0.25002   0.00000  Uiso   1.00
C451   C     0.01462   0.86448   0.27645   0.00000  Uiso   1.00
C452   C     0.30028   0.86417   0.27618   0.00000  Uiso   1.00
H453   H     0.27480   0.88879   0.29680   0.00000  Uiso   1.00
N454   N     0.28573   0.83331   0.25001   0.00000  Uiso   1.00
N455   N     0.12289   0.95825   0.18136   0.00000  Uiso   1.00
O456   O     0.14656   0.92831   0.14844   0.00000  Uiso   1.00
O457   O     0.08413   0.97359   0.17572   0.00000  Uiso   1.00
C458   C     0.02778   0.90038   0.30506   0.00000  Uiso   1.00
H459   H     0.05450   0.89048   0.32266   0.00000  Uiso   1.00
H460   H     0.04226   0.92608   0.27587   0.00000  Uiso   1.00
H461   H     0.32915   0.91243   0.33945   0.00000  Uiso   1.00
C462   C     0.27785   0.75575   0.39573   0.00000  Uiso   1.00
H463   H     0.27633   0.74551   0.35570   0.00000  Uiso   1.00
H464   H     0.30992   0.77585   0.38743   0.00000  Uiso   1.00
H465   H     0.28222   0.72744   0.41778   0.00000  Uiso   1.00
C466   C     0.03644   0.85455   0.42621   0.00000  Uiso   1.00
H467   H     0.00113   0.86037   0.45958   0.00000  Uiso   1.00
H468   H     0.04869   0.88500   0.40695   0.00000  Uiso   1.00
H469   H     0.02978   0.83190   0.39744   0.00000  Uiso   1.00
O470   O     0.46179   0.89442   0.25001   0.00000  Uiso   1.00
O471   O     0.53823   0.89441   0.25001   0.00000  Uiso   1.00
C472   C     0.50033   0.91327   0.24852   0.00000  Uiso   1.00
O473   O     0.44280   0.83333   0.32681   0.00000  Uiso   1.00
O474   O     0.51924   0.83332   0.32681   0.00000  Uiso   1.00
C475   C     0.47285   0.83118   0.35272   0.00000  Uiso   1.00
Zn476  Zn    0.44896   0.83334   0.25000   0.00000  Uiso   1.00
Zn477  Zn    0.55104   0.83333   0.25000   0.00000  Uiso   1.00
O478   O     0.46177   0.77226   0.25000   0.00000  Uiso   1.00
O479   O     0.53821   0.77225   0.25000   0.00000  Uiso   1.00
O480   O     0.48076   0.83335   0.17319   0.00000  Uiso   1.00
O481   O     0.55720   0.83334   0.17319   0.00000  Uiso   1.00
C482   C     0.50014   0.75340   0.24992   0.00000  Uiso   1.00
C483   C     0.52706   0.83274   0.14750   0.00000  Uiso   1.00
C484   C     0.59590   0.79099   0.00594   0.00000  Uiso   1.00
H485   H     0.61369   0.79882   0.07824   0.00000  Uiso   1.00
H486   H     0.62993   0.77524   0.48428   0.00000  Uiso   1.00
C487   C     0.54393   0.82614   0.08844   0.00000  Uiso   1.00
C488   C     0.40737   0.83801   0.44730   0.00000  Uiso   1.00
C489   C     0.39518   0.83769   0.00395   0.00000  Uiso   1.00
C490   C     0.43003   0.82965   0.02647   0.00000  Uiso   1.00
C491   C     0.47772   0.81884   0.49288   0.00000  Uiso   1.00
C492   C     0.48762   0.81025   0.43729   0.00000  Uiso   1.00
C493   C     0.51564   0.81579   0.01333   0.00000  Uiso   1.00
C494   C     0.55990   0.79545   0.48247   0.00000  Uiso   1.00
C495   C     0.56621   0.77965   0.42979   0.00000  Uiso   1.00
C496   C     0.53008   0.78717   0.40794   0.00000  Uiso   1.00
C497   C     0.51061   0.83396   0.06357   0.00000  Uiso   1.00
C498   C     0.58737   0.80533   0.05927   0.00000  Uiso   1.00
C499   C     0.45485   0.82526   0.41279   0.00000  Uiso   1.00
H500   H     0.47961   0.85350   0.08521   0.00000  Uiso   1.00
H501   H     0.41852   0.83101   0.07054   0.00000  Uiso   1.00
H502   H     0.35908   0.84628   0.03114   0.00000  Uiso   1.00
H503   H     0.53493   0.77387   0.36815   0.00000  Uiso   1.00
C504   C     0.52552   0.97838   0.27545   0.00000  Uiso   1.00
H505   H     0.54378   0.96160   0.29842   0.00000  Uiso   1.00
C506   C     0.52563   0.68783   0.27633   0.00000  Uiso   1.00
H507   H     0.54420   0.70409   0.29945   0.00000  Uiso   1.00
C508   C     0.50063   0.70933   0.24861   0.00000  Uiso   1.00
C509   C     0.47635   0.68885   0.21898   0.00000  Uiso   1.00
H510   H     0.45845   0.70642   0.19630   0.00000  Uiso   1.00
C511   C     0.47727   0.97912   0.21624   0.00000  Uiso   1.00
C512   C     0.50114   0.95746   0.24606   0.00000  Uiso   1.00
C513   C     0.65138   0.80237   0.22368   0.00000  Uiso   1.00
H514   H     0.64028   0.77760   0.20249   0.00000  Uiso   1.00
C515   C     0.36592   0.80237   0.22369   0.00000  Uiso   1.00
H516   H     0.39088   0.77763   0.20249   0.00000  Uiso   1.00
N517   N     0.38093   0.83334   0.25002   0.00000  Uiso   1.00
C518   C     0.34795   0.86448   0.27645   0.00000  Uiso   1.00
C519   C     0.63362   0.86417   0.27618   0.00000  Uiso   1.00
H520   H     0.60813   0.88879   0.29680   0.00000  Uiso   1.00
N521   N     0.61906   0.83331   0.25001   0.00000  Uiso   1.00
N522   N     0.45622   0.95825   0.18136   0.00000  Uiso   1.00
O523   O     0.47989   0.92831   0.14844   0.00000  Uiso   1.00
O524   O     0.41746   0.97359   0.17572   0.00000  Uiso   1.00
C525   C     0.36111   0.90038   0.30506   0.00000  Uiso   1.00
H526   H     0.38783   0.89048   0.32266   0.00000  Uiso   1.00
H527   H     0.37560   0.92608   0.27587   0.00000  Uiso   1.00
H528   H     0.66248   0.91243   0.33945   0.00000  Uiso   1.00
C529   C     0.61119   0.75575   0.39573   0.00000  Uiso   1.00
H530   H     0.60967   0.74551   0.35570   0.00000  Uiso   1.00
H531   H     0.64326   0.77585   0.38743   0.00000  Uiso   1.00
H532   H     0.61555   0.72744   0.41778   0.00000  Uiso   1.00
C533   C     0.36977   0.85455   0.42621   0.00000  Uiso   1.00
H534   H     0.33446   0.86037   0.45958   0.00000  Uiso   1.00
H535   H     0.38202   0.88500   0.40695   0.00000  Uiso   1.00
H536   H     0.36312   0.83190   0.39744   0.00000  Uiso   1.00
O537   O     0.79512   0.89442   0.25001   0.00000  Uiso   1.00
O538   O     0.87157   0.89441   0.25001   0.00000  Uiso   1.00
C539   C     0.83367   0.91327   0.24852   0.00000  Uiso   1.00
O540   O     0.77613   0.83333   0.32681   0.00000  Uiso   1.00
O541   O     0.85258   0.83332   0.32681   0.00000  Uiso   1.00
C542   C     0.80618   0.83118   0.35272   0.00000  Uiso   1.00
Zn543  Zn    0.78229   0.83334   0.25000   0.00000  Uiso   1.00
Zn544  Zn    0.88438   0.83333   0.25000   0.00000  Uiso   1.00
O545   O     0.79510   0.77226   0.25000   0.00000  Uiso   1.00
O546   O     0.87154   0.77225   0.25000   0.00000  Uiso   1.00
O547   O     0.81409   0.83335   0.17319   0.00000  Uiso   1.00
O548   O     0.89053   0.83334   0.17319   0.00000  Uiso   1.00
C549   C     0.83348   0.75340   0.24992   0.00000  Uiso   1.00
C550   C     0.86040   0.83274   0.14750   0.00000  Uiso   1.00
C551   C     0.92923   0.79099   0.00594   0.00000  Uiso   1.00
H552   H     0.94702   0.79882   0.07824   0.00000  Uiso   1.00
H553   H     0.96327   0.77524   0.48428   0.00000  Uiso   1.00
C554   C     0.87727   0.82614   0.08844   0.00000  Uiso   1.00
C555   C     0.74070   0.83801   0.44730   0.00000  Uiso   1.00
C556   C     0.72851   0.83769   0.00395   0.00000  Uiso   1.00
C557   C     0.76337   0.82965   0.02647   0.00000  Uiso   1.00
C558   C     0.81105   0.81884   0.49288   0.00000  Uiso   1.00
C559   C     0.82095   0.81025   0.43729   0.00000  Uiso   1.00
C560   C     0.84897   0.81579   0.01333   0.00000  Uiso   1.00
C561   C     0.89323   0.79545   0.48247   0.00000  Uiso   1.00
C562   C     0.89954   0.77965   0.42979   0.00000  Uiso   1.00
C563   C     0.86341   0.78717   0.40794   0.00000  Uiso   1.00
C564   C     0.84394   0.83396   0.06357   0.00000  Uiso   1.00
C565   C     0.92070   0.80533   0.05927   0.00000  Uiso   1.00
C566   C     0.78819   0.82526   0.41279   0.00000  Uiso   1.00
H567   H     0.81294   0.85350   0.08521   0.00000  Uiso   1.00
H568   H     0.75186   0.83101   0.07054   0.00000  Uiso   1.00
H569   H     0.69242   0.84628   0.03114   0.00000  Uiso   1.00
H570   H     0.86826   0.77387   0.36815   0.00000  Uiso   1.00
C571   C     0.85885   0.97838   0.27545   0.00000  Uiso   1.00
H572   H     0.87711   0.96160   0.29842   0.00000  Uiso   1.00
C573   C     0.85897   0.68783   0.27633   0.00000  Uiso   1.00
H574   H     0.87753   0.70409   0.29945   0.00000  Uiso   1.00
C575   C     0.83396   0.70933   0.24861   0.00000  Uiso   1.00
C576   C     0.80969   0.68885   0.21898   0.00000  Uiso   1.00
H577   H     0.79178   0.70642   0.19630   0.00000  Uiso   1.00
C578   C     0.81060   0.97912   0.21624   0.00000  Uiso   1.00
C579   C     0.83447   0.95746   0.24606   0.00000  Uiso   1.00
C580   C     0.98471   0.80237   0.22368   0.00000  Uiso   1.00
H581   H     0.97361   0.77760   0.20249   0.00000  Uiso   1.00
C582   C     0.69925   0.80237   0.22369   0.00000  Uiso   1.00
H583   H     0.72421   0.77763   0.20249   0.00000  Uiso   1.00
N584   N     0.71426   0.83334   0.25002   0.00000  Uiso   1.00
C585   C     0.68128   0.86448   0.27645   0.00000  Uiso   1.00
C586   C     0.96695   0.86417   0.27618   0.00000  Uiso   1.00
H587   H     0.94147   0.88879   0.29680   0.00000  Uiso   1.00
N588   N     0.95239   0.83331   0.25001   0.00000  Uiso   1.00
N589   N     0.78955   0.95825   0.18136   0.00000  Uiso   1.00
O590   O     0.81323   0.92831   0.14844   0.00000  Uiso   1.00
O591   O     0.75079   0.97359   0.17572   0.00000  Uiso   1.00
C592   C     0.69445   0.90038   0.30506   0.00000  Uiso   1.00
H593   H     0.72116   0.89048   0.32266   0.00000  Uiso   1.00
H594   H     0.70893   0.92608   0.27587   0.00000  Uiso   1.00
H595   H     0.99582   0.91243   0.33945   0.00000  Uiso   1.00
C596   C     0.94452   0.75575   0.39573   0.00000  Uiso   1.00
H597   H     0.94300   0.74551   0.35570   0.00000  Uiso   1.00
H598   H     0.97659   0.77585   0.38743   0.00000  Uiso   1.00
H599   H     0.94888   0.72744   0.41778   0.00000  Uiso   1.00
C600   C     0.70310   0.85455   0.42621   0.00000  Uiso   1.00
H601   H     0.66780   0.86037   0.45958   0.00000  Uiso   1.00
H602   H     0.71535   0.88500   0.40695   0.00000  Uiso   1.00
H603   H     0.69645   0.83190   0.39744   0.00000  Uiso   1.00
O604   O     0.12846   0.22775   0.75001   0.00000  Uiso   1.00
O605   O     0.20490   0.22774   0.75001   0.00000  Uiso   1.00
C606   C     0.16700   0.24661   0.74852   0.00000  Uiso   1.00
O607   O     0.10947   0.16666   0.82681   0.00000  Uiso   1.00
O608   O     0.18591   0.16665   0.82681   0.00000  Uiso   1.00
C609   C     0.13952   0.16451   0.85272   0.00000  Uiso   1.00
Zn610  Zn    0.11562   0.16667   0.75000   0.00000  Uiso   1.00
Zn611  Zn    0.21771   0.16666   0.75000   0.00000  Uiso   1.00
O612   O     0.12843   0.10559   0.75000   0.00000  Uiso   1.00
O613   O     0.20488   0.10558   0.75000   0.00000  Uiso   1.00
O614   O     0.14742   0.16668   0.67319   0.00000  Uiso   1.00
O615   O     0.22387   0.16667   0.67319   0.00000  Uiso   1.00
C616   C     0.16681   0.08674   0.74992   0.00000  Uiso   1.00
C617   C     0.19373   0.16608   0.64750   0.00000  Uiso   1.00
C618   C     0.26256   0.12432   0.50594   0.00000  Uiso   1.00
H619   H     0.28036   0.13216   0.57824   0.00000  Uiso   1.00
H620   H     0.29660   0.10857   0.98428   0.00000  Uiso   1.00
C621   C     0.21060   0.15947   0.58844   0.00000  Uiso   1.00
C622   C     0.07404   0.17135   0.94730   0.00000  Uiso   1.00
C623   C     0.06184   0.17102   0.50395   0.00000  Uiso   1.00
C624   C     0.09670   0.16298   0.52647   0.00000  Uiso   1.00
C625   C     0.14439   0.15217   0.99288   0.00000  Uiso   1.00
C626   C     0.15428   0.14358   0.93729   0.00000  Uiso   1.00
C627   C     0.18231   0.14912   0.51333   0.00000  Uiso   1.00
C628   C     0.22656   0.12879   0.98247   0.00000  Uiso   1.00
C629   C     0.23287   0.11298   0.92979   0.00000  Uiso   1.00
C630   C     0.19675   0.12050   0.90794   0.00000  Uiso   1.00
C631   C     0.17727   0.16729   0.56357   0.00000  Uiso   1.00
C632   C     0.25404   0.13867   0.55927   0.00000  Uiso   1.00
C633   C     0.12152   0.15860   0.91279   0.00000  Uiso   1.00
H634   H     0.14627   0.18683   0.58521   0.00000  Uiso   1.00
H635   H     0.08519   0.16434   0.57054   0.00000  Uiso   1.00
H636   H     0.02575   0.17961   0.53114   0.00000  Uiso   1.00
H637   H     0.20159   0.10721   0.86815   0.00000  Uiso   1.00
C638   C     0.19219   0.31171   0.77545   0.00000  Uiso   1.00
H639   H     0.21045   0.29494   0.79842   0.00000  Uiso   1.00
C640   C     0.19230   0.02116   0.77633   0.00000  Uiso   1.00
H641   H     0.21087   0.03742   0.79945   0.00000  Uiso   1.00
C642   C     0.16730   0.04267   0.74861   0.00000  Uiso   1.00
C643   C     0.14302   0.02218   0.71898   0.00000  Uiso   1.00
H644   H     0.12512   0.03976   0.69630   0.00000  Uiso   1.00
C645   C     0.14394   0.31246   0.71624   0.00000  Uiso   1.00
C646   C     0.16780   0.29080   0.74606   0.00000  Uiso   1.00
C647   C     0.31805   0.13571   0.72368   0.00000  Uiso   1.00
H648   H     0.30694   0.11094   0.70249   0.00000  Uiso   1.00
C649   C     0.03258   0.13570   0.72369   0.00000  Uiso   1.00
H650   H     0.05755   0.11096   0.70249   0.00000  Uiso   1.00
N651   N     0.04760   0.16668   0.75002   0.00000  Uiso   1.00
C652   C     0.01462   0.19782   0.77645   0.00000  Uiso   1.00
C653   C     0.30028   0.19751   0.77618   0.00000  Uiso   1.00
H654   H     0.27480   0.22212   0.79680   0.00000  Uiso   1.00
N655   N     0.28573   0.16665   0.75001   0.00000  Uiso   1.00
N656   N     0.12289   0.29158   0.68136   0.00000  Uiso   1.00
O657   O     0.14656   0.26165   0.64844   0.00000  Uiso   1.00
O658   O     0.08413   0.30692   0.67572   0.00000  Uiso   1.00
C659   C     0.02778   0.23372   0.80506   0.00000  Uiso   1.00
H660   H     0.05450   0.22382   0.82266   0.00000  Uiso   1.00
H661   H     0.04226   0.25941   0.77587   0.00000  Uiso   1.00
H662   H     0.32915   0.24576   0.83945   0.00000  Uiso   1.00
C663   C     0.27785   0.08908   0.89573   0.00000  Uiso   1.00
H664   H     0.27633   0.07884   0.85570   0.00000  Uiso   1.00
H665   H     0.30992   0.10918   0.88743   0.00000  Uiso   1.00
H666   H     0.28222   0.06078   0.91778   0.00000  Uiso   1.00
C667   C     0.03644   0.18788   0.92621   0.00000  Uiso   1.00
H668   H     0.00113   0.19370   0.95958   0.00000  Uiso   1.00
H669   H     0.04869   0.21833   0.90695   0.00000  Uiso   1.00
H670   H     0.02978   0.16523   0.89744   0.00000  Uiso   1.00
O671   O     0.46179   0.22775   0.75001   0.00000  Uiso   1.00
O672   O     0.53823   0.22774   0.75001   0.00000  Uiso   1.00
C673   C     0.50033   0.24661   0.74852   0.00000  Uiso   1.00
O674   O     0.44280   0.16666   0.82681   0.00000  Uiso   1.00
O675   O     0.51924   0.16665   0.82681   0.00000  Uiso   1.00
C676   C     0.47285   0.16451   0.85272   0.00000  Uiso   1.00
Zn677  Zn    0.44896   0.16667   0.75000   0.00000  Uiso   1.00
Zn678  Zn    0.55104   0.16666   0.75000   0.00000  Uiso   1.00
O679   O     0.46177   0.10559   0.75000   0.00000  Uiso   1.00
O680   O     0.53821   0.10558   0.75000   0.00000  Uiso   1.00
O681   O     0.48076   0.16668   0.67319   0.00000  Uiso   1.00
O682   O     0.55720   0.16667   0.67319   0.00000  Uiso   1.00
C683   C     0.50014   0.08674   0.74992   0.00000  Uiso   1.00
C684   C     0.52706   0.16608   0.64750   0.00000  Uiso   1.00
C685   C     0.59590   0.12432   0.50594   0.00000  Uiso   1.00
H686   H     0.61369   0.13216   0.57824   0.00000  Uiso   1.00
H687   H     0.62993   0.10857   0.98428   0.00000  Uiso   1.00
C688   C     0.54393   0.15947   0.58844   0.00000  Uiso   1.00
C689   C     0.40737   0.17135   0.94730   0.00000  Uiso   1.00
C690   C     0.39518   0.17102   0.50395   0.00000  Uiso   1.00
C691   C     0.43003   0.16298   0.52647   0.00000  Uiso   1.00
C692   C     0.47772   0.15217   0.99288   0.00000  Uiso   1.00
C693   C     0.48762   0.14358   0.93729   0.00000  Uiso   1.00
C694   C     0.51564   0.14912   0.51333   0.00000  Uiso   1.00
C695   C     0.55990   0.12879   0.98247   0.00000  Uiso   1.00
C696   C     0.56621   0.11298   0.92979   0.00000  Uiso   1.00
C697   C     0.53008   0.12050   0.90794   0.00000  Uiso   1.00
C698   C     0.51061   0.16729   0.56357   0.00000  Uiso   1.00
C699   C     0.58737   0.13867   0.55927   0.00000  Uiso   1.00
C700   C     0.45485   0.15860   0.91279   0.00000  Uiso   1.00
H701   H     0.47961   0.18683   0.58521   0.00000  Uiso   1.00
H702   H     0.41852   0.16434   0.57054   0.00000  Uiso   1.00
H703   H     0.35908   0.17961   0.53114   0.00000  Uiso   1.00
H704   H     0.53493   0.10721   0.86815   0.00000  Uiso   1.00
C705   C     0.52552   0.31171   0.77545   0.00000  Uiso   1.00
H706   H     0.54378   0.29494   0.79842   0.00000  Uiso   1.00
C707   C     0.52563   0.02116   0.77633   0.00000  Uiso   1.00
H708   H     0.54420   0.03742   0.79945   0.00000  Uiso   1.00
C709   C     0.50063   0.04267   0.74861   0.00000  Uiso   1.00
C710   C     0.47635   0.02218   0.71898   0.00000  Uiso   1.00
H711   H     0.45845   0.03976   0.69630   0.00000  Uiso   1.00
C712   C     0.47727   0.31246   0.71624   0.00000  Uiso   1.00
C713   C     0.50114   0.29080   0.74606   0.00000  Uiso   1.00
C714   C     0.65138   0.13571   0.72368   0.00000  Uiso   1.00
H715   H     0.64028   0.11094   0.70249   0.00000  Uiso   1.00
C716   C     0.36592   0.13570   0.72369   0.00000  Uiso   1.00
H717   H     0.39088   0.11096   0.70249   0.00000  Uiso   1.00
N718   N     0.38093   0.16668   0.75002   0.00000  Uiso   1.00
C719   C     0.34795   0.19782   0.77645   0.00000  Uiso   1.00
C720   C     0.63362   0.19751   0.77618   0.00000  Uiso   1.00
H721   H     0.60813   0.22212   0.79680   0.00000  Uiso   1.00
N722   N     0.61906   0.16665   0.75001   0.00000  Uiso   1.00
N723   N     0.45622   0.29158   0.68136   0.00000  Uiso   1.00
O724   O     0.47989   0.26165   0.64844   0.00000  Uiso   1.00
O725   O     0.41746   0.30692   0.67572   0.00000  Uiso   1.00
C726   C     0.36111   0.23372   0.80506   0.00000  Uiso   1.00
H727   H     0.38783   0.22382   0.82266   0.00000  Uiso   1.00
H728   H     0.37560   0.25941   0.77587   0.00000  Uiso   1.00
H729   H     0.66248   0.24576   0.83945   0.00000  Uiso   1.00
C730   C     0.61119   0.08908   0.89573   0.00000  Uiso   1.00
H731   H     0.60967   0.07884   0.85570   0.00000  Uiso   1.00
H732   H     0.64326   0.10918   0.88743   0.00000  Uiso   1.00
H733   H     0.61555   0.06078   0.91778   0.00000  Uiso   1.00
C734   C     0.36977   0.18788   0.92621   0.00000  Uiso   1.00
H735   H     0.33446   0.19370   0.95958   0.00000  Uiso   1.00
H736   H     0.38202   0.21833   0.90695   0.00000  Uiso   1.00
H737   H     0.36312   0.16523   0.89744   0.00000  Uiso   1.00
O738   O     0.79512   0.22775   0.75001   0.00000  Uiso   1.00
O739   O     0.87157   0.22774   0.75001   0.00000  Uiso   1.00
C740   C     0.83367   0.24661   0.74852   0.00000  Uiso   1.00
O741   O     0.77613   0.16666   0.82681   0.00000  Uiso   1.00
O742   O     0.85258   0.16665   0.82681   0.00000  Uiso   1.00
C743   C     0.80618   0.16451   0.85272   0.00000  Uiso   1.00
Zn744  Zn    0.78229   0.16667   0.75000   0.00000  Uiso   1.00
Zn745  Zn    0.88438   0.16666   0.75000   0.00000  Uiso   1.00
O746   O     0.79510   0.10559   0.75000   0.00000  Uiso   1.00
O747   O     0.87154   0.10558   0.75000   0.00000  Uiso   1.00
O748   O     0.81409   0.16668   0.67319   0.00000  Uiso   1.00
O749   O     0.89053   0.16667   0.67319   0.00000  Uiso   1.00
C750   C     0.83348   0.08674   0.74992   0.00000  Uiso   1.00
C751   C     0.86040   0.16608   0.64750   0.00000  Uiso   1.00
C752   C     0.92923   0.12432   0.50594   0.00000  Uiso   1.00
H753   H     0.94702   0.13216   0.57824   0.00000  Uiso   1.00
H754   H     0.96327   0.10857   0.98428   0.00000  Uiso   1.00
C755   C     0.87727   0.15947   0.58844   0.00000  Uiso   1.00
C756   C     0.74070   0.17135   0.94730   0.00000  Uiso   1.00
C757   C     0.72851   0.17102   0.50395   0.00000  Uiso   1.00
C758   C     0.76337   0.16298   0.52647   0.00000  Uiso   1.00
C759   C     0.81105   0.15217   0.99288   0.00000  Uiso   1.00
C760   C     0.82095   0.14358   0.93729   0.00000  Uiso   1.00
C761   C     0.84897   0.14912   0.51333   0.00000  Uiso   1.00
C762   C     0.89323   0.12879   0.98247   0.00000  Uiso   1.00
C763   C     0.89954   0.11298   0.92979   0.00000  Uiso   1.00
C764   C     0.86341   0.12050   0.90794   0.00000  Uiso   1.00
C765   C     0.84394   0.16729   0.56357   0.00000  Uiso   1.00
C766   C     0.92070   0.13867   0.55927   0.00000  Uiso   1.00
C767   C     0.78819   0.15860   0.91279   0.00000  Uiso   1.00
H768   H     0.81294   0.18683   0.58521   0.00000  Uiso   1.00
H769   H     0.75186   0.16434   0.57054   0.00000  Uiso   1.00
H770   H     0.69242   0.17961   0.53114   0.00000  Uiso   1.00
H771   H     0.86826   0.10721   0.86815   0.00000  Uiso   1.00
C772   C     0.85885   0.31171   0.77545   0.00000  Uiso   1.00
H773   H     0.87711   0.29494   0.79842   0.00000  Uiso   1.00
C774   C     0.85897   0.02116   0.77633   0.00000  Uiso   1.00
H775   H     0.87753   0.03742   0.79945   0.00000  Uiso   1.00
C776   C     0.83396   0.04267   0.74861   0.00000  Uiso   1.00
C777   C     0.80969   0.02218   0.71898   0.00000  Uiso   1.00
H778   H     0.79178   0.03976   0.69630   0.00000  Uiso   1.00
C779   C     0.81060   0.31246   0.71624   0.00000  Uiso   1.00
C780   C     0.83447   0.29080   0.74606   0.00000  Uiso   1.00
C781   C     0.98471   0.13571   0.72368   0.00000  Uiso   1.00
H782   H     0.97361   0.11094   0.70249   0.00000  Uiso   1.00
C783   C     0.69925   0.13570   0.72369   0.00000  Uiso   1.00
H784   H     0.72421   0.11096   0.70249   0.00000  Uiso   1.00
N785   N     0.71426   0.16668   0.75002   0.00000  Uiso   1.00
C786   C     0.68128   0.19782   0.77645   0.00000  Uiso   1.00
C787   C     0.96695   0.19751   0.77618   0.00000  Uiso   1.00
H788   H     0.94147   0.22212   0.79680   0.00000  Uiso   1.00
N789   N     0.95239   0.16665   0.75001   0.00000  Uiso   1.00
N790   N     0.78955   0.29158   0.68136   0.00000  Uiso   1.00
O791   O     0.81323   0.26165   0.64844   0.00000  Uiso   1.00
O792   O     0.75079   0.30692   0.67572   0.00000  Uiso   1.00
C793   C     0.69445   0.23372   0.80506   0.00000  Uiso   1.00
H794   H     0.72116   0.22382   0.82266   0.00000  Uiso   1.00
H795   H     0.70893   0.25941   0.77587   0.00000  Uiso   1.00
H796   H     0.99582   0.24576   0.83945   0.00000  Uiso   1.00
C797   C     0.94452   0.08908   0.89573   0.00000  Uiso   1.00
H798   H     0.94300   0.07884   0.85570   0.00000  Uiso   1.00
H799   H     0.97659   0.10918   0.88743   0.00000  Uiso   1.00
H800   H     0.94888   0.06078   0.91778   0.00000  Uiso   1.00
C801   C     0.70310   0.18788   0.92621   0.00000  Uiso   1.00
H802   H     0.66780   0.19370   0.95958   0.00000  Uiso   1.00
H803   H     0.71535   0.21833   0.90695   0.00000  Uiso   1.00
H804   H     0.69645   0.16523   0.89744   0.00000  Uiso   1.00
O805   O     0.12846   0.56108   0.75001   0.00000  Uiso   1.00
O806   O     0.20490   0.56107   0.75001   0.00000  Uiso   1.00
C807   C     0.16700   0.57994   0.74852   0.00000  Uiso   1.00
O808   O     0.10947   0.50000   0.82681   0.00000  Uiso   1.00
O809   O     0.18591   0.49999   0.82681   0.00000  Uiso   1.00
C810   C     0.13952   0.49784   0.85272   0.00000  Uiso   1.00
Zn811  Zn    0.11562   0.50001   0.75000   0.00000  Uiso   1.00
Zn812  Zn    0.21771   0.49999   0.75000   0.00000  Uiso   1.00
O813   O     0.12843   0.43893   0.75000   0.00000  Uiso   1.00
O814   O     0.20488   0.43892   0.75000   0.00000  Uiso   1.00
O815   O     0.14742   0.50001   0.67319   0.00000  Uiso   1.00
O816   O     0.22387   0.50000   0.67319   0.00000  Uiso   1.00
C817   C     0.16681   0.42007   0.74992   0.00000  Uiso   1.00
C818   C     0.19373   0.49941   0.64750   0.00000  Uiso   1.00
C819   C     0.26256   0.45765   0.50594   0.00000  Uiso   1.00
H820   H     0.28036   0.46549   0.57824   0.00000  Uiso   1.00
H821   H     0.29660   0.44190   0.98428   0.00000  Uiso   1.00
C822   C     0.21060   0.49280   0.58844   0.00000  Uiso   1.00
C823   C     0.07404   0.50468   0.94730   0.00000  Uiso   1.00
C824   C     0.06184   0.50435   0.50395   0.00000  Uiso   1.00
C825   C     0.09670   0.49631   0.52647   0.00000  Uiso   1.00
C826   C     0.14439   0.48551   0.99288   0.00000  Uiso   1.00
C827   C     0.15428   0.47691   0.93729   0.00000  Uiso   1.00
C828   C     0.18231   0.48246   0.51333   0.00000  Uiso   1.00
C829   C     0.22656   0.46212   0.98247   0.00000  Uiso   1.00
C830   C     0.23287   0.44631   0.92979   0.00000  Uiso   1.00
C831   C     0.19675   0.45384   0.90794   0.00000  Uiso   1.00
C832   C     0.17727   0.50062   0.56357   0.00000  Uiso   1.00
C833   C     0.25404   0.47200   0.55927   0.00000  Uiso   1.00
C834   C     0.12152   0.49193   0.91279   0.00000  Uiso   1.00
H835   H     0.14627   0.52017   0.58521   0.00000  Uiso   1.00
H836   H     0.08519   0.49767   0.57054   0.00000  Uiso   1.00
H837   H     0.02575   0.51294   0.53114   0.00000  Uiso   1.00
H838   H     0.20159   0.44054   0.86815   0.00000  Uiso   1.00
C839   C     0.19219   0.64504   0.77545   0.00000  Uiso   1.00
H840   H     0.21045   0.62827   0.79842   0.00000  Uiso   1.00
C841   C     0.19230   0.35450   0.77633   0.00000  Uiso   1.00
H842   H     0.21087   0.37076   0.79945   0.00000  Uiso   1.00
C843   C     0.16730   0.37600   0.74861   0.00000  Uiso   1.00
C844   C     0.14302   0.35552   0.71898   0.00000  Uiso   1.00
H845   H     0.12512   0.37309   0.69630   0.00000  Uiso   1.00
C846   C     0.14394   0.64579   0.71624   0.00000  Uiso   1.00
C847   C     0.16780   0.62413   0.74606   0.00000  Uiso   1.00
C848   C     0.31805   0.46904   0.72368   0.00000  Uiso   1.00
H849   H     0.30694   0.44427   0.70249   0.00000  Uiso   1.00
C850   C     0.03258   0.46904   0.72369   0.00000  Uiso   1.00
H851   H     0.05755   0.44429   0.70249   0.00000  Uiso   1.00
N852   N     0.04760   0.50001   0.75002   0.00000  Uiso   1.00
C853   C     0.01462   0.53115   0.77645   0.00000  Uiso   1.00
C854   C     0.30028   0.53084   0.77618   0.00000  Uiso   1.00
H855   H     0.27480   0.55545   0.79680   0.00000  Uiso   1.00
N856   N     0.28573   0.49998   0.75001   0.00000  Uiso   1.00
N857   N     0.12289   0.62492   0.68136   0.00000  Uiso   1.00
O858   O     0.14656   0.59498   0.64844   0.00000  Uiso   1.00
O859   O     0.08413   0.64026   0.67572   0.00000  Uiso   1.00
C860   C     0.02778   0.56705   0.80506   0.00000  Uiso   1.00
H861   H     0.05450   0.55715   0.82266   0.00000  Uiso   1.00
H862   H     0.04226   0.59274   0.77587   0.00000  Uiso   1.00
H863   H     0.32915   0.57909   0.83945   0.00000  Uiso   1.00
C864   C     0.27785   0.42242   0.89573   0.00000  Uiso   1.00
H865   H     0.27633   0.41217   0.85570   0.00000  Uiso   1.00
H866   H     0.30992   0.44251   0.88743   0.00000  Uiso   1.00
H867   H     0.28222   0.39411   0.91778   0.00000  Uiso   1.00
C868   C     0.03644   0.52121   0.92621   0.00000  Uiso   1.00
H869   H     0.00113   0.52703   0.95958   0.00000  Uiso   1.00
H870   H     0.04869   0.55167   0.90695   0.00000  Uiso   1.00
H871   H     0.02978   0.49856   0.89744   0.00000  Uiso   1.00
O872   O     0.46179   0.56108   0.75001   0.00000  Uiso   1.00
O873   O     0.53823   0.56107   0.75001   0.00000  Uiso   1.00
C874   C     0.50033   0.57994   0.74852   0.00000  Uiso   1.00
O875   O     0.44280   0.50000   0.82681   0.00000  Uiso   1.00
O876   O     0.51924   0.49999   0.82681   0.00000  Uiso   1.00
C877   C     0.47285   0.49784   0.85272   0.00000  Uiso   1.00
Zn878  Zn    0.44896   0.50001   0.75000   0.00000  Uiso   1.00
Zn879  Zn    0.55104   0.49999   0.75000   0.00000  Uiso   1.00
O880   O     0.46177   0.43893   0.75000   0.00000  Uiso   1.00
O881   O     0.53821   0.43892   0.75000   0.00000  Uiso   1.00
O882   O     0.48076   0.50001   0.67319   0.00000  Uiso   1.00
O883   O     0.55720   0.50000   0.67319   0.00000  Uiso   1.00
C884   C     0.50014   0.42007   0.74992   0.00000  Uiso   1.00
C885   C     0.52706   0.49941   0.64750   0.00000  Uiso   1.00
C886   C     0.59590   0.45765   0.50594   0.00000  Uiso   1.00
H887   H     0.61369   0.46549   0.57824   0.00000  Uiso   1.00
H888   H     0.62993   0.44190   0.98428   0.00000  Uiso   1.00
C889   C     0.54393   0.49280   0.58844   0.00000  Uiso   1.00
C890   C     0.40737   0.50468   0.94730   0.00000  Uiso   1.00
C891   C     0.39518   0.50435   0.50395   0.00000  Uiso   1.00
C892   C     0.43003   0.49631   0.52647   0.00000  Uiso   1.00
C893   C     0.47772   0.48551   0.99288   0.00000  Uiso   1.00
C894   C     0.48762   0.47691   0.93729   0.00000  Uiso   1.00
C895   C     0.51564   0.48246   0.51333   0.00000  Uiso   1.00
C896   C     0.55990   0.46212   0.98247   0.00000  Uiso   1.00
C897   C     0.56621   0.44631   0.92979   0.00000  Uiso   1.00
C898   C     0.53008   0.45384   0.90794   0.00000  Uiso   1.00
C899   C     0.51061   0.50062   0.56357   0.00000  Uiso   1.00
C900   C     0.58737   0.47200   0.55927   0.00000  Uiso   1.00
C901   C     0.45485   0.49193   0.91279   0.00000  Uiso   1.00
H902   H     0.47961   0.52017   0.58521   0.00000  Uiso   1.00
H903   H     0.41852   0.49767   0.57054   0.00000  Uiso   1.00
H904   H     0.35908   0.51294   0.53114   0.00000  Uiso   1.00
H905   H     0.53493   0.44054   0.86815   0.00000  Uiso   1.00
C906   C     0.52552   0.64504   0.77545   0.00000  Uiso   1.00
H907   H     0.54378   0.62827   0.79842   0.00000  Uiso   1.00
C908   C     0.52563   0.35450   0.77633   0.00000  Uiso   1.00
H909   H     0.54420   0.37076   0.79945   0.00000  Uiso   1.00
C910   C     0.50063   0.37600   0.74861   0.00000  Uiso   1.00
C911   C     0.47635   0.35552   0.71898   0.00000  Uiso   1.00
H912   H     0.45845   0.37309   0.69630   0.00000  Uiso   1.00
C913   C     0.47727   0.64579   0.71624   0.00000  Uiso   1.00
C914   C     0.50114   0.62413   0.74606   0.00000  Uiso   1.00
C915   C     0.65138   0.46904   0.72368   0.00000  Uiso   1.00
H916   H     0.64028   0.44427   0.70249   0.00000  Uiso   1.00
C917   C     0.36592   0.46904   0.72369   0.00000  Uiso   1.00
H918   H     0.39088   0.44429   0.70249   0.00000  Uiso   1.00
N919   N     0.38093   0.50001   0.75002   0.00000  Uiso   1.00
C920   C     0.34795   0.53115   0.77645   0.00000  Uiso   1.00
C921   C     0.63362   0.53084   0.77618   0.00000  Uiso   1.00
H922   H     0.60813   0.55545   0.79680   0.00000  Uiso   1.00
N923   N     0.61906   0.49998   0.75001   0.00000  Uiso   1.00
N924   N     0.45622   0.62492   0.68136   0.00000  Uiso   1.00
O925   O     0.47989   0.59498   0.64844   0.00000  Uiso   1.00
O926   O     0.41746   0.64026   0.67572   0.00000  Uiso   1.00
C927   C     0.36111   0.56705   0.80506   0.00000  Uiso   1.00
H928   H     0.38783   0.55715   0.82266   0.00000  Uiso   1.00
H929   H     0.37560   0.59274   0.77587   0.00000  Uiso   1.00
H930   H     0.66248   0.57909   0.83945   0.00000  Uiso   1.00
C931   C     0.61119   0.42242   0.89573   0.00000  Uiso   1.00
H932   H     0.60967   0.41217   0.85570   0.00000  Uiso   1.00
H933   H     0.64326   0.44251   0.88743   0.00000  Uiso   1.00
H934   H     0.61555   0.39411   0.91778   0.00000  Uiso   1.00
C935   C     0.36977   0.52121   0.92621   0.00000  Uiso   1.00
H936   H     0.33446   0.52703   0.95958   0.00000  Uiso   1.00
H937   H     0.38202   0.55167   0.90695   0.00000  Uiso   1.00
H938   H     0.36312   0.49856   0.89744   0.00000  Uiso   1.00
O939   O     0.79512   0.56108   0.75001   0.00000  Uiso   1.00
O940   O     0.87157   0.56107   0.75001   0.00000  Uiso   1.00
C941   C     0.83367   0.57994   0.74852   0.00000  Uiso   1.00
O942   O     0.77613   0.50000   0.82681   0.00000  Uiso   1.00
O943   O     0.85258   0.49999   0.82681   0.00000  Uiso   1.00
C944   C     0.80618   0.49784   0.85272   0.00000  Uiso   1.00
Zn945  Zn    0.78229   0.50001   0.75000   0.00000  Uiso   1.00
Zn946  Zn    0.88438   0.49999   0.75000   0.00000  Uiso   1.00
O947   O     0.79510   0.43893   0.75000   0.00000  Uiso   1.00
O948   O     0.87154   0.43892   0.75000   0.00000  Uiso   1.00
O949   O     0.81409   0.50001   0.67319   0.00000  Uiso   1.00
O950   O     0.89053   0.50000   0.67319   0.00000  Uiso   1.00
C951   C     0.83348   0.42007   0.74992   0.00000  Uiso   1.00
C952   C     0.86040   0.49941   0.64750   0.00000  Uiso   1.00
C953   C     0.92923   0.45765   0.50594   0.00000  Uiso   1.00
H954   H     0.94702   0.46549   0.57824   0.00000  Uiso   1.00
H955   H     0.96327   0.44190   0.98428   0.00000  Uiso   1.00
C956   C     0.87727   0.49280   0.58844   0.00000  Uiso   1.00
C957   C     0.74070   0.50468   0.94730   0.00000  Uiso   1.00
C958   C     0.72851   0.50435   0.50395   0.00000  Uiso   1.00
C959   C     0.76337   0.49631   0.52647   0.00000  Uiso   1.00
C960   C     0.81105   0.48551   0.99288   0.00000  Uiso   1.00
C961   C     0.82095   0.47691   0.93729   0.00000  Uiso   1.00
C962   C     0.84897   0.48246   0.51333   0.00000  Uiso   1.00
C963   C     0.89323   0.46212   0.98247   0.00000  Uiso   1.00
C964   C     0.89954   0.44631   0.92979   0.00000  Uiso   1.00
C965   C     0.86341   0.45384   0.90794   0.00000  Uiso   1.00
C966   C     0.84394   0.50062   0.56357   0.00000  Uiso   1.00
C967   C     0.92070   0.47200   0.55927   0.00000  Uiso   1.00
C968   C     0.78819   0.49193   0.91279   0.00000  Uiso   1.00
H969   H     0.81294   0.52017   0.58521   0.00000  Uiso   1.00
H970   H     0.75186   0.49767   0.57054   0.00000  Uiso   1.00
H971   H     0.69242   0.51294   0.53114   0.00000  Uiso   1.00
H972   H     0.86826   0.44054   0.86815   0.00000  Uiso   1.00
C973   C     0.85885   0.64504   0.77545   0.00000  Uiso   1.00
H974   H     0.87711   0.62827   0.79842   0.00000  Uiso   1.00
C975   C     0.85897   0.35450   0.77633   0.00000  Uiso   1.00
H976   H     0.87753   0.37076   0.79945   0.00000  Uiso   1.00
C977   C     0.83396   0.37600   0.74861   0.00000  Uiso   1.00
C978   C     0.80969   0.35552   0.71898   0.00000  Uiso   1.00
H979   H     0.79178   0.37309   0.69630   0.00000  Uiso   1.00
C980   C     0.81060   0.64579   0.71624   0.00000  Uiso   1.00
C981   C     0.83447   0.62413   0.74606   0.00000  Uiso   1.00
C982   C     0.98471   0.46904   0.72368   0.00000  Uiso   1.00
H983   H     0.97361   0.44427   0.70249   0.00000  Uiso   1.00
C984   C     0.69925   0.46904   0.72369   0.00000  Uiso   1.00
H985   H     0.72421   0.44429   0.70249   0.00000  Uiso   1.00
N986   N     0.71426   0.50001   0.75002   0.00000  Uiso   1.00
C987   C     0.68128   0.53115   0.77645   0.00000  Uiso   1.00
C988   C     0.96695   0.53084   0.77618   0.00000  Uiso   1.00
H989   H     0.94147   0.55545   0.79680   0.00000  Uiso   1.00
N990   N     0.95239   0.49998   0.75001   0.00000  Uiso   1.00
N991   N     0.78955   0.62492   0.68136   0.00000  Uiso   1.00
O992   O     0.81323   0.59498   0.64844   0.00000  Uiso   1.00
O993   O     0.75079   0.64026   0.67572   0.00000  Uiso   1.00
C994   C     0.69445   0.56705   0.80506   0.00000  Uiso   1.00
H995   H     0.72116   0.55715   0.82266   0.00000  Uiso   1.00
H996   H     0.70893   0.59274   0.77587   0.00000  Uiso   1.00
H997   H     0.99582   0.57909   0.83945   0.00000  Uiso   1.00
C998   C     0.94452   0.42242   0.89573   0.00000  Uiso   1.00
H999   H     0.94300   0.41217   0.85570   0.00000  Uiso   1.00
H1000  H     0.97659   0.44251   0.88743   0.00000  Uiso   1.00
H1001  H     0.94888   0.39411   0.91778   0.00000  Uiso   1.00
C1002  C     0.70310   0.52121   0.92621   0.00000  Uiso   1.00
H1003  H     0.66780   0.52703   0.95958   0.00000  Uiso   1.00
H1004  H     0.71535   0.55167   0.90695   0.00000  Uiso   1.00
H1005  H     0.69645   0.49856   0.89744   0.00000  Uiso   1.00
O1006  O     0.12846   0.89442   0.75001   0.00000  Uiso   1.00
O1007  O     0.20490   0.89441   0.75001   0.00000  Uiso   1.00
C1008  C     0.16700   0.91327   0.74852   0.00000  Uiso   1.00
O1009  O     0.10947   0.83333   0.82681   0.00000  Uiso   1.00
O1010  O     0.18591   0.83332   0.82681   0.00000  Uiso   1.00
C1011  C     0.13952   0.83118   0.85272   0.00000  Uiso   1.00
Zn1012 Zn    0.11562   0.83334   0.75000   0.00000  Uiso   1.00
Zn1013 Zn    0.21771   0.83333   0.75000   0.00000  Uiso   1.00
O1014  O     0.12843   0.77226   0.75000   0.00000  Uiso   1.00
O1015  O     0.20488   0.77225   0.75000   0.00000  Uiso   1.00
O1016  O     0.14742   0.83335   0.67319   0.00000  Uiso   1.00
O1017  O     0.22387   0.83334   0.67319   0.00000  Uiso   1.00
C1018  C     0.16681   0.75340   0.74992   0.00000  Uiso   1.00
C1019  C     0.19373   0.83274   0.64750   0.00000  Uiso   1.00
C1020  C     0.26256   0.79099   0.50594   0.00000  Uiso   1.00
H1021  H     0.28036   0.79882   0.57824   0.00000  Uiso   1.00
H1022  H     0.29660   0.77524   0.98428   0.00000  Uiso   1.00
C1023  C     0.21060   0.82614   0.58844   0.00000  Uiso   1.00
C1024  C     0.07404   0.83801   0.94730   0.00000  Uiso   1.00
C1025  C     0.06184   0.83769   0.50395   0.00000  Uiso   1.00
C1026  C     0.09670   0.82965   0.52647   0.00000  Uiso   1.00
C1027  C     0.14439   0.81884   0.99288   0.00000  Uiso   1.00
C1028  C     0.15428   0.81025   0.93729   0.00000  Uiso   1.00
C1029  C     0.18231   0.81579   0.51333   0.00000  Uiso   1.00
C1030  C     0.22656   0.79545   0.98247   0.00000  Uiso   1.00
C1031  C     0.23287   0.77965   0.92979   0.00000  Uiso   1.00
C1032  C     0.19675   0.78717   0.90794   0.00000  Uiso   1.00
C1033  C     0.17727   0.83396   0.56357   0.00000  Uiso   1.00
C1034  C     0.25404   0.80533   0.55927   0.00000  Uiso   1.00
C1035  C     0.12152   0.82526   0.91279   0.00000  Uiso   1.00
H1036  H     0.14627   0.85350   0.58521   0.00000  Uiso   1.00
H1037  H     0.08519   0.83101   0.57054   0.00000  Uiso   1.00
H1038  H     0.02575   0.84628   0.53114   0.00000  Uiso   1.00
H1039  H     0.20159   0.77387   0.86815   0.00000  Uiso   1.00
C1040  C     0.19219   0.97838   0.77545   0.00000  Uiso   1.00
H1041  H     0.21045   0.96160   0.79842   0.00000  Uiso   1.00
C1042  C     0.19230   0.68783   0.77633   0.00000  Uiso   1.00
H1043  H     0.21087   0.70409   0.79945   0.00000  Uiso   1.00
C1044  C     0.16730   0.70933   0.74861   0.00000  Uiso   1.00
C1045  C     0.14302   0.68885   0.71898   0.00000  Uiso   1.00
H1046  H     0.12512   0.70642   0.69630   0.00000  Uiso   1.00
C1047  C     0.14394   0.97912   0.71624   0.00000  Uiso   1.00
C1048  C     0.16780   0.95746   0.74606   0.00000  Uiso   1.00
C1049  C     0.31805   0.80237   0.72368   0.00000  Uiso   1.00
H1050  H     0.30694   0.77760   0.70249   0.00000  Uiso   1.00
C1051  C     0.03258   0.80237   0.72369   0.00000  Uiso   1.00
H1052  H     0.05755   0.77763   0.70249   0.00000  Uiso   1.00
N1053  N     0.04760   0.83334   0.75002   0.00000  Uiso   1.00
C1054  C     0.01462   0.86448   0.77645   0.00000  Uiso   1.00
C1055  C     0.30028   0.86417   0.77618   0.00000  Uiso   1.00
H1056  H     0.27480   0.88879   0.79680   0.00000  Uiso   1.00
N1057  N     0.28573   0.83331   0.75001   0.00000  Uiso   1.00
N1058  N     0.12289   0.95825   0.68136   0.00000  Uiso   1.00
O1059  O     0.14656   0.92831   0.64844   0.00000  Uiso   1.00
O1060  O     0.08413   0.97359   0.67572   0.00000  Uiso   1.00
C1061  C     0.02778   0.90038   0.80506   0.00000  Uiso   1.00
H1062  H     0.05450   0.89048   0.82266   0.00000  Uiso   1.00
H1063  H     0.04226   0.92608   0.77587   0.00000  Uiso   1.00
H1064  H     0.32915   0.91243   0.83945   0.00000  Uiso   1.00
C1065  C     0.27785   0.75575   0.89573   0.00000  Uiso   1.00
H1066  H     0.27633   0.74551   0.85570   0.00000  Uiso   1.00
H1067  H     0.30992   0.77585   0.88743   0.00000  Uiso   1.00
H1068  H     0.28222   0.72744   0.91778   0.00000  Uiso   1.00
C1069  C     0.03644   0.85455   0.92621   0.00000  Uiso   1.00
H1070  H     0.00113   0.86037   0.95958   0.00000  Uiso   1.00
H1071  H     0.04869   0.88500   0.90695   0.00000  Uiso   1.00
H1072  H     0.02978   0.83190   0.89744   0.00000  Uiso   1.00
O1073  O     0.46179   0.89442   0.75001   0.00000  Uiso   1.00
O1074  O     0.53823   0.89441   0.75001   0.00000  Uiso   1.00
C1075  C     0.50033   0.91327   0.74852   0.00000  Uiso   1.00
O1076  O     0.44280   0.83333   0.82681   0.00000  Uiso   1.00
O1077  O     0.51924   0.83332   0.82681   0.00000  Uiso   1.00
C1078  C     0.47285   0.83118   0.85272   0.00000  Uiso   1.00
Zn1079 Zn    0.44896   0.83334   0.75000   0.00000  Uiso   1.00
Zn1080 Zn    0.55104   0.83333   0.75000   0.00000  Uiso   1.00
O1081  O     0.46177   0.77226   0.75000   0.00000  Uiso   1.00
O1082  O     0.53821   0.77225   0.75000   0.00000  Uiso   1.00
O1083  O     0.48076   0.83335   0.67319   0.00000  Uiso   1.00
O1084  O     0.55720   0.83334   0.67319   0.00000  Uiso   1.00
C1085  C     0.50014   0.75340   0.74992   0.00000  Uiso   1.00
C1086  C     0.52706   0.83274   0.64750   0.00000  Uiso   1.00
C1087  C     0.59590   0.79099   0.50594   0.00000  Uiso   1.00
H1088  H     0.61369   0.79882   0.57824   0.00000  Uiso   1.00
H1089  H     0.62993   0.77524   0.98428   0.00000  Uiso   1.00
C1090  C     0.54393   0.82614   0.58844   0.00000  Uiso   1.00
C1091  C     0.40737   0.83801   0.94730   0.00000  Uiso   1.00
C1092  C     0.39518   0.83769   0.50395   0.00000  Uiso   1.00
C1093  C     0.43003   0.82965   0.52647   0.00000  Uiso   1.00
C1094  C     0.47772   0.81884   0.99288   0.00000  Uiso   1.00
C1095  C     0.48762   0.81025   0.93729   0.00000  Uiso   1.00
C1096  C     0.51564   0.81579   0.51333   0.00000  Uiso   1.00
C1097  C     0.55990   0.79545   0.98247   0.00000  Uiso   1.00
C1098  C     0.56621   0.77965   0.92979   0.00000  Uiso   1.00
C1099  C     0.53008   0.78717   0.90794   0.00000  Uiso   1.00
C1100  C     0.51061   0.83396   0.56357   0.00000  Uiso   1.00
C1101  C     0.58737   0.80533   0.55927   0.00000  Uiso   1.00
C1102  C     0.45485   0.82526   0.91279   0.00000  Uiso   1.00
H1103  H     0.47961   0.85350   0.58521   0.00000  Uiso   1.00
H1104  H     0.41852   0.83101   0.57054   0.00000  Uiso   1.00
H1105  H     0.35908   0.84628   0.53114   0.00000  Uiso   1.00
H1106  H     0.53493   0.77387   0.86815   0.00000  Uiso   1.00
C1107  C     0.52552   0.97838   0.77545   0.00000  Uiso   1.00
H1108  H     0.54378   0.96160   0.79842   0.00000  Uiso   1.00
C1109  C     0.52563   0.68783   0.77633   0.00000  Uiso   1.00
H1110  H     0.54420   0.70409   0.79945   0.00000  Uiso   1.00
C1111  C     0.50063   0.70933   0.74861   0.00000  Uiso   1.00
C1112  C     0.47635   0.68885   0.71898   0.00000  Uiso   1.00
H1113  H     0.45845   0.70642   0.69630   0.00000  Uiso   1.00
C1114  C     0.47727   0.97912   0.71624   0.00000  Uiso   1.00
C1115  C     0.50114   0.95746   0.74606   0.00000  Uiso   1.00
C1116  C     0.65138   0.80237   0.72368   0.00000  Uiso   1.00
H1117  H     0.64028   0.77760   0.70249   0.00000  Uiso   1.00
C1118  C     0.36592   0.80237   0.72369   0.00000  Uiso   1.00
H1119  H     0.39088   0.77763   0.70249   0.00000  Uiso   1.00
N1120  N     0.38093   0.83334   0.75002   0.00000  Uiso   1.00
C1121  C     0.34795   0.86448   0.77645   0.00000  Uiso   1.00
C1122  C     0.63362   0.86417   0.77618   0.00000  Uiso   1.00
H1123  H     0.60813   0.88879   0.79680   0.00000  Uiso   1.00
N1124  N     0.61906   0.83331   0.75001   0.00000  Uiso   1.00
N1125  N     0.45622   0.95825   0.68136   0.00000  Uiso   1.00
O1126  O     0.47989   0.92831   0.64844   0.00000  Uiso   1.00
O1127  O     0.41746   0.97359   0.67572   0.00000  Uiso   1.00
C1128  C     0.36111   0.90038   0.80506   0.00000  Uiso   1.00
H1129  H     0.38783   0.89048   0.82266   0.00000  Uiso   1.00
H1130  H     0.37560   0.92608   0.77587   0.00000  Uiso   1.00
H1131  H     0.66248   0.91243   0.83945   0.00000  Uiso   1.00
C1132  C     0.61119   0.75575   0.89573   0.00000  Uiso   1.00
H1133  H     0.60967   0.74551   0.85570   0.00000  Uiso   1.00
H1134  H     0.64326   0.77585   0.88743   0.00000  Uiso   1.00
H1135  H     0.61555   0.72744   0.91778   0.00000  Uiso   1.00
C1136  C     0.36977   0.85455   0.92621   0.00000  Uiso   1.00
H1137  H     0.33446   0.86037   0.95958   0.00000  Uiso   1.00
H1138  H     0.38202   0.88500   0.90695   0.00000  Uiso   1.00
H1139  H     0.36312   0.83190   0.89744   0.00000  Uiso   1.00
O1140  O     0.79512   0.89442   0.75001   0.00000  Uiso   1.00
O1141  O     0.87157   0.89441   0.75001   0.00000  Uiso   1.00
C1142  C     0.83367   0.91327   0.74852   0.00000  Uiso   1.00
O1143  O     0.77613   0.83333   0.82681   0.00000  Uiso   1.00
O1144  O     0.85258   0.83332   0.82681   0.00000  Uiso   1.00
C1145  C     0.80618   0.83118   0.85272   0.00000  Uiso   1.00
Zn1146 Zn    0.78229   0.83334   0.75000   0.00000  Uiso   1.00
Zn1147 Zn    0.88438   0.83333   0.75000   0.00000  Uiso   1.00
O1148  O     0.79510   0.77226   0.75000   0.00000  Uiso   1.00
O1149  O     0.87154   0.77225   0.75000   0.00000  Uiso   1.00
O1150  O     0.81409   0.83335   0.67319   0.00000  Uiso   1.00
O1151  O     0.89053   0.83334   0.67319   0.00000  Uiso   1.00
C1152  C     0.83348   0.75340   0.74992   0.00000  Uiso   1.00
C1153  C     0.86040   0.83274   0.64750   0.00000  Uiso   1.00
C1154  C     0.92923   0.79099   0.50594   0.00000  Uiso   1.00
H1155  H     0.94702   0.79882   0.57824   0.00000  Uiso   1.00
H1156  H     0.96327   0.77524   0.98428   0.00000  Uiso   1.00
C1157  C     0.87727   0.82614   0.58844   0.00000  Uiso   1.00
C1158  C     0.74070   0.83801   0.94730   0.00000  Uiso   1.00
C1159  C     0.72851   0.83769   0.50395   0.00000  Uiso   1.00
C1160  C     0.76337   0.82965   0.52647   0.00000  Uiso   1.00
C1161  C     0.81105   0.81884   0.99288   0.00000  Uiso   1.00
C1162  C     0.82095   0.81025   0.93729   0.00000  Uiso   1.00
C1163  C     0.84897   0.81579   0.51333   0.00000  Uiso   1.00
C1164  C     0.89323   0.79545   0.98247   0.00000  Uiso   1.00
C1165  C     0.89954   0.77965   0.92979   0.00000  Uiso   1.00
C1166  C     0.86341   0.78717   0.90794   0.00000  Uiso   1.00
C1167  C     0.84394   0.83396   0.56357   0.00000  Uiso   1.00
C1168  C     0.92070   0.80533   0.55927   0.00000  Uiso   1.00
C1169  C     0.78819   0.82526   0.91279   0.00000  Uiso   1.00
H1170  H     0.81294   0.85350   0.58521   0.00000  Uiso   1.00
H1171  H     0.75186   0.83101   0.57054   0.00000  Uiso   1.00
H1172  H     0.69242   0.84628   0.53114   0.00000  Uiso   1.00
H1173  H     0.86826   0.77387   0.86815   0.00000  Uiso   1.00
C1174  C     0.85885   0.97838   0.77545   0.00000  Uiso   1.00
H1175  H     0.87711   0.96160   0.79842   0.00000  Uiso   1.00
C1176  C     0.85897   0.68783   0.77633   0.00000  Uiso   1.00
H1177  H     0.87753   0.70409   0.79945   0.00000  Uiso   1.00
C1178  C     0.83396   0.70933   0.74861   0.00000  Uiso   1.00
C1179  C     0.80969   0.68885   0.71898   0.00000  Uiso   1.00
H1180  H     0.79178   0.70642   0.69630   0.00000  Uiso   1.00
C1181  C     0.81060   0.97912   0.71624   0.00000  Uiso   1.00
C1182  C     0.83447   0.95746   0.74606   0.00000  Uiso   1.00
C1183  C     0.98471   0.80237   0.72368   0.00000  Uiso   1.00
H1184  H     0.97361   0.77760   0.70249   0.00000  Uiso   1.00
C1185  C     0.69925   0.80237   0.72369   0.00000  Uiso   1.00
H1186  H     0.72421   0.77763   0.70249   0.00000  Uiso   1.00
N1187  N     0.71426   0.83334   0.75002   0.00000  Uiso   1.00
C1188  C     0.68128   0.86448   0.77645   0.00000  Uiso   1.00
C1189  C     0.96695   0.86417   0.77618   0.00000  Uiso   1.00
H1190  H     0.94147   0.88879   0.79680   0.00000  Uiso   1.00
N1191  N     0.95239   0.83331   0.75001   0.00000  Uiso   1.00
N1192  N     0.78955   0.95825   0.68136   0.00000  Uiso   1.00
O1193  O     0.81323   0.92831   0.64844   0.00000  Uiso   1.00
O1194  O     0.75079   0.97359   0.67572   0.00000  Uiso   1.00
C1195  C     0.69445   0.90038   0.80506   0.00000  Uiso   1.00
H1196  H     0.72116   0.89048   0.82266   0.00000  Uiso   1.00
H1197  H     0.70893   0.92608   0.77587   0.00000  Uiso   1.00
H1198  H     0.99582   0.91243   0.83945   0.00000  Uiso   1.00
C1199  C     0.94452   0.75575   0.89573   0.00000  Uiso   1.00
H1200  H     0.94300   0.74551   0.85570   0.00000  Uiso   1.00
H1201  H     0.97659   0.77585   0.88743   0.00000  Uiso   1.00
H1202  H     0.94888   0.72744   0.91778   0.00000  Uiso   1.00
C1203  C     0.70310   0.85455   0.92621   0.00000  Uiso   1.00
H1204  H     0.66780   0.86037   0.95958   0.00000  Uiso   1.00
H1205  H     0.71535   0.88500   0.90695   0.00000  Uiso   1.00
H1206  H     0.69645   0.83190   0.89744   0.00000  Uiso   1.00
loop_
_geom_bond_atom_site_label_1
_geom_bond_atom_site_label_2
_geom_bond_distance
_geom_bond_site_symmetry_2
_ccdc_geom_bond_type
O1     Zn7     1.995   .     S
O1     C3      1.285   .     A
O2     C3      1.283   .     A
O2     Zn8     1.988   .     S
C3     C43     1.417   .     S
O4     Zn7     1.953   .     S
O4     C6      1.299   .     A
O5     Zn8     1.893   .     S
O5     C6      1.301   .     A
C6     C30     1.485   .     S
Zn7    N48     2.016   .     S
Zn7    O11     1.893   .     S
Zn7    O9      1.988   .     S
Zn8    O12     1.953   .     S
Zn8    O10     1.995   .     S
Zn8    N52     2.016   .     S
O9     C13     1.282   .     A
O10    C13     1.285   .     A
O11    C14     1.295   .     A
O12    C14     1.295   .     A
C13    C39     1.410   .     S
C14    C18     1.458   .     S
C15    C29     1.399   .     A
C15    H620    1.082   1_554 S
C15    C628    1.415   1_554 S
H16    C29     1.083   .     S
H17    C618    1.082   .     S
C18    C29     1.399   .     A
C18    C28     1.385   .     A
C19    C64     1.503   .     S
C19    C30     1.428   .     A
C19    C623    1.396   .     S
C20    C21     1.383   .     A
C20    H33     1.084   .     S
C20    C622    1.396   1_554 S
C21    H32     1.081   .     S
C21    C625    1.410   1_554 S
C22    C23     1.402   .     A
C22    C624    1.410   .     S
C22    C627    1.409   .     S
C23    C27     1.415   .     A
C23    C30     1.423   .     A
C24    C28     1.390   .     A
C24    C625    1.409   1_554 S
C24    C628    1.419   1_554 S
C25    C26     1.412   .     A
C25    C618    1.415   .     S
C25    C627    1.419   .     S
C26    C27     1.402   .     A
C26    C60     1.509   .     S
C27    H34     1.082   .     S
C28    H31     1.080   .     S
C35    C43     1.399   .     A
C35    H36     1.084   .     S
C35    C238    1.369   .     S
C37    H38     1.084   .     S
C37    C39     1.390   .     A
C37    C437    1.369   1_545 S
C39    C40     1.394   .     A
C40    H41     1.085   .     S
C40    C444    1.379   1_545 S
C42    N53     1.439   .     S
C42    C43     1.409   .     A
C42    C241    1.379   .     S
C44    N52     1.368   .     A
C44    H45     1.082   .     S
C44    C113    1.419   .     S
C46    N48     1.367   .     A
C46    H47     1.082   .     S
C46    C178    1.419   1_455 S
N48    C49     1.383   .     A
C49    C56     1.494   .     S
C49    C184    1.415   1_455 S
C50    N52     1.355   .     A
C50    H51     1.083   .     S
C50    C116    1.415   .     S
N53    O54     1.301   .     A
N53    O55     1.301   .     A
C56    H58     1.109   .     S
C56    H57     1.094   .     S
C56    H193    1.111   1_455 S
H59    C123    1.111   .     S
C60    H62     1.110   .     S
C60    H63     1.110   .     S
C60    H61     1.111   .     S
C64    H67     1.108   .     S
C64    H65     1.111   .     S
C64    H66     1.106   .     S
O68    Zn74    1.995   .     S
O68    C70     1.285   .     A
O69    C70     1.283   .     A
O69    Zn75    1.988   .     S
C70    C110    1.417   .     S
O71    Zn74    1.953   .     S
O71    C73     1.299   .     A
O72    Zn75    1.893   .     S
O72    C73     1.301   .     A
C73    C97     1.485   .     S
Zn74   N115    2.016   .     S
Zn74   O78     1.893   .     S
Zn74   O76     1.988   .     S
Zn75   O79     1.953   .     S
Zn75   O77     1.995   .     S
Zn75   N119    2.016   .     S
O76    C80     1.282   .     A
O77    C80     1.285   .     A
O78    C81     1.295   .     A
O79    C81     1.295   .     A
C80    C106    1.410   .     S
C81    C85     1.458   .     S
C82    C96     1.399   .     A
C82    H687    1.082   1_554 S
C82    C695    1.415   1_554 S
H83    C96     1.083   .     S
H84    C685    1.082   .     S
C85    C96     1.399   .     A
C85    C95     1.385   .     A
C86    C131    1.503   .     S
C86    C97     1.428   .     A
C86    C690    1.396   .     S
C87    C88     1.383   .     A
C87    H100    1.084   .     S
C87    C689    1.396   1_554 S
C88    H99     1.081   .     S
C88    C692    1.410   1_554 S
C89    C90     1.402   .     A
C89    C691    1.410   .     S
C89    C694    1.409   .     S
C90    C94     1.415   .     A
C90    C97     1.423   .     A
C91    C95     1.390   .     A
C91    C692    1.409   1_554 S
C91    C695    1.419   1_554 S
C92    C93     1.412   .     A
C92    C685    1.415   .     S
C92    C694    1.419   .     S
C93    C94     1.402   .     A
C93    C127    1.509   .     S
C94    H101    1.082   .     S
C95    H98     1.080   .     S
C102   C110    1.399   .     A
C102   H103    1.084   .     S
C102   C305    1.369   .     S
C104   H105    1.084   .     S
C104   C106    1.390   .     A
C104   C504    1.369   1_545 S
C106   C107    1.394   .     A
C107   H108    1.085   .     S
C107   C511    1.379   1_545 S
C109   N120    1.439   .     S
C109   C110    1.409   .     A
C109   C308    1.379   .     S
C111   N119    1.368   .     A
C111   H112    1.082   .     S
C111   C180    1.419   .     S
C113   N115    1.367   .     A
C113   H114    1.082   .     S
N115   C116    1.383   .     A
C116   C123    1.494   .     S
C117   N119    1.355   .     A
C117   H118    1.083   .     S
C117   C183    1.415   .     S
N120   O121    1.301   .     A
N120   O122    1.301   .     A
C123   H125    1.109   .     S
C123   H124    1.094   .     S
H126   C190    1.111   .     S
C127   H129    1.110   .     S
C127   H130    1.110   .     S
C127   H128    1.111   .     S
C131   H134    1.108   .     S
C131   H132    1.111   .     S
C131   H133    1.106   .     S
O135   Zn141   1.995   .     S
O135   C137    1.285   .     A
O136   C137    1.283   .     A
O136   Zn142   1.988   .     S
C137   C177    1.417   .     S
O138   Zn141   1.953   .     S
O138   C140    1.299   .     A
O139   Zn142   1.893   .     S
O139   C140    1.301   .     A
C140   C164    1.485   .     S
Zn141  N182    2.016   .     S
Zn141  O145    1.893   .     S
Zn141  O143    1.988   .     S
Zn142  O146    1.953   .     S
Zn142  O144    1.995   .     S
Zn142  N186    2.016   .     S
O143   C147    1.282   .     A
O144   C147    1.285   .     A
O145   C148    1.295   .     A
O146   C148    1.295   .     A
C147   C173    1.410   .     S
C148   C152    1.458   .     S
C149   C163    1.399   .     A
C149   H754    1.082   1_554 S
C149   C762    1.415   1_554 S
H150   C163    1.083   .     S
H151   C752    1.082   .     S
C152   C163    1.399   .     A
C152   C162    1.385   .     A
C153   C198    1.503   .     S
C153   C164    1.428   .     A
C153   C757    1.396   .     S
C154   C155    1.383   .     A
C154   H167    1.084   .     S
C154   C756    1.396   1_554 S
C155   H166    1.081   .     S
C155   C759    1.410   1_554 S
C156   C157    1.402   .     A
C156   C758    1.410   .     S
C156   C761    1.409   .     S
C157   C161    1.415   .     A
C157   C164    1.423   .     A
C158   C162    1.390   .     A
C158   C759    1.409   1_554 S
C158   C762    1.419   1_554 S
C159   C160    1.412   .     A
C159   C752    1.415   .     S
C159   C761    1.419   .     S
C160   C161    1.402   .     A
C160   C194    1.509   .     S
C161   H168    1.082   .     S
C162   H165    1.080   .     S
C169   C177    1.399   .     A
C169   H170    1.084   .     S
C169   C372    1.369   .     S
C171   H172    1.084   .     S
C171   C173    1.390   .     A
C171   C571    1.369   1_545 S
C173   C174    1.394   .     A
C174   H175    1.085   .     S
C174   C578    1.379   1_545 S
C176   N187    1.439   .     S
C176   C177    1.409   .     A
C176   C375    1.379   .     S
C178   N186    1.368   .     A
C178   H179    1.082   .     S
C178   C46     1.419   1_655 S
C180   N182    1.367   .     A
C180   H181    1.082   .     S
N182   C183    1.383   .     A
C183   C190    1.494   .     S
C184   N186    1.355   .     A
C184   H185    1.083   .     S
C184   C49     1.415   1_655 S
N187   O188    1.301   .     A
N187   O189    1.301   .     A
C190   H192    1.109   .     S
C190   H191    1.094   .     S
H193   C56     1.111   1_655 S
C194   H196    1.110   .     S
C194   H197    1.110   .     S
C194   H195    1.111   .     S
C198   H201    1.108   .     S
C198   H199    1.111   .     S
C198   H200    1.106   .     S
O202   Zn208   1.995   .     S
O202   C204    1.285   .     A
O203   C204    1.283   .     A
O203   Zn209   1.988   .     S
C204   C244    1.417   .     S
O205   Zn208   1.953   .     S
O205   C207    1.299   .     A
O206   Zn209   1.893   .     S
O206   C207    1.301   .     A
C207   C231    1.485   .     S
Zn208  N249    2.016   .     S
Zn208  O212    1.893   .     S
Zn208  O210    1.988   .     S
Zn209  O213    1.953   .     S
Zn209  O211    1.995   .     S
Zn209  N253    2.016   .     S
O210   C214    1.282   .     A
O211   C214    1.285   .     A
O212   C215    1.295   .     A
O213   C215    1.295   .     A
C214   C240    1.410   .     S
C215   C219    1.458   .     S
C216   C230    1.399   .     A
C216   H821    1.082   1_554 S
C216   C829    1.415   1_554 S
H217   C230    1.083   .     S
H218   C819    1.082   .     S
C219   C230    1.399   .     A
C219   C229    1.385   .     A
C220   C265    1.503   .     S
C220   C231    1.428   .     A
C220   C824    1.396   .     S
C221   C222    1.383   .     A
C221   H234    1.084   .     S
C221   C823    1.396   1_554 S
C222   H233    1.081   .     S
C222   C826    1.410   1_554 S
C223   C224    1.402   .     A
C223   C825    1.410   .     S
C223   C828    1.409   .     S
C224   C228    1.415   .     A
C224   C231    1.423   .     A
C225   C229    1.390   .     A
C225   C826    1.409   1_554 S
C225   C829    1.419   1_554 S
C226   C227    1.412   .     A
C226   C819    1.415   .     S
C226   C828    1.419   .     S
C227   C228    1.402   .     A
C227   C261    1.509   .     S
C228   H235    1.082   .     S
C229   H232    1.080   .     S
C236   C244    1.399   .     A
C236   H237    1.084   .     S
C236   C439    1.369   .     S
C238   H239    1.084   .     S
C238   C240    1.390   .     A
C240   C241    1.394   .     A
C241   H242    1.085   .     S
C243   N254    1.439   .     S
C243   C244    1.409   .     A
C243   C442    1.379   .     S
C245   N253    1.368   .     A
C245   H246    1.082   .     S
C245   C314    1.419   .     S
C247   N249    1.367   .     A
C247   H248    1.082   .     S
C247   C379    1.419   1_455 S
N249   C250    1.383   .     A
C250   C257    1.494   .     S
C250   C385    1.415   1_455 S
C251   N253    1.355   .     A
C251   H252    1.083   .     S
C251   C317    1.415   .     S
N254   O255    1.301   .     A
N254   O256    1.301   .     A
C257   H259    1.109   .     S
C257   H258    1.094   .     S
C257   H394    1.111   1_455 S
H260   C324    1.111   .     S
C261   H263    1.110   .     S
C261   H264    1.110   .     S
C261   H262    1.111   .     S
C265   H268    1.108   .     S
C265   H266    1.111   .     S
C265   H267    1.106   .     S
O269   Zn275   1.995   .     S
O269   C271    1.285   .     A
O270   C271    1.283   .     A
O270   Zn276   1.988   .     S
C271   C311    1.417   .     S
O272   Zn275   1.953   .     S
O272   C274    1.299   .     A
O273   Zn276   1.893   .     S
O273   C274    1.301   .     A
C274   C298    1.485   .     S
Zn275  N316    2.016   .     S
Zn275  O279    1.893   .     S
Zn275  O277    1.988   .     S
Zn276  O280    1.953   .     S
Zn276  O278    1.995   .     S
Zn276  N320    2.016   .     S
O277   C281    1.282   .     A
O278   C281    1.285   .     A
O279   C282    1.295   .     A
O280   C282    1.295   .     A
C281   C307    1.410   .     S
C282   C286    1.458   .     S
C283   C297    1.399   .     A
C283   H888    1.082   1_554 S
C283   C896    1.415   1_554 S
H284   C297    1.083   .     S
H285   C886    1.082   .     S
C286   C297    1.399   .     A
C286   C296    1.385   .     A
C287   C332    1.503   .     S
C287   C298    1.428   .     A
C287   C891    1.396   .     S
C288   C289    1.383   .     A
C288   H301    1.084   .     S
C288   C890    1.396   1_554 S
C289   H300    1.081   .     S
C289   C893    1.410   1_554 S
C290   C291    1.402   .     A
C290   C892    1.410   .     S
C290   C895    1.409   .     S
C291   C295    1.415   .     A
C291   C298    1.423   .     A
C292   C296    1.390   .     A
C292   C893    1.409   1_554 S
C292   C896    1.419   1_554 S
C293   C294    1.412   .     A
C293   C886    1.415   .     S
C293   C895    1.419   .     S
C294   C295    1.402   .     A
C294   C328    1.509   .     S
C295   H302    1.082   .     S
C296   H299    1.080   .     S
C303   C311    1.399   .     A
C303   H304    1.084   .     S
C303   C506    1.369   .     S
C305   H306    1.084   .     S
C305   C307    1.390   .     A
C307   C308    1.394   .     A
C308   H309    1.085   .     S
C310   N321    1.439   .     S
C310   C311    1.409   .     A
C310   C509    1.379   .     S
C312   N320    1.368   .     A
C312   H313    1.082   .     S
C312   C381    1.419   .     S
C314   N316    1.367   .     A
C314   H315    1.082   .     S
N316   C317    1.383   .     A
C317   C324    1.494   .     S
C318   N320    1.355   .     A
C318   H319    1.083   .     S
C318   C384    1.415   .     S
N321   O322    1.301   .     A
N321   O323    1.301   .     A
C324   H326    1.109   .     S
C324   H325    1.094   .     S
H327   C391    1.111   .     S
C328   H330    1.110   .     S
C328   H331    1.110   .     S
C328   H329    1.111   .     S
C332   H335    1.108   .     S
C332   H333    1.111   .     S
C332   H334    1.106   .     S
O336   Zn342   1.995   .     S
O336   C338    1.285   .     A
O337   C338    1.283   .     A
O337   Zn343   1.988   .     S
C338   C378    1.417   .     S
O339   Zn342   1.953   .     S
O339   C341    1.299   .     A
O340   Zn343   1.893   .     S
O340   C341    1.301   .     A
C341   C365    1.485   .     S
Zn342  N383    2.016   .     S
Zn342  O346    1.893   .     S
Zn342  O344    1.988   .     S
Zn343  O347    1.953   .     S
Zn343  O345    1.995   .     S
Zn343  N387    2.016   .     S
O344   C348    1.282   .     A
O345   C348    1.285   .     A
O346   C349    1.295   .     A
O347   C349    1.295   .     A
C348   C374    1.410   .     S
C349   C353    1.458   .     S
C350   C364    1.399   .     A
C350   H955    1.082   1_554 S
C350   C963    1.415   1_554 S
H351   C364    1.083   .     S
H352   C953    1.082   .     S
C353   C364    1.399   .     A
C353   C363    1.385   .     A
C354   C399    1.503   .     S
C354   C365    1.428   .     A
C354   C958    1.396   .     S
C355   C356    1.383   .     A
C355   H368    1.084   .     S
C355   C957    1.396   1_554 S
C356   H367    1.081   .     S
C356   C960    1.410   1_554 S
C357   C358    1.402   .     A
C357   C959    1.410   .     S
C357   C962    1.409   .     S
C358   C362    1.415   .     A
C358   C365    1.423   .     A
C359   C363    1.390   .     A
C359   C960    1.409   1_554 S
C359   C963    1.419   1_554 S
C360   C361    1.412   .     A
C360   C953    1.415   .     S
C360   C962    1.419   .     S
C361   C362    1.402   .     A
C361   C395    1.509   .     S
C362   H369    1.082   .     S
C363   H366    1.080   .     S
C370   C378    1.399   .     A
C370   H371    1.084   .     S
C370   C573    1.369   .     S
C372   H373    1.084   .     S
C372   C374    1.390   .     A
C374   C375    1.394   .     A
C375   H376    1.085   .     S
C377   N388    1.439   .     S
C377   C378    1.409   .     A
C377   C576    1.379   .     S
C379   N387    1.368   .     A
C379   H380    1.082   .     S
C379   C247    1.419   1_655 S
C381   N383    1.367   .     A
C381   H382    1.082   .     S
N383   C384    1.383   .     A
C384   C391    1.494   .     S
C385   N387    1.355   .     A
C385   H386    1.083   .     S
C385   C250    1.415   1_655 S
N388   O389    1.301   .     A
N388   O390    1.301   .     A
C391   H393    1.109   .     S
C391   H392    1.094   .     S
H394   C257    1.111   1_655 S
C395   H397    1.110   .     S
C395   H398    1.110   .     S
C395   H396    1.111   .     S
C399   H402    1.108   .     S
C399   H400    1.111   .     S
C399   H401    1.106   .     S
O403   Zn409   1.995   .     S
O403   C405    1.285   .     A
O404   C405    1.283   .     A
O404   Zn410   1.988   .     S
C405   C445    1.417   .     S
O406   Zn409   1.953   .     S
O406   C408    1.299   .     A
O407   Zn410   1.893   .     S
O407   C408    1.301   .     A
C408   C432    1.485   .     S
Zn409  N450    2.016   .     S
Zn409  O413    1.893   .     S
Zn409  O411    1.988   .     S
Zn410  O414    1.953   .     S
Zn410  O412    1.995   .     S
Zn410  N454    2.016   .     S
O411   C415    1.282   .     A
O412   C415    1.285   .     A
O413   C416    1.295   .     A
O414   C416    1.295   .     A
C415   C441    1.410   .     S
C416   C420    1.458   .     S
C417   C431    1.399   .     A
C417   H1022   1.082   1_554 S
C417   C1030   1.415   1_554 S
H418   C431    1.083   .     S
H419   C1020   1.082   .     S
C420   C431    1.399   .     A
C420   C430    1.385   .     A
C421   C466    1.503   .     S
C421   C432    1.428   .     A
C421   C1025   1.396   .     S
C422   C423    1.383   .     A
C422   H435    1.084   .     S
C422   C1024   1.396   1_554 S
C423   H434    1.081   .     S
C423   C1027   1.410   1_554 S
C424   C425    1.402   .     A
C424   C1026   1.410   .     S
C424   C1029   1.409   .     S
C425   C429    1.415   .     A
C425   C432    1.423   .     A
C426   C430    1.390   .     A
C426   C1027   1.409   1_554 S
C426   C1030   1.419   1_554 S
C427   C428    1.412   .     A
C427   C1020   1.415   .     S
C427   C1029   1.419   .     S
C428   C429    1.402   .     A
C428   C462    1.509   .     S
C429   H436    1.082   .     S
C430   H433    1.080   .     S
C437   C445    1.399   .     A
C437   H438    1.084   .     S
C437   C37     1.369   1_565 S
C439   H440    1.084   .     S
C439   C441    1.390   .     A
C441   C442    1.394   .     A
C442   H443    1.085   .     S
C444   N455    1.439   .     S
C444   C445    1.409   .     A
C444   C40     1.379   1_565 S
C446   N454    1.368   .     A
C446   H447    1.082   .     S
C446   C515    1.419   .     S
C448   N450    1.367   .     A
C448   H449    1.082   .     S
C448   C580    1.419   1_455 S
N450   C451    1.383   .     A
C451   C458    1.494   .     S
C451   C586    1.415   1_455 S
C452   N454    1.355   .     A
C452   H453    1.083   .     S
C452   C518    1.415   .     S
N455   O456    1.301   .     A
N455   O457    1.301   .     A
C458   H460    1.109   .     S
C458   H459    1.094   .     S
C458   H595    1.111   1_455 S
H461   C525    1.111   .     S
C462   H464    1.110   .     S
C462   H465    1.110   .     S
C462   H463    1.111   .     S
C466   H469    1.108   .     S
C466   H467    1.111   .     S
C466   H468    1.106   .     S
O470   Zn476   1.995   .     S
O470   C472    1.285   .     A
O471   C472    1.283   .     A
O471   Zn477   1.988   .     S
C472   C512    1.417   .     S
O473   Zn476   1.953   .     S
O473   C475    1.299   .     A
O474   Zn477   1.893   .     S
O474   C475    1.301   .     A
C475   C499    1.485   .     S
Zn476  N517    2.016   .     S
Zn476  O480    1.893   .     S
Zn476  O478    1.988   .     S
Zn477  O481    1.953   .     S
Zn477  O479    1.995   .     S
Zn477  N521    2.016   .     S
O478   C482    1.282   .     A
O479   C482    1.285   .     A
O480   C483    1.295   .     A
O481   C483    1.295   .     A
C482   C508    1.410   .     S
C483   C487    1.458   .     S
C484   C498    1.399   .     A
C484   H1089   1.082   1_554 S
C484   C1097   1.415   1_554 S
H485   C498    1.083   .     S
H486   C1087   1.082   .     S
C487   C498    1.399   .     A
C487   C497    1.385   .     A
C488   C533    1.503   .     S
C488   C499    1.428   .     A
C488   C1092   1.396   .     S
C489   C490    1.383   .     A
C489   H502    1.084   .     S
C489   C1091   1.396   1_554 S
C490   H501    1.081   .     S
C490   C1094   1.410   1_554 S
C491   C492    1.402   .     A
C491   C1093   1.410   .     S
C491   C1096   1.409   .     S
C492   C496    1.415   .     A
C492   C499    1.423   .     A
C493   C497    1.390   .     A
C493   C1094   1.409   1_554 S
C493   C1097   1.419   1_554 S
C494   C495    1.412   .     A
C494   C1087   1.415   .     S
C494   C1096   1.419   .     S
C495   C496    1.402   .     A
C495   C529    1.509   .     S
C496   H503    1.082   .     S
C497   H500    1.080   .     S
C504   C512    1.399   .     A
C504   H505    1.084   .     S
C504   C104    1.369   1_565 S
C506   H507    1.084   .     S
C506   C508    1.390   .     A
C508   C509    1.394   .     A
C509   H510    1.085   .     S
C511   N522    1.439   .     S
C511   C512    1.409   .     A
C511   C107    1.379   1_565 S
C513   N521    1.368   .     A
C513   H514    1.082   .     S
C513   C582    1.419   .     S
C515   N517    1.367   .     A
C515   H516    1.082   .     S
N517   C518    1.383   .     A
C518   C525    1.494   .     S
C519   N521    1.355   .     A
C519   H520    1.083   .     S
C519   C585    1.415   .     S
N522   O523    1.301   .     A
N522   O524    1.301   .     A
C525   H527    1.109   .     S
C525   H526    1.094   .     S
H528   C592    1.111   .     S
C529   H531    1.110   .     S
C529   H532    1.110   .     S
C529   H530    1.111   .     S
C533   H536    1.108   .     S
C533   H534    1.111   .     S
C533   H535    1.106   .     S
O537   Zn543   1.995   .     S
O537   C539    1.285   .     A
O538   C539    1.283   .     A
O538   Zn544   1.988   .     S
C539   C579    1.417   .     S
O540   Zn543   1.953   .     S
O540   C542    1.299   .     A
O541   Zn544   1.893   .     S
O541   C542    1.301   .     A
C542   C566    1.485   .     S
Zn543  N584    2.016   .     S
Zn543  O547    1.893   .     S
Zn543  O545    1.988   .     S
Zn544  O548    1.953   .     S
Zn544  O546    1.995   .     S
Zn544  N588    2.016   .     S
O545   C549    1.282   .     A
O546   C549    1.285   .     A
O547   C550    1.295   .     A
O548   C550    1.295   .     A
C549   C575    1.410   .     S
C550   C554    1.458   .     S
C551   C565    1.399   .     A
C551   H1156   1.082   1_554 S
C551   C1164   1.415   1_554 S
H552   C565    1.083   .     S
H553   C1154   1.082   .     S
C554   C565    1.399   .     A
C554   C564    1.385   .     A
C555   C600    1.503   .     S
C555   C566    1.428   .     A
C555   C1159   1.396   .     S
C556   C557    1.383   .     A
C556   H569    1.084   .     S
C556   C1158   1.396   1_554 S
C557   H568    1.081   .     S
C557   C1161   1.410   1_554 S
C558   C559    1.402   .     A
C558   C1160   1.410   .     S
C558   C1163   1.409   .     S
C559   C563    1.415   .     A
C559   C566    1.423   .     A
C560   C564    1.390   .     A
C560   C1161   1.409   1_554 S
C560   C1164   1.419   1_554 S
C561   C562    1.412   .     A
C561   C1154   1.415   .     S
C561   C1163   1.419   .     S
C562   C563    1.402   .     A
C562   C596    1.509   .     S
C563   H570    1.082   .     S
C564   H567    1.080   .     S
C571   C579    1.399   .     A
C571   H572    1.084   .     S
C571   C171    1.369   1_565 S
C573   H574    1.084   .     S
C573   C575    1.390   .     A
C575   C576    1.394   .     A
C576   H577    1.085   .     S
C578   N589    1.439   .     S
C578   C579    1.409   .     A
C578   C174    1.379   1_565 S
C580   N588    1.368   .     A
C580   H581    1.082   .     S
C580   C448    1.419   1_655 S
C582   N584    1.367   .     A
C582   H583    1.082   .     S
N584   C585    1.383   .     A
C585   C592    1.494   .     S
C586   N588    1.355   .     A
C586   H587    1.083   .     S
C586   C451    1.415   1_655 S
N589   O590    1.301   .     A
N589   O591    1.301   .     A
C592   H594    1.109   .     S
C592   H593    1.094   .     S
H595   C458    1.111   1_655 S
C596   H598    1.110   .     S
C596   H599    1.110   .     S
C596   H597    1.111   .     S
C600   H603    1.108   .     S
C600   H601    1.111   .     S
C600   H602    1.106   .     S
O604   Zn610   1.995   .     S
O604   C606    1.285   .     A
O605   C606    1.283   .     A
O605   Zn611   1.988   .     S
C606   C646    1.417   .     S
O607   Zn610   1.953   .     S
O607   C609    1.299   .     A
O608   Zn611   1.893   .     S
O608   C609    1.301   .     A
C609   C633    1.485   .     S
Zn610  N651    2.016   .     S
Zn610  O614    1.893   .     S
Zn610  O612    1.988   .     S
Zn611  O615    1.953   .     S
Zn611  O613    1.995   .     S
Zn611  N655    2.016   .     S
O612   C616    1.282   .     A
O613   C616    1.285   .     A
O614   C617    1.295   .     A
O615   C617    1.295   .     A
C616   C642    1.410   .     S
C617   C621    1.458   .     S
C618   C632    1.399   .     A
H619   C632    1.083   .     S
H620   C15     1.082   1_556 S
C621   C632    1.399   .     A
C621   C631    1.385   .     A
C622   C667    1.503   .     S
C622   C633    1.428   .     A
C622   C20     1.396   1_556 S
C623   C624    1.383   .     A
C623   H636    1.084   .     S
C624   H635    1.081   .     S
C625   C626    1.402   .     A
C625   C21     1.410   1_556 S
C625   C24     1.409   1_556 S
C626   C630    1.415   .     A
C626   C633    1.423   .     A
C627   C631    1.390   .     A
C628   C629    1.412   .     A
C628   C15     1.415   1_556 S
C628   C24     1.419   1_556 S
C629   C630    1.402   .     A
C629   C663    1.509   .     S
C630   H637    1.082   .     S
C631   H634    1.080   .     S
C638   C646    1.399   .     A
C638   H639    1.084   .     S
C638   C841    1.369   .     S
C640   H641    1.084   .     S
C640   C642    1.390   .     A
C640   C1040   1.369   1_545 S
C642   C643    1.394   .     A
C643   H644    1.085   .     S
C643   C1047   1.379   1_545 S
C645   N656    1.439   .     S
C645   C646    1.409   .     A
C645   C844    1.379   .     S
C647   N655    1.368   .     A
C647   H648    1.082   .     S
C647   C716    1.419   .     S
C649   N651    1.367   .     A
C649   H650    1.082   .     S
C649   C781    1.419   1_455 S
N651   C652    1.383   .     A
C652   C659    1.494   .     S
C652   C787    1.415   1_455 S
C653   N655    1.355   .     A
C653   H654    1.083   .     S
C653   C719    1.415   .     S
N656   O657    1.301   .     A
N656   O658    1.301   .     A
C659   H661    1.109   .     S
C659   H660    1.094   .     S
C659   H796    1.111   1_455 S
H662   C726    1.111   .     S
C663   H665    1.110   .     S
C663   H666    1.110   .     S
C663   H664    1.111   .     S
C667   H670    1.108   .     S
C667   H668    1.111   .     S
C667   H669    1.106   .     S
O671   Zn677   1.995   .     S
O671   C673    1.285   .     A
O672   C673    1.283   .     A
O672   Zn678   1.988   .     S
C673   C713    1.417   .     S
O674   Zn677   1.953   .     S
O674   C676    1.299   .     A
O675   Zn678   1.893   .     S
O675   C676    1.301   .     A
C676   C700    1.485   .     S
Zn677  N718    2.016   .     S
Zn677  O681    1.893   .     S
Zn677  O679    1.988   .     S
Zn678  O682    1.953   .     S
Zn678  O680    1.995   .     S
Zn678  N722    2.016   .     S
O679   C683    1.282   .     A
O680   C683    1.285   .     A
O681   C684    1.295   .     A
O682   C684    1.295   .     A
C683   C709    1.410   .     S
C684   C688    1.458   .     S
C685   C699    1.399   .     A
H686   C699    1.083   .     S
H687   C82     1.082   1_556 S
C688   C699    1.399   .     A
C688   C698    1.385   .     A
C689   C734    1.503   .     S
C689   C700    1.428   .     A
C689   C87     1.396   1_556 S
C690   C691    1.383   .     A
C690   H703    1.084   .     S
C691   H702    1.081   .     S
C692   C693    1.402   .     A
C692   C88     1.410   1_556 S
C692   C91     1.409   1_556 S
C693   C697    1.415   .     A
C693   C700    1.423   .     A
C694   C698    1.390   .     A
C695   C696    1.412   .     A
C695   C82     1.415   1_556 S
C695   C91     1.419   1_556 S
C696   C697    1.402   .     A
C696   C730    1.509   .     S
C697   H704    1.082   .     S
C698   H701    1.080   .     S
C705   C713    1.399   .     A
C705   H706    1.084   .     S
C705   C908    1.369   .     S
C707   H708    1.084   .     S
C707   C709    1.390   .     A
C707   C1107   1.369   1_545 S
C709   C710    1.394   .     A
C710   H711    1.085   .     S
C710   C1114   1.379   1_545 S
C712   N723    1.439   .     S
C712   C713    1.409   .     A
C712   C911    1.379   .     S
C714   N722    1.368   .     A
C714   H715    1.082   .     S
C714   C783    1.419   .     S
C716   N718    1.367   .     A
C716   H717    1.082   .     S
N718   C719    1.383   .     A
C719   C726    1.494   .     S
C720   N722    1.355   .     A
C720   H721    1.083   .     S
C720   C786    1.415   .     S
N723   O724    1.301   .     A
N723   O725    1.301   .     A
C726   H728    1.109   .     S
C726   H727    1.094   .     S
H729   C793    1.111   .     S
C730   H732    1.110   .     S
C730   H733    1.110   .     S
C730   H731    1.111   .     S
C734   H737    1.108   .     S
C734   H735    1.111   .     S
C734   H736    1.106   .     S
O738   Zn744   1.995   .     S
O738   C740    1.285   .     A
O739   C740    1.283   .     A
O739   Zn745   1.988   .     S
C740   C780    1.417   .     S
O741   Zn744   1.953   .     S
O741   C743    1.299   .     A
O742   Zn745   1.893   .     S
O742   C743    1.301   .     A
C743   C767    1.485   .     S
Zn744  N785    2.016   .     S
Zn744  O748    1.893   .     S
Zn744  O746    1.988   .     S
Zn745  O749    1.953   .     S
Zn745  O747    1.995   .     S
Zn745  N789    2.016   .     S
O746   C750    1.282   .     A
O747   C750    1.285   .     A
O748   C751    1.295   .     A
O749   C751    1.295   .     A
C750   C776    1.410   .     S
C751   C755    1.458   .     S
C752   C766    1.399   .     A
H753   C766    1.083   .     S
H754   C149    1.082   1_556 S
C755   C766    1.399   .     A
C755   C765    1.385   .     A
C756   C801    1.503   .     S
C756   C767    1.428   .     A
C756   C154    1.396   1_556 S
C757   C758    1.383   .     A
C757   H770    1.084   .     S
C758   H769    1.081   .     S
C759   C760    1.402   .     A
C759   C155    1.410   1_556 S
C759   C158    1.409   1_556 S
C760   C764    1.415   .     A
C760   C767    1.423   .     A
C761   C765    1.390   .     A
C762   C763    1.412   .     A
C762   C149    1.415   1_556 S
C762   C158    1.419   1_556 S
C763   C764    1.402   .     A
C763   C797    1.509   .     S
C764   H771    1.082   .     S
C765   H768    1.080   .     S
C772   C780    1.399   .     A
C772   H773    1.084   .     S
C772   C975    1.369   .     S
C774   H775    1.084   .     S
C774   C776    1.390   .     A
C774   C1174   1.369   1_545 S
C776   C777    1.394   .     A
C777   H778    1.085   .     S
C777   C1181   1.379   1_545 S
C779   N790    1.439   .     S
C779   C780    1.409   .     A
C779   C978    1.379   .     S
C781   N789    1.368   .     A
C781   H782    1.082   .     S
C781   C649    1.419   1_655 S
C783   N785    1.367   .     A
C783   H784    1.082   .     S
N785   C786    1.383   .     A
C786   C793    1.494   .     S
C787   N789    1.355   .     A
C787   H788    1.083   .     S
C787   C652    1.415   1_655 S
N790   O791    1.301   .     A
N790   O792    1.301   .     A
C793   H795    1.109   .     S
C793   H794    1.094   .     S
H796   C659    1.111   1_655 S
C797   H799    1.110   .     S
C797   H800    1.110   .     S
C797   H798    1.111   .     S
C801   H804    1.108   .     S
C801   H802    1.111   .     S
C801   H803    1.106   .     S
O805   Zn811   1.995   .     S
O805   C807    1.285   .     A
O806   C807    1.283   .     A
O806   Zn812   1.988   .     S
C807   C847    1.417   .     S
O808   Zn811   1.953   .     S
O808   C810    1.299   .     A
O809   Zn812   1.893   .     S
O809   C810    1.301   .     A
C810   C834    1.485   .     S
Zn811  N852    2.016   .     S
Zn811  O815    1.893   .     S
Zn811  O813    1.988   .     S
Zn812  O816    1.953   .     S
Zn812  O814    1.995   .     S
Zn812  N856    2.016   .     S
O813   C817    1.282   .     A
O814   C817    1.285   .     A
O815   C818    1.295   .     A
O816   C818    1.295   .     A
C817   C843    1.410   .     S
C818   C822    1.458   .     S
C819   C833    1.399   .     A
H820   C833    1.083   .     S
H821   C216    1.082   1_556 S
C822   C833    1.399   .     A
C822   C832    1.385   .     A
C823   C868    1.503   .     S
C823   C834    1.428   .     A
C823   C221    1.396   1_556 S
C824   C825    1.383   .     A
C824   H837    1.084   .     S
C825   H836    1.081   .     S
C826   C827    1.402   .     A
C826   C222    1.410   1_556 S
C826   C225    1.409   1_556 S
C827   C831    1.415   .     A
C827   C834    1.423   .     A
C828   C832    1.390   .     A
C829   C830    1.412   .     A
C829   C216    1.415   1_556 S
C829   C225    1.419   1_556 S
C830   C831    1.402   .     A
C830   C864    1.509   .     S
C831   H838    1.082   .     S
C832   H835    1.080   .     S
C839   C847    1.399   .     A
C839   H840    1.084   .     S
C839   C1042   1.369   .     S
C841   H842    1.084   .     S
C841   C843    1.390   .     A
C843   C844    1.394   .     A
C844   H845    1.085   .     S
C846   N857    1.439   .     S
C846   C847    1.409   .     A
C846   C1045   1.379   .     S
C848   N856    1.368   .     A
C848   H849    1.082   .     S
C848   C917    1.419   .     S
C850   N852    1.367   .     A
C850   H851    1.082   .     S
C850   C982    1.419   1_455 S
N852   C853    1.383   .     A
C853   C860    1.494   .     S
C853   C988    1.415   1_455 S
C854   N856    1.355   .     A
C854   H855    1.083   .     S
C854   C920    1.415   .     S
N857   O858    1.301   .     A
N857   O859    1.301   .     A
C860   H862    1.109   .     S
C860   H861    1.094   .     S
C860   H997    1.111   1_455 S
H863   C927    1.111   .     S
C864   H866    1.110   .     S
C864   H867    1.110   .     S
C864   H865    1.111   .     S
C868   H871    1.108   .     S
C868   H869    1.111   .     S
C868   H870    1.106   .     S
O872   Zn878   1.995   .     S
O872   C874    1.285   .     A
O873   C874    1.283   .     A
O873   Zn879   1.988   .     S
C874   C914    1.417   .     S
O875   Zn878   1.953   .     S
O875   C877    1.299   .     A
O876   Zn879   1.893   .     S
O876   C877    1.301   .     A
C877   C901    1.485   .     S
Zn878  N919    2.016   .     S
Zn878  O882    1.893   .     S
Zn878  O880    1.988   .     S
Zn879  O883    1.953   .     S
Zn879  O881    1.995   .     S
Zn879  N923    2.016   .     S
O880   C884    1.282   .     A
O881   C884    1.285   .     A
O882   C885    1.295   .     A
O883   C885    1.295   .     A
C884   C910    1.410   .     S
C885   C889    1.458   .     S
C886   C900    1.399   .     A
H887   C900    1.083   .     S
H888   C283    1.082   1_556 S
C889   C900    1.399   .     A
C889   C899    1.385   .     A
C890   C935    1.503   .     S
C890   C901    1.428   .     A
C890   C288    1.396   1_556 S
C891   C892    1.383   .     A
C891   H904    1.084   .     S
C892   H903    1.081   .     S
C893   C894    1.402   .     A
C893   C289    1.410   1_556 S
C893   C292    1.409   1_556 S
C894   C898    1.415   .     A
C894   C901    1.423   .     A
C895   C899    1.390   .     A
C896   C897    1.412   .     A
C896   C283    1.415   1_556 S
C896   C292    1.419   1_556 S
C897   C898    1.402   .     A
C897   C931    1.509   .     S
C898   H905    1.082   .     S
C899   H902    1.080   .     S
C906   C914    1.399   .     A
C906   H907    1.084   .     S
C906   C1109   1.369   .     S
C908   H909    1.084   .     S
C908   C910    1.390   .     A
C910   C911    1.394   .     A
C911   H912    1.085   .     S
C913   N924    1.439   .     S
C913   C914    1.409   .     A
C913   C1112   1.379   .     S
C915   N923    1.368   .     A
C915   H916    1.082   .     S
C915   C984    1.419   .     S
C917   N919    1.367   .     A
C917   H918    1.082   .     S
N919   C920    1.383   .     A
C920   C927    1.494   .     S
C921   N923    1.355   .     A
C921   H922    1.083   .     S
C921   C987    1.415   .     S
N924   O925    1.301   .     A
N924   O926    1.301   .     A
C927   H929    1.109   .     S
C927   H928    1.094   .     S
H930   C994    1.111   .     S
C931   H933    1.110   .     S
C931   H934    1.110   .     S
C931   H932    1.111   .     S
C935   H938    1.108   .     S
C935   H936    1.111   .     S
C935   H937    1.106   .     S
O939   Zn945   1.995   .     S
O939   C941    1.285   .     A
O940   C941    1.283   .     A
O940   Zn946   1.988   .     S
C941   C981    1.417   .     S
O942   Zn945   1.953   .     S
O942   C944    1.299   .     A
O943   Zn946   1.893   .     S
O943   C944    1.301   .     A
C944   C968    1.485   .     S
Zn945  N986    2.016   .     S
Zn945  O949    1.893   .     S
Zn945  O947    1.988   .     S
Zn946  O950    1.953   .     S
Zn946  O948    1.995   .     S
Zn946  N990    2.016   .     S
O947   C951    1.282   .     A
O948   C951    1.285   .     A
O949   C952    1.295   .     A
O950   C952    1.295   .     A
C951   C977    1.410   .     S
C952   C956    1.458   .     S
C953   C967    1.399   .     A
H954   C967    1.083   .     S
H955   C350    1.082   1_556 S
C956   C967    1.399   .     A
C956   C966    1.385   .     A
C957   C1002   1.503   .     S
C957   C968    1.428   .     A
C957   C355    1.396   1_556 S
C958   C959    1.383   .     A
C958   H971    1.084   .     S
C959   H970    1.081   .     S
C960   C961    1.402   .     A
C960   C356    1.410   1_556 S
C960   C359    1.409   1_556 S
C961   C965    1.415   .     A
C961   C968    1.423   .     A
C962   C966    1.390   .     A
C963   C964    1.412   .     A
C963   C350    1.415   1_556 S
C963   C359    1.419   1_556 S
C964   C965    1.402   .     A
C964   C998    1.509   .     S
C965   H972    1.082   .     S
C966   H969    1.080   .     S
C973   C981    1.399   .     A
C973   H974    1.084   .     S
C973   C1176   1.369   .     S
C975   H976    1.084   .     S
C975   C977    1.390   .     A
C977   C978    1.394   .     A
C978   H979    1.085   .     S
C980   N991    1.439   .     S
C980   C981    1.409   .     A
C980   C1179   1.379   .     S
C982   N990    1.368   .     A
C982   H983    1.082   .     S
C982   C850    1.419   1_655 S
C984   N986    1.367   .     A
C984   H985    1.082   .     S
N986   C987    1.383   .     A
C987   C994    1.494   .     S
C988   N990    1.355   .     A
C988   H989    1.083   .     S
C988   C853    1.415   1_655 S
N991   O992    1.301   .     A
N991   O993    1.301   .     A
C994   H996    1.109   .     S
C994   H995    1.094   .     S
H997   C860    1.111   1_655 S
C998   H1000   1.110   .     S
C998   H1001   1.110   .     S
C998   H999    1.111   .     S
C1002  H1005   1.108   .     S
C1002  H1003   1.111   .     S
C1002  H1004   1.106   .     S
O1006  Zn1012  1.995   .     S
O1006  C1008   1.285   .     A
O1007  C1008   1.283   .     A
O1007  Zn1013  1.988   .     S
C1008  C1048   1.417   .     S
O1009  Zn1012  1.953   .     S
O1009  C1011   1.299   .     A
O1010  Zn1013  1.893   .     S
O1010  C1011   1.301   .     A
C1011  C1035   1.485   .     S
Zn1012 N1053   2.016   .     S
Zn1012 O1016   1.893   .     S
Zn1012 O1014   1.988   .     S
Zn1013 O1017   1.953   .     S
Zn1013 O1015   1.995   .     S
Zn1013 N1057   2.016   .     S
O1014  C1018   1.282   .     A
O1015  C1018   1.285   .     A
O1016  C1019   1.295   .     A
O1017  C1019   1.295   .     A
C1018  C1044   1.410   .     S
C1019  C1023   1.458   .     S
C1020  C1034   1.399   .     A
H1021  C1034   1.083   .     S
H1022  C417    1.082   1_556 S
C1023  C1034   1.399   .     A
C1023  C1033   1.385   .     A
C1024  C1069   1.503   .     S
C1024  C1035   1.428   .     A
C1024  C422    1.396   1_556 S
C1025  C1026   1.383   .     A
C1025  H1038   1.084   .     S
C1026  H1037   1.081   .     S
C1027  C1028   1.402   .     A
C1027  C423    1.410   1_556 S
C1027  C426    1.409   1_556 S
C1028  C1032   1.415   .     A
C1028  C1035   1.423   .     A
C1029  C1033   1.390   .     A
C1030  C1031   1.412   .     A
C1030  C417    1.415   1_556 S
C1030  C426    1.419   1_556 S
C1031  C1032   1.402   .     A
C1031  C1065   1.509   .     S
C1032  H1039   1.082   .     S
C1033  H1036   1.080   .     S
C1040  C1048   1.399   .     A
C1040  H1041   1.084   .     S
C1040  C640    1.369   1_565 S
C1042  H1043   1.084   .     S
C1042  C1044   1.390   .     A
C1044  C1045   1.394   .     A
C1045  H1046   1.085   .     S
C1047  N1058   1.439   .     S
C1047  C1048   1.409   .     A
C1047  C643    1.379   1_565 S
C1049  N1057   1.368   .     A
C1049  H1050   1.082   .     S
C1049  C1118   1.419   .     S
C1051  N1053   1.367   .     A
C1051  H1052   1.082   .     S
C1051  C1183   1.419   1_455 S
N1053  C1054   1.383   .     A
C1054  C1061   1.494   .     S
C1054  C1189   1.415   1_455 S
C1055  N1057   1.355   .     A
C1055  H1056   1.083   .     S
C1055  C1121   1.415   .     S
N1058  O1059   1.301   .     A
N1058  O1060   1.301   .     A
C1061  H1063   1.109   .     S
C1061  H1062   1.094   .     S
C1061  H1198   1.111   1_455 S
H1064  C1128   1.111   .     S
C1065  H1067   1.110   .     S
C1065  H1068   1.110   .     S
C1065  H1066   1.111   .     S
C1069  H1072   1.108   .     S
C1069  H1070   1.111   .     S
C1069  H1071   1.106   .     S
O1073  Zn1079  1.995   .     S
O1073  C1075   1.285   .     A
O1074  C1075   1.283   .     A
O1074  Zn1080  1.988   .     S
C1075  C1115   1.417   .     S
O1076  Zn1079  1.953   .     S
O1076  C1078   1.299   .     A
O1077  Zn1080  1.893   .     S
O1077  C1078   1.301   .     A
C1078  C1102   1.485   .     S
Zn1079 N1120   2.016   .     S
Zn1079 O1083   1.893   .     S
Zn1079 O1081   1.988   .     S
Zn1080 O1084   1.953   .     S
Zn1080 O1082   1.995   .     S
Zn1080 N1124   2.016   .     S
O1081  C1085   1.282   .     A
O1082  C1085   1.285   .     A
O1083  C1086   1.295   .     A
O1084  C1086   1.295   .     A
C1085  C1111   1.410   .     S
C1086  C1090   1.458   .     S
C1087  C1101   1.399   .     A
H1088  C1101   1.083   .     S
H1089  C484    1.082   1_556 S
C1090  C1101   1.399   .     A
C1090  C1100   1.385   .     A
C1091  C1136   1.503   .     S
C1091  C1102   1.428   .     A
C1091  C489    1.396   1_556 S
C1092  C1093   1.383   .     A
C1092  H1105   1.084   .     S
C1093  H1104   1.081   .     S
C1094  C1095   1.402   .     A
C1094  C490    1.410   1_556 S
C1094  C493    1.409   1_556 S
C1095  C1099   1.415   .     A
C1095  C1102   1.423   .     A
C1096  C1100   1.390   .     A
C1097  C1098   1.412   .     A
C1097  C484    1.415   1_556 S
C1097  C493    1.419   1_556 S
C1098  C1099   1.402   .     A
C1098  C1132   1.509   .     S
C1099  H1106   1.082   .     S
C1100  H1103   1.080   .     S
C1107  C1115   1.399   .     A
C1107  H1108   1.084   .     S
C1107  C707    1.369   1_565 S
C1109  H1110   1.084   .     S
C1109  C1111   1.390   .     A
C1111  C1112   1.394   .     A
C1112  H1113   1.085   .     S
C1114  N1125   1.439   .     S
C1114  C1115   1.409   .     A
C1114  C710    1.379   1_565 S
C1116  N1124   1.368   .     A
C1116  H1117   1.082   .     S
C1116  C1185   1.419   .     S
C1118  N1120   1.367   .     A
C1118  H1119   1.082   .     S
N1120  C1121   1.383   .     A
C1121  C1128   1.494   .     S
C1122  N1124   1.355   .     A
C1122  H1123   1.083   .     S
C1122  C1188   1.415   .     S
N1125  O1126   1.301   .     A
N1125  O1127   1.301   .     A
C1128  H1130   1.109   .     S
C1128  H1129   1.094   .     S
H1131  C1195   1.111   .     S
C1132  H1134   1.110   .     S
C1132  H1135   1.110   .     S
C1132  H1133   1.111   .     S
C1136  H1139   1.108   .     S
C1136  H1137   1.111   .     S
C1136  H1138   1.106   .     S
O1140  Zn1146  1.995   .     S
O1140  C1142   1.285   .     A
O1141  C1142   1.283   .     A
O1141  Zn1147  1.988   .     S
C1142  C1182   1.417   .     S
O1143  Zn1146  1.953   .     S
O1143  C1145   1.299   .     A
O1144  Zn1147  1.893   .     S
O1144  C1145   1.301   .     A
C1145  C1169   1.485   .     S
Zn1146 N1187   2.016   .     S
Zn1146 O1150   1.893   .     S
Zn1146 O1148   1.988   .     S
Zn1147 O1151   1.953   .     S
Zn1147 O1149   1.995   .     S
Zn1147 N1191   2.016   .     S
O1148  C1152   1.282   .     A
O1149  C1152   1.285   .     A
O1150  C1153   1.295   .     A
O1151  C1153   1.295   .     A
C1152  C1178   1.410   .     S
C1153  C1157   1.458   .     S
C1154  C1168   1.399   .     A
H1155  C1168   1.083   .     S
H1156  C551    1.082   1_556 S
C1157  C1168   1.399   .     A
C1157  C1167   1.385   .     A
C1158  C1203   1.503   .     S
C1158  C1169   1.428   .     A
C1158  C556    1.396   1_556 S
C1159  C1160   1.383   .     A
C1159  H1172   1.084   .     S
C1160  H1171   1.081   .     S
C1161  C1162   1.402   .     A
C1161  C557    1.410   1_556 S
C1161  C560    1.409   1_556 S
C1162  C1166   1.415   .     A
C1162  C1169   1.423   .     A
C1163  C1167   1.390   .     A
C1164  C1165   1.412   .     A
C1164  C551    1.415   1_556 S
C1164  C560    1.419   1_556 S
C1165  C1166   1.402   .     A
C1165  C1199   1.509   .     S
C1166  H1173   1.082   .     S
C1167  H1170   1.080   .     S
C1174  C1182   1.399   .     A
C1174  H1175   1.084   .     S
C1174  C774    1.369   1_565 S
C1176  H1177   1.084   .     S
C1176  C1178   1.390   .     A
C1178  C1179   1.394   .     A
C1179  H1180   1.085   .     S
C1181  N1192   1.439   .     S
C1181  C1182   1.409   .     A
C1181  C777    1.379   1_565 S
C1183  N1191   1.368   .     A
C1183  H1184   1.082   .     S
C1183  C1051   1.419   1_655 S
C1185  N1187   1.367   .     A
C1185  H1186   1.082   .     S
N1187  C1188   1.383   .     A
C1188  C1195   1.494   .     S
C1189  N1191   1.355   .     A
C1189  H1190   1.083   .     S
C1189  C1054   1.415   1_655 S
N1192  O1193   1.301   .     A
N1192  O1194   1.301   .     A
C1195  H1197   1.109   .     S
C1195  H1196   1.094   .     S
H1198  C1061   1.111   1_655 S
C1199  H1201   1.110   .     S
C1199  H1202   1.110   .     S
C1199  H1200   1.111   .     S
C1203  H1206   1.108   .     S
C1203  H1204   1.111   .     S
C1203  H1205   1.106   .     S
