data_str_m3_o2_o5_pcu_sym.43
_audit_creation_date              2020-01-03
_audit_creation_method            'Materials Studio'
_symmetry_space_group_name_H-M    'P1'
_symmetry_Int_Tables_number       1
_symmetry_cell_setting            triclinic
loop_
_symmetry_equiv_pos_as_xyz
  x,y,z
_cell_length_a                    29.8815
_cell_length_b                    28.6568
_cell_length_c                    26.8645
_cell_angle_alpha                 89.9884
_cell_angle_beta                  92.1531
_cell_angle_gamma                 90.6297
loop_
_atom_site_label
_atom_site_type_symbol
_atom_site_fract_x
_atom_site_fract_y
_atom_site_fract_z
_atom_site_U_iso_or_equiv
_atom_site_adp_type
_atom_site_occupancy
C1     C     0.16389   0.24968   0.16808   0.00000  Uiso   1.00
C2     C     0.21020   0.44732   0.15979   0.00000  Uiso   1.00
C3     C     0.24989   0.25000   0.07293   0.00000  Uiso   1.00
C4     C     0.25015   0.25000   0.26040   0.00000  Uiso   1.00
C5     C     0.25033   0.02673   0.16690   0.00000  Uiso   1.00
C6     C     0.25023   0.47350   0.16721   0.00000  Uiso   1.00
C7     C     0.24998   0.24998   0.02178   0.00000  Uiso   1.00
C8     C     0.25008   0.24998   0.31156   0.00000  Uiso   1.00
C9     C     0.04751   0.28835   0.18958   0.00000  Uiso   1.00
C10    C     0.45278   0.22470   0.13816   0.00000  Uiso   1.00
C11    C     0.45204   0.26980   0.21497   0.00000  Uiso   1.00
C12    C     0.33583   0.25016   0.16710   0.00000  Uiso   1.00
C13    C     0.04647   0.20523   0.17147   0.00000  Uiso   1.00
C14    C     0.09357   0.28923   0.18626   0.00000  Uiso   1.00
C15    C     0.40662   0.22616   0.13426   0.00000  Uiso   1.00
C16    C     0.40584   0.27148   0.21080   0.00000  Uiso   1.00
C17    C     0.09239   0.20623   0.16767   0.00000  Uiso   1.00
C18    C     0.11595   0.24854   0.17352   0.00000  Uiso   1.00
C19    C     0.38351   0.25011   0.17020   0.00000  Uiso   1.00
C20    C     0.02390   0.24652   0.18106   0.00000  Uiso   1.00
C21    C     0.47553   0.24657   0.17850   0.00000  Uiso   1.00
C22    C     0.20175   0.12599   0.08997   0.00000  Uiso   1.00
C23    C     0.22645   0.10156   0.13034   0.00000  Uiso   1.00
C24    C     0.32692   0.37632   0.20519   0.00000  Uiso   1.00
C25    C     0.30249   0.12770   0.23994   0.00000  Uiso   1.00
C26    C     0.17448   0.37578   0.12400   0.00000  Uiso   1.00
C27    C     0.23128   0.01308   0.05587   0.00000  Uiso   1.00
C28    C     0.34622   0.48004   0.13038   0.00000  Uiso   1.00
C29    C     0.27198   0.01647   0.27868   0.00000  Uiso   1.00
C30    C     0.15350   0.47724   0.20291   0.00000  Uiso   1.00
C31    C     0.28808   0.39889   0.18050   0.00000  Uiso   1.00
C32    C     0.27452   0.10240   0.20242   0.00000  Uiso   1.00
C33    C     0.21216   0.39832   0.15231   0.00000  Uiso   1.00
C34    C     0.22690   0.05212   0.12914   0.00000  Uiso   1.00
C35    C     0.29018   0.44800   0.17406   0.00000  Uiso   1.00
C36    C     0.27425   0.05297   0.20399   0.00000  Uiso   1.00
H37    H     0.03026   0.32047   0.19724   0.00000  Uiso   1.00
H38    H     0.39414   0.36960   0.20983   0.00000  Uiso   1.00
H39    H     0.36189   0.15868   0.25743   0.00000  Uiso   1.00
H40    H     0.10770   0.37057   0.11065   0.00000  Uiso   1.00
H41    H     0.24861   0.48096   0.06863   0.00000  Uiso   1.00
H42    H     0.25637   0.04015   0.04578   0.00000  Uiso   1.00
H43    H     0.21087   0.00375   0.02195   0.00000  Uiso   1.00
H44    H     0.32475   0.00615   0.11071   0.00000  Uiso   1.00
H45    H     0.34795   0.44757   0.10778   0.00000  Uiso   1.00
H46    H     0.38056   0.49506   0.13390   0.00000  Uiso   1.00
H47    H     0.25042   0.48643   0.26664   0.00000  Uiso   1.00
H48    H     0.47074   0.20721   0.10939   0.00000  Uiso   1.00
H49    H     0.25095   0.04559   0.29159   0.00000  Uiso   1.00
H50    H     0.29351   0.00451   0.31058   0.00000  Uiso   1.00
H51    H     0.15042   0.44396   0.22401   0.00000  Uiso   1.00
H52    H     0.11959   0.49248   0.19902   0.00000  Uiso   1.00
H53    H     0.17517   0.00257   0.22424   0.00000  Uiso   1.00
H54    H     0.46940   0.28623   0.24659   0.00000  Uiso   1.00
H55    H     0.02846   0.17250   0.16594   0.00000  Uiso   1.00
H56    H     0.11153   0.32160   0.19353   0.00000  Uiso   1.00
H57    H     0.38896   0.20917   0.10316   0.00000  Uiso   1.00
H58    H     0.38750   0.28848   0.23956   0.00000  Uiso   1.00
H59    H     0.10916   0.17401   0.15962   0.00000  Uiso   1.00
H60    H     0.19869   0.14403   0.01734   0.00000  Uiso   1.00
N61    N     0.25000   0.12624   0.16667   0.00000  Uiso   1.00
N62    N     0.25000   0.37377   0.16667   0.00000  Uiso   1.00
O63    O     0.18453   0.28974   0.16667   0.00000  Uiso   1.00
O64    O     0.21879   0.12678   0.04222   0.00000  Uiso   1.00
O65    O     0.32173   0.35271   0.24245   0.00000  Uiso   1.00
O66    O     0.36987   0.38425   0.18783   0.00000  Uiso   1.00
O67    O     0.28899   0.13308   0.28192   0.00000  Uiso   1.00
O68    O     0.34565   0.14228   0.22848   0.00000  Uiso   1.00
O69    O     0.18203   0.34940   0.08970   0.00000  Uiso   1.00
O70    O     0.13029   0.38722   0.13370   0.00000  Uiso   1.00
O71    O     0.20214   0.02935   0.09179   0.00000  Uiso   1.00
O72    O     0.33118   0.47080   0.17857   0.00000  Uiso   1.00
O73    O     0.29997   0.03099   0.24064   0.00000  Uiso   1.00
O74    O     0.31547   0.21026   0.16666   0.00000  Uiso   1.00
O75    O     0.16948   0.46966   0.15490   0.00000  Uiso   1.00
O76    O     0.31547   0.28974   0.16666   0.00000  Uiso   1.00
O77    O     0.18453   0.21026   0.16667   0.00000  Uiso   1.00
O78    O     0.25000   0.28973   0.09511   0.00000  Uiso   1.00
O79    O     0.25000   0.21027   0.23822   0.00000  Uiso   1.00
O80    O     0.25000   0.28973   0.23822   0.00000  Uiso   1.00
O81    O     0.25000   0.21027   0.09511   0.00000  Uiso   1.00
O82    O     0.16569   0.14364   0.09765   0.00000  Uiso   1.00
Zn83   Zn    0.25000   0.30307   0.16667   0.00000  Uiso   1.00
Zn84   Zn    0.25000   0.19693   0.16667   0.00000  Uiso   1.00
C85    C     0.66389   0.24968   0.16808   0.00000  Uiso   1.00
C86    C     0.71020   0.44732   0.15979   0.00000  Uiso   1.00
C87    C     0.74989   0.25000   0.07293   0.00000  Uiso   1.00
C88    C     0.75015   0.25000   0.26040   0.00000  Uiso   1.00
C89    C     0.75033   0.02673   0.16690   0.00000  Uiso   1.00
C90    C     0.75023   0.47350   0.16721   0.00000  Uiso   1.00
C91    C     0.74998   0.24998   0.02178   0.00000  Uiso   1.00
C92    C     0.75008   0.24998   0.31156   0.00000  Uiso   1.00
C93    C     0.54751   0.28835   0.18958   0.00000  Uiso   1.00
C94    C     0.95278   0.22470   0.13816   0.00000  Uiso   1.00
C95    C     0.95204   0.26980   0.21497   0.00000  Uiso   1.00
C96    C     0.83583   0.25016   0.16710   0.00000  Uiso   1.00
C97    C     0.54647   0.20523   0.17147   0.00000  Uiso   1.00
C98    C     0.59357   0.28923   0.18626   0.00000  Uiso   1.00
C99    C     0.90662   0.22616   0.13426   0.00000  Uiso   1.00
C100   C     0.90584   0.27148   0.21080   0.00000  Uiso   1.00
C101   C     0.59239   0.20623   0.16767   0.00000  Uiso   1.00
C102   C     0.61595   0.24854   0.17352   0.00000  Uiso   1.00
C103   C     0.88351   0.25011   0.17020   0.00000  Uiso   1.00
C104   C     0.52390   0.24652   0.18106   0.00000  Uiso   1.00
C105   C     0.97553   0.24657   0.17850   0.00000  Uiso   1.00
C106   C     0.70175   0.12599   0.08997   0.00000  Uiso   1.00
C107   C     0.72645   0.10156   0.13034   0.00000  Uiso   1.00
C108   C     0.82692   0.37632   0.20519   0.00000  Uiso   1.00
C109   C     0.80249   0.12770   0.23994   0.00000  Uiso   1.00
C110   C     0.67448   0.37578   0.12400   0.00000  Uiso   1.00
C111   C     0.73128   0.01308   0.05587   0.00000  Uiso   1.00
C112   C     0.84622   0.48004   0.13038   0.00000  Uiso   1.00
C113   C     0.77198   0.01647   0.27868   0.00000  Uiso   1.00
C114   C     0.65350   0.47724   0.20291   0.00000  Uiso   1.00
C115   C     0.78808   0.39889   0.18050   0.00000  Uiso   1.00
C116   C     0.77452   0.10240   0.20242   0.00000  Uiso   1.00
C117   C     0.71216   0.39832   0.15231   0.00000  Uiso   1.00
C118   C     0.72690   0.05212   0.12914   0.00000  Uiso   1.00
C119   C     0.79018   0.44800   0.17406   0.00000  Uiso   1.00
C120   C     0.77425   0.05297   0.20399   0.00000  Uiso   1.00
H121   H     0.53026   0.32047   0.19724   0.00000  Uiso   1.00
H122   H     0.89414   0.36960   0.20983   0.00000  Uiso   1.00
H123   H     0.86189   0.15868   0.25743   0.00000  Uiso   1.00
H124   H     0.60770   0.37057   0.11065   0.00000  Uiso   1.00
H125   H     0.74861   0.48096   0.06863   0.00000  Uiso   1.00
H126   H     0.75637   0.04015   0.04578   0.00000  Uiso   1.00
H127   H     0.71087   0.00375   0.02195   0.00000  Uiso   1.00
H128   H     0.82475   0.00615   0.11071   0.00000  Uiso   1.00
H129   H     0.84795   0.44757   0.10778   0.00000  Uiso   1.00
H130   H     0.88056   0.49506   0.13390   0.00000  Uiso   1.00
H131   H     0.75042   0.48643   0.26664   0.00000  Uiso   1.00
H132   H     0.97074   0.20721   0.10939   0.00000  Uiso   1.00
H133   H     0.75095   0.04559   0.29159   0.00000  Uiso   1.00
H134   H     0.79351   0.00451   0.31058   0.00000  Uiso   1.00
H135   H     0.65042   0.44396   0.22401   0.00000  Uiso   1.00
H136   H     0.61959   0.49248   0.19902   0.00000  Uiso   1.00
H137   H     0.67517   0.00257   0.22424   0.00000  Uiso   1.00
H138   H     0.96940   0.28623   0.24659   0.00000  Uiso   1.00
H139   H     0.52846   0.17250   0.16594   0.00000  Uiso   1.00
H140   H     0.61153   0.32160   0.19353   0.00000  Uiso   1.00
H141   H     0.88896   0.20917   0.10316   0.00000  Uiso   1.00
H142   H     0.88750   0.28848   0.23956   0.00000  Uiso   1.00
H143   H     0.60916   0.17401   0.15962   0.00000  Uiso   1.00
H144   H     0.69869   0.14403   0.01734   0.00000  Uiso   1.00
N145   N     0.75000   0.12624   0.16667   0.00000  Uiso   1.00
N146   N     0.75000   0.37377   0.16667   0.00000  Uiso   1.00
O147   O     0.68453   0.28974   0.16667   0.00000  Uiso   1.00
O148   O     0.71879   0.12678   0.04222   0.00000  Uiso   1.00
O149   O     0.82173   0.35271   0.24245   0.00000  Uiso   1.00
O150   O     0.86987   0.38425   0.18783   0.00000  Uiso   1.00
O151   O     0.78899   0.13308   0.28192   0.00000  Uiso   1.00
O152   O     0.84565   0.14228   0.22848   0.00000  Uiso   1.00
O153   O     0.68203   0.34940   0.08970   0.00000  Uiso   1.00
O154   O     0.63029   0.38722   0.13370   0.00000  Uiso   1.00
O155   O     0.70214   0.02935   0.09179   0.00000  Uiso   1.00
O156   O     0.83118   0.47080   0.17857   0.00000  Uiso   1.00
O157   O     0.79997   0.03099   0.24064   0.00000  Uiso   1.00
O158   O     0.81547   0.21026   0.16666   0.00000  Uiso   1.00
O159   O     0.66948   0.46966   0.15490   0.00000  Uiso   1.00
O160   O     0.81547   0.28974   0.16666   0.00000  Uiso   1.00
O161   O     0.68453   0.21026   0.16667   0.00000  Uiso   1.00
O162   O     0.75000   0.28973   0.09511   0.00000  Uiso   1.00
O163   O     0.75000   0.21027   0.23822   0.00000  Uiso   1.00
O164   O     0.75000   0.28973   0.23822   0.00000  Uiso   1.00
O165   O     0.75000   0.21027   0.09511   0.00000  Uiso   1.00
O166   O     0.66569   0.14364   0.09765   0.00000  Uiso   1.00
Zn167  Zn    0.75000   0.30307   0.16667   0.00000  Uiso   1.00
Zn168  Zn    0.75000   0.19693   0.16667   0.00000  Uiso   1.00
C169   C     0.16389   0.74968   0.16808   0.00000  Uiso   1.00
C170   C     0.21020   0.94732   0.15979   0.00000  Uiso   1.00
C171   C     0.24989   0.75000   0.07293   0.00000  Uiso   1.00
C172   C     0.25015   0.75000   0.26040   0.00000  Uiso   1.00
C173   C     0.25033   0.52673   0.16690   0.00000  Uiso   1.00
C174   C     0.25023   0.97350   0.16721   0.00000  Uiso   1.00
C175   C     0.24998   0.74998   0.02178   0.00000  Uiso   1.00
C176   C     0.25008   0.74998   0.31156   0.00000  Uiso   1.00
C177   C     0.04751   0.78835   0.18958   0.00000  Uiso   1.00
C178   C     0.45278   0.72470   0.13816   0.00000  Uiso   1.00
C179   C     0.45204   0.76980   0.21497   0.00000  Uiso   1.00
C180   C     0.33583   0.75016   0.16710   0.00000  Uiso   1.00
C181   C     0.04647   0.70523   0.17147   0.00000  Uiso   1.00
C182   C     0.09357   0.78923   0.18626   0.00000  Uiso   1.00
C183   C     0.40662   0.72616   0.13426   0.00000  Uiso   1.00
C184   C     0.40584   0.77148   0.21080   0.00000  Uiso   1.00
C185   C     0.09239   0.70623   0.16767   0.00000  Uiso   1.00
C186   C     0.11595   0.74854   0.17352   0.00000  Uiso   1.00
C187   C     0.38351   0.75011   0.17020   0.00000  Uiso   1.00
C188   C     0.02390   0.74652   0.18106   0.00000  Uiso   1.00
C189   C     0.47553   0.74657   0.17850   0.00000  Uiso   1.00
C190   C     0.20175   0.62599   0.08997   0.00000  Uiso   1.00
C191   C     0.22645   0.60156   0.13034   0.00000  Uiso   1.00
C192   C     0.32692   0.87632   0.20519   0.00000  Uiso   1.00
C193   C     0.30249   0.62770   0.23994   0.00000  Uiso   1.00
C194   C     0.17448   0.87578   0.12400   0.00000  Uiso   1.00
C195   C     0.23128   0.51308   0.05587   0.00000  Uiso   1.00
C196   C     0.34622   0.98004   0.13038   0.00000  Uiso   1.00
C197   C     0.27198   0.51647   0.27868   0.00000  Uiso   1.00
C198   C     0.15350   0.97724   0.20291   0.00000  Uiso   1.00
C199   C     0.28808   0.89889   0.18050   0.00000  Uiso   1.00
C200   C     0.27452   0.60240   0.20242   0.00000  Uiso   1.00
C201   C     0.21216   0.89832   0.15231   0.00000  Uiso   1.00
C202   C     0.22690   0.55212   0.12914   0.00000  Uiso   1.00
C203   C     0.29018   0.94800   0.17406   0.00000  Uiso   1.00
C204   C     0.27425   0.55297   0.20399   0.00000  Uiso   1.00
H205   H     0.03026   0.82047   0.19724   0.00000  Uiso   1.00
H206   H     0.39414   0.86960   0.20983   0.00000  Uiso   1.00
H207   H     0.36189   0.65868   0.25743   0.00000  Uiso   1.00
H208   H     0.10770   0.87057   0.11065   0.00000  Uiso   1.00
H209   H     0.24861   0.98096   0.06863   0.00000  Uiso   1.00
H210   H     0.25637   0.54015   0.04578   0.00000  Uiso   1.00
H211   H     0.21087   0.50375   0.02195   0.00000  Uiso   1.00
H212   H     0.32475   0.50615   0.11071   0.00000  Uiso   1.00
H213   H     0.34795   0.94757   0.10778   0.00000  Uiso   1.00
H214   H     0.38056   0.99506   0.13390   0.00000  Uiso   1.00
H215   H     0.25042   0.98643   0.26664   0.00000  Uiso   1.00
H216   H     0.47074   0.70721   0.10939   0.00000  Uiso   1.00
H217   H     0.25095   0.54559   0.29159   0.00000  Uiso   1.00
H218   H     0.29351   0.50451   0.31058   0.00000  Uiso   1.00
H219   H     0.15042   0.94396   0.22401   0.00000  Uiso   1.00
H220   H     0.11959   0.99248   0.19902   0.00000  Uiso   1.00
H221   H     0.17517   0.50257   0.22424   0.00000  Uiso   1.00
H222   H     0.46940   0.78623   0.24659   0.00000  Uiso   1.00
H223   H     0.02846   0.67250   0.16594   0.00000  Uiso   1.00
H224   H     0.11153   0.82160   0.19353   0.00000  Uiso   1.00
H225   H     0.38896   0.70917   0.10316   0.00000  Uiso   1.00
H226   H     0.38750   0.78848   0.23956   0.00000  Uiso   1.00
H227   H     0.10916   0.67401   0.15962   0.00000  Uiso   1.00
H228   H     0.19869   0.64403   0.01734   0.00000  Uiso   1.00
N229   N     0.25000   0.62624   0.16667   0.00000  Uiso   1.00
N230   N     0.25000   0.87377   0.16667   0.00000  Uiso   1.00
O231   O     0.18453   0.78974   0.16667   0.00000  Uiso   1.00
O232   O     0.21879   0.62678   0.04222   0.00000  Uiso   1.00
O233   O     0.32173   0.85271   0.24245   0.00000  Uiso   1.00
O234   O     0.36987   0.88425   0.18783   0.00000  Uiso   1.00
O235   O     0.28899   0.63308   0.28192   0.00000  Uiso   1.00
O236   O     0.34565   0.64228   0.22848   0.00000  Uiso   1.00
O237   O     0.18203   0.84940   0.08970   0.00000  Uiso   1.00
O238   O     0.13029   0.88722   0.13370   0.00000  Uiso   1.00
O239   O     0.20214   0.52935   0.09179   0.00000  Uiso   1.00
O240   O     0.33118   0.97080   0.17857   0.00000  Uiso   1.00
O241   O     0.29997   0.53099   0.24064   0.00000  Uiso   1.00
O242   O     0.31547   0.71026   0.16666   0.00000  Uiso   1.00
O243   O     0.16948   0.96966   0.15490   0.00000  Uiso   1.00
O244   O     0.31547   0.78974   0.16666   0.00000  Uiso   1.00
O245   O     0.18453   0.71026   0.16667   0.00000  Uiso   1.00
O246   O     0.25000   0.78973   0.09511   0.00000  Uiso   1.00
O247   O     0.25000   0.71027   0.23822   0.00000  Uiso   1.00
O248   O     0.25000   0.78973   0.23822   0.00000  Uiso   1.00
O249   O     0.25000   0.71027   0.09511   0.00000  Uiso   1.00
O250   O     0.16569   0.64364   0.09765   0.00000  Uiso   1.00
Zn251  Zn    0.25000   0.80307   0.16667   0.00000  Uiso   1.00
Zn252  Zn    0.25000   0.69693   0.16667   0.00000  Uiso   1.00
C253   C     0.66389   0.74968   0.16808   0.00000  Uiso   1.00
C254   C     0.71020   0.94732   0.15979   0.00000  Uiso   1.00
C255   C     0.74989   0.75000   0.07293   0.00000  Uiso   1.00
C256   C     0.75015   0.75000   0.26040   0.00000  Uiso   1.00
C257   C     0.75033   0.52673   0.16690   0.00000  Uiso   1.00
C258   C     0.75023   0.97350   0.16721   0.00000  Uiso   1.00
C259   C     0.74998   0.74998   0.02178   0.00000  Uiso   1.00
C260   C     0.75008   0.74998   0.31156   0.00000  Uiso   1.00
C261   C     0.54751   0.78835   0.18958   0.00000  Uiso   1.00
C262   C     0.95278   0.72470   0.13816   0.00000  Uiso   1.00
C263   C     0.95204   0.76980   0.21497   0.00000  Uiso   1.00
C264   C     0.83583   0.75016   0.16710   0.00000  Uiso   1.00
C265   C     0.54647   0.70523   0.17147   0.00000  Uiso   1.00
C266   C     0.59357   0.78923   0.18626   0.00000  Uiso   1.00
C267   C     0.90662   0.72616   0.13426   0.00000  Uiso   1.00
C268   C     0.90584   0.77148   0.21080   0.00000  Uiso   1.00
C269   C     0.59239   0.70623   0.16767   0.00000  Uiso   1.00
C270   C     0.61595   0.74854   0.17352   0.00000  Uiso   1.00
C271   C     0.88351   0.75011   0.17020   0.00000  Uiso   1.00
C272   C     0.52390   0.74652   0.18106   0.00000  Uiso   1.00
C273   C     0.97553   0.74657   0.17850   0.00000  Uiso   1.00
C274   C     0.70175   0.62599   0.08997   0.00000  Uiso   1.00
C275   C     0.72645   0.60156   0.13034   0.00000  Uiso   1.00
C276   C     0.82692   0.87632   0.20519   0.00000  Uiso   1.00
C277   C     0.80249   0.62770   0.23994   0.00000  Uiso   1.00
C278   C     0.67448   0.87578   0.12400   0.00000  Uiso   1.00
C279   C     0.73128   0.51308   0.05587   0.00000  Uiso   1.00
C280   C     0.84622   0.98004   0.13038   0.00000  Uiso   1.00
C281   C     0.77198   0.51647   0.27868   0.00000  Uiso   1.00
C282   C     0.65350   0.97724   0.20291   0.00000  Uiso   1.00
C283   C     0.78808   0.89889   0.18050   0.00000  Uiso   1.00
C284   C     0.77452   0.60240   0.20242   0.00000  Uiso   1.00
C285   C     0.71216   0.89832   0.15231   0.00000  Uiso   1.00
C286   C     0.72690   0.55212   0.12914   0.00000  Uiso   1.00
C287   C     0.79018   0.94800   0.17406   0.00000  Uiso   1.00
C288   C     0.77425   0.55297   0.20399   0.00000  Uiso   1.00
H289   H     0.53026   0.82047   0.19724   0.00000  Uiso   1.00
H290   H     0.89414   0.86960   0.20983   0.00000  Uiso   1.00
H291   H     0.86189   0.65868   0.25743   0.00000  Uiso   1.00
H292   H     0.60770   0.87057   0.11065   0.00000  Uiso   1.00
H293   H     0.74861   0.98096   0.06863   0.00000  Uiso   1.00
H294   H     0.75637   0.54015   0.04578   0.00000  Uiso   1.00
H295   H     0.71087   0.50375   0.02195   0.00000  Uiso   1.00
H296   H     0.82475   0.50615   0.11071   0.00000  Uiso   1.00
H297   H     0.84795   0.94757   0.10778   0.00000  Uiso   1.00
H298   H     0.88056   0.99506   0.13390   0.00000  Uiso   1.00
H299   H     0.75042   0.98643   0.26664   0.00000  Uiso   1.00
H300   H     0.97074   0.70721   0.10939   0.00000  Uiso   1.00
H301   H     0.75095   0.54559   0.29159   0.00000  Uiso   1.00
H302   H     0.79351   0.50451   0.31058   0.00000  Uiso   1.00
H303   H     0.65042   0.94396   0.22401   0.00000  Uiso   1.00
H304   H     0.61959   0.99248   0.19902   0.00000  Uiso   1.00
H305   H     0.67517   0.50257   0.22424   0.00000  Uiso   1.00
H306   H     0.96940   0.78623   0.24659   0.00000  Uiso   1.00
H307   H     0.52846   0.67250   0.16594   0.00000  Uiso   1.00
H308   H     0.61153   0.82160   0.19353   0.00000  Uiso   1.00
H309   H     0.88896   0.70917   0.10316   0.00000  Uiso   1.00
H310   H     0.88750   0.78848   0.23956   0.00000  Uiso   1.00
H311   H     0.60916   0.67401   0.15962   0.00000  Uiso   1.00
H312   H     0.69869   0.64403   0.01734   0.00000  Uiso   1.00
N313   N     0.75000   0.62624   0.16667   0.00000  Uiso   1.00
N314   N     0.75000   0.87377   0.16667   0.00000  Uiso   1.00
O315   O     0.68453   0.78974   0.16667   0.00000  Uiso   1.00
O316   O     0.71879   0.62678   0.04222   0.00000  Uiso   1.00
O317   O     0.82173   0.85271   0.24245   0.00000  Uiso   1.00
O318   O     0.86987   0.88425   0.18783   0.00000  Uiso   1.00
O319   O     0.78899   0.63308   0.28192   0.00000  Uiso   1.00
O320   O     0.84565   0.64228   0.22848   0.00000  Uiso   1.00
O321   O     0.68203   0.84940   0.08970   0.00000  Uiso   1.00
O322   O     0.63029   0.88722   0.13370   0.00000  Uiso   1.00
O323   O     0.70214   0.52935   0.09179   0.00000  Uiso   1.00
O324   O     0.83118   0.97080   0.17857   0.00000  Uiso   1.00
O325   O     0.79997   0.53099   0.24064   0.00000  Uiso   1.00
O326   O     0.81547   0.71026   0.16666   0.00000  Uiso   1.00
O327   O     0.66948   0.96966   0.15490   0.00000  Uiso   1.00
O328   O     0.81547   0.78974   0.16666   0.00000  Uiso   1.00
O329   O     0.68453   0.71026   0.16667   0.00000  Uiso   1.00
O330   O     0.75000   0.78973   0.09511   0.00000  Uiso   1.00
O331   O     0.75000   0.71027   0.23822   0.00000  Uiso   1.00
O332   O     0.75000   0.78973   0.23822   0.00000  Uiso   1.00
O333   O     0.75000   0.71027   0.09511   0.00000  Uiso   1.00
O334   O     0.66569   0.64364   0.09765   0.00000  Uiso   1.00
Zn335  Zn    0.75000   0.80307   0.16667   0.00000  Uiso   1.00
Zn336  Zn    0.75000   0.69693   0.16667   0.00000  Uiso   1.00
C337   C     0.16389   0.24968   0.50142   0.00000  Uiso   1.00
C338   C     0.21020   0.44732   0.49313   0.00000  Uiso   1.00
C339   C     0.24989   0.25000   0.40627   0.00000  Uiso   1.00
C340   C     0.25015   0.25000   0.59373   0.00000  Uiso   1.00
C341   C     0.25033   0.02673   0.50023   0.00000  Uiso   1.00
C342   C     0.25023   0.47350   0.50054   0.00000  Uiso   1.00
C343   C     0.24998   0.24998   0.35511   0.00000  Uiso   1.00
C344   C     0.25008   0.24998   0.64489   0.00000  Uiso   1.00
C345   C     0.04751   0.28835   0.52292   0.00000  Uiso   1.00
C346   C     0.45278   0.22470   0.47149   0.00000  Uiso   1.00
C347   C     0.45204   0.26980   0.54831   0.00000  Uiso   1.00
C348   C     0.33583   0.25016   0.50043   0.00000  Uiso   1.00
C349   C     0.04647   0.20523   0.50480   0.00000  Uiso   1.00
C350   C     0.09357   0.28923   0.51960   0.00000  Uiso   1.00
C351   C     0.40662   0.22616   0.46760   0.00000  Uiso   1.00
C352   C     0.40584   0.27148   0.54413   0.00000  Uiso   1.00
C353   C     0.09239   0.20623   0.50100   0.00000  Uiso   1.00
C354   C     0.11595   0.24854   0.50685   0.00000  Uiso   1.00
C355   C     0.38351   0.25011   0.50354   0.00000  Uiso   1.00
C356   C     0.02390   0.24652   0.51439   0.00000  Uiso   1.00
C357   C     0.47553   0.24657   0.51183   0.00000  Uiso   1.00
C358   C     0.20175   0.12599   0.42330   0.00000  Uiso   1.00
C359   C     0.22645   0.10156   0.46368   0.00000  Uiso   1.00
C360   C     0.32692   0.37632   0.53853   0.00000  Uiso   1.00
C361   C     0.30249   0.12770   0.57327   0.00000  Uiso   1.00
C362   C     0.17448   0.37578   0.45733   0.00000  Uiso   1.00
C363   C     0.23128   0.01308   0.38921   0.00000  Uiso   1.00
C364   C     0.34622   0.48004   0.46371   0.00000  Uiso   1.00
C365   C     0.27198   0.01647   0.61202   0.00000  Uiso   1.00
C366   C     0.15350   0.47724   0.53624   0.00000  Uiso   1.00
C367   C     0.28808   0.39889   0.51383   0.00000  Uiso   1.00
C368   C     0.27452   0.10240   0.53575   0.00000  Uiso   1.00
C369   C     0.21216   0.39832   0.48565   0.00000  Uiso   1.00
C370   C     0.22690   0.05212   0.46248   0.00000  Uiso   1.00
C371   C     0.29018   0.44800   0.50740   0.00000  Uiso   1.00
C372   C     0.27425   0.05297   0.53732   0.00000  Uiso   1.00
H373   H     0.03026   0.32047   0.53057   0.00000  Uiso   1.00
H374   H     0.39414   0.36960   0.54317   0.00000  Uiso   1.00
H375   H     0.36189   0.15868   0.59076   0.00000  Uiso   1.00
H376   H     0.10770   0.37057   0.44398   0.00000  Uiso   1.00
H377   H     0.24861   0.48096   0.40196   0.00000  Uiso   1.00
H378   H     0.25637   0.04015   0.37911   0.00000  Uiso   1.00
H379   H     0.21087   0.00375   0.35529   0.00000  Uiso   1.00
H380   H     0.32475   0.00615   0.44405   0.00000  Uiso   1.00
H381   H     0.34795   0.44757   0.44111   0.00000  Uiso   1.00
H382   H     0.38056   0.49506   0.46723   0.00000  Uiso   1.00
H383   H     0.25042   0.48643   0.59997   0.00000  Uiso   1.00
H384   H     0.47074   0.20721   0.44273   0.00000  Uiso   1.00
H385   H     0.25095   0.04559   0.62492   0.00000  Uiso   1.00
H386   H     0.29351   0.00451   0.64392   0.00000  Uiso   1.00
H387   H     0.15042   0.44396   0.55735   0.00000  Uiso   1.00
H388   H     0.11959   0.49248   0.53235   0.00000  Uiso   1.00
H389   H     0.17517   0.00257   0.55758   0.00000  Uiso   1.00
H390   H     0.46940   0.28623   0.57992   0.00000  Uiso   1.00
H391   H     0.02846   0.17250   0.49927   0.00000  Uiso   1.00
H392   H     0.11153   0.32160   0.52687   0.00000  Uiso   1.00
H393   H     0.38896   0.20917   0.43649   0.00000  Uiso   1.00
H394   H     0.38750   0.28848   0.57289   0.00000  Uiso   1.00
H395   H     0.10916   0.17401   0.49296   0.00000  Uiso   1.00
H396   H     0.19869   0.14403   0.35068   0.00000  Uiso   1.00
N397   N     0.25000   0.12624   0.50000   0.00000  Uiso   1.00
N398   N     0.25000   0.37377   0.50000   0.00000  Uiso   1.00
O399   O     0.18453   0.28974   0.50000   0.00000  Uiso   1.00
O400   O     0.21879   0.12678   0.37556   0.00000  Uiso   1.00
O401   O     0.32173   0.35271   0.57578   0.00000  Uiso   1.00
O402   O     0.36987   0.38425   0.52116   0.00000  Uiso   1.00
O403   O     0.28899   0.13308   0.61526   0.00000  Uiso   1.00
O404   O     0.34565   0.14228   0.56181   0.00000  Uiso   1.00
O405   O     0.18203   0.34940   0.42303   0.00000  Uiso   1.00
O406   O     0.13029   0.38722   0.46703   0.00000  Uiso   1.00
O407   O     0.20214   0.02935   0.42512   0.00000  Uiso   1.00
O408   O     0.33118   0.47080   0.51190   0.00000  Uiso   1.00
O409   O     0.29997   0.03099   0.57397   0.00000  Uiso   1.00
O410   O     0.31547   0.21026   0.50000   0.00000  Uiso   1.00
O411   O     0.16948   0.46966   0.48823   0.00000  Uiso   1.00
O412   O     0.31547   0.28974   0.50000   0.00000  Uiso   1.00
O413   O     0.18453   0.21026   0.50000   0.00000  Uiso   1.00
O414   O     0.25000   0.28973   0.42845   0.00000  Uiso   1.00
O415   O     0.25000   0.21027   0.57155   0.00000  Uiso   1.00
O416   O     0.25000   0.28973   0.57155   0.00000  Uiso   1.00
O417   O     0.25000   0.21027   0.42845   0.00000  Uiso   1.00
O418   O     0.16569   0.14364   0.43098   0.00000  Uiso   1.00
Zn419  Zn    0.25000   0.30307   0.50000   0.00000  Uiso   1.00
Zn420  Zn    0.25000   0.19693   0.50000   0.00000  Uiso   1.00
C421   C     0.66389   0.24968   0.50142   0.00000  Uiso   1.00
C422   C     0.71020   0.44732   0.49313   0.00000  Uiso   1.00
C423   C     0.74989   0.25000   0.40627   0.00000  Uiso   1.00
C424   C     0.75015   0.25000   0.59373   0.00000  Uiso   1.00
C425   C     0.75033   0.02673   0.50023   0.00000  Uiso   1.00
C426   C     0.75023   0.47350   0.50054   0.00000  Uiso   1.00
C427   C     0.74998   0.24998   0.35511   0.00000  Uiso   1.00
C428   C     0.75008   0.24998   0.64489   0.00000  Uiso   1.00
C429   C     0.54751   0.28835   0.52292   0.00000  Uiso   1.00
C430   C     0.95278   0.22470   0.47149   0.00000  Uiso   1.00
C431   C     0.95204   0.26980   0.54831   0.00000  Uiso   1.00
C432   C     0.83583   0.25016   0.50043   0.00000  Uiso   1.00
C433   C     0.54647   0.20523   0.50480   0.00000  Uiso   1.00
C434   C     0.59357   0.28923   0.51960   0.00000  Uiso   1.00
C435   C     0.90662   0.22616   0.46760   0.00000  Uiso   1.00
C436   C     0.90584   0.27148   0.54413   0.00000  Uiso   1.00
C437   C     0.59239   0.20623   0.50100   0.00000  Uiso   1.00
C438   C     0.61595   0.24854   0.50685   0.00000  Uiso   1.00
C439   C     0.88351   0.25011   0.50354   0.00000  Uiso   1.00
C440   C     0.52390   0.24652   0.51439   0.00000  Uiso   1.00
C441   C     0.97553   0.24657   0.51183   0.00000  Uiso   1.00
C442   C     0.70175   0.12599   0.42330   0.00000  Uiso   1.00
C443   C     0.72645   0.10156   0.46368   0.00000  Uiso   1.00
C444   C     0.82692   0.37632   0.53853   0.00000  Uiso   1.00
C445   C     0.80249   0.12770   0.57327   0.00000  Uiso   1.00
C446   C     0.67448   0.37578   0.45733   0.00000  Uiso   1.00
C447   C     0.73128   0.01308   0.38921   0.00000  Uiso   1.00
C448   C     0.84622   0.48004   0.46371   0.00000  Uiso   1.00
C449   C     0.77198   0.01647   0.61202   0.00000  Uiso   1.00
C450   C     0.65350   0.47724   0.53624   0.00000  Uiso   1.00
C451   C     0.78808   0.39889   0.51383   0.00000  Uiso   1.00
C452   C     0.77452   0.10240   0.53575   0.00000  Uiso   1.00
C453   C     0.71216   0.39832   0.48565   0.00000  Uiso   1.00
C454   C     0.72690   0.05212   0.46248   0.00000  Uiso   1.00
C455   C     0.79018   0.44800   0.50740   0.00000  Uiso   1.00
C456   C     0.77425   0.05297   0.53732   0.00000  Uiso   1.00
H457   H     0.53026   0.32047   0.53057   0.00000  Uiso   1.00
H458   H     0.89414   0.36960   0.54317   0.00000  Uiso   1.00
H459   H     0.86189   0.15868   0.59076   0.00000  Uiso   1.00
H460   H     0.60770   0.37057   0.44398   0.00000  Uiso   1.00
H461   H     0.74861   0.48096   0.40196   0.00000  Uiso   1.00
H462   H     0.75637   0.04015   0.37911   0.00000  Uiso   1.00
H463   H     0.71087   0.00375   0.35529   0.00000  Uiso   1.00
H464   H     0.82475   0.00615   0.44405   0.00000  Uiso   1.00
H465   H     0.84795   0.44757   0.44111   0.00000  Uiso   1.00
H466   H     0.88056   0.49506   0.46723   0.00000  Uiso   1.00
H467   H     0.75042   0.48643   0.59997   0.00000  Uiso   1.00
H468   H     0.97074   0.20721   0.44273   0.00000  Uiso   1.00
H469   H     0.75095   0.04559   0.62492   0.00000  Uiso   1.00
H470   H     0.79351   0.00451   0.64392   0.00000  Uiso   1.00
H471   H     0.65042   0.44396   0.55735   0.00000  Uiso   1.00
H472   H     0.61959   0.49248   0.53235   0.00000  Uiso   1.00
H473   H     0.67517   0.00257   0.55758   0.00000  Uiso   1.00
H474   H     0.96940   0.28623   0.57992   0.00000  Uiso   1.00
H475   H     0.52846   0.17250   0.49927   0.00000  Uiso   1.00
H476   H     0.61153   0.32160   0.52687   0.00000  Uiso   1.00
H477   H     0.88896   0.20917   0.43649   0.00000  Uiso   1.00
H478   H     0.88750   0.28848   0.57289   0.00000  Uiso   1.00
H479   H     0.60916   0.17401   0.49296   0.00000  Uiso   1.00
H480   H     0.69869   0.14403   0.35068   0.00000  Uiso   1.00
N481   N     0.75000   0.12624   0.50000   0.00000  Uiso   1.00
N482   N     0.75000   0.37377   0.50000   0.00000  Uiso   1.00
O483   O     0.68453   0.28974   0.50000   0.00000  Uiso   1.00
O484   O     0.71879   0.12678   0.37556   0.00000  Uiso   1.00
O485   O     0.82173   0.35271   0.57578   0.00000  Uiso   1.00
O486   O     0.86987   0.38425   0.52116   0.00000  Uiso   1.00
O487   O     0.78899   0.13308   0.61526   0.00000  Uiso   1.00
O488   O     0.84565   0.14228   0.56181   0.00000  Uiso   1.00
O489   O     0.68203   0.34940   0.42303   0.00000  Uiso   1.00
O490   O     0.63029   0.38722   0.46703   0.00000  Uiso   1.00
O491   O     0.70214   0.02935   0.42512   0.00000  Uiso   1.00
O492   O     0.83118   0.47080   0.51190   0.00000  Uiso   1.00
O493   O     0.79997   0.03099   0.57397   0.00000  Uiso   1.00
O494   O     0.81547   0.21026   0.50000   0.00000  Uiso   1.00
O495   O     0.66948   0.46966   0.48823   0.00000  Uiso   1.00
O496   O     0.81547   0.28974   0.50000   0.00000  Uiso   1.00
O497   O     0.68453   0.21026   0.50000   0.00000  Uiso   1.00
O498   O     0.75000   0.28973   0.42845   0.00000  Uiso   1.00
O499   O     0.75000   0.21027   0.57155   0.00000  Uiso   1.00
O500   O     0.75000   0.28973   0.57155   0.00000  Uiso   1.00
O501   O     0.75000   0.21027   0.42845   0.00000  Uiso   1.00
O502   O     0.66569   0.14364   0.43098   0.00000  Uiso   1.00
Zn503  Zn    0.75000   0.30307   0.50000   0.00000  Uiso   1.00
Zn504  Zn    0.75000   0.19693   0.50000   0.00000  Uiso   1.00
C505   C     0.16389   0.74968   0.50142   0.00000  Uiso   1.00
C506   C     0.21020   0.94732   0.49313   0.00000  Uiso   1.00
C507   C     0.24989   0.75000   0.40627   0.00000  Uiso   1.00
C508   C     0.25015   0.75000   0.59373   0.00000  Uiso   1.00
C509   C     0.25033   0.52673   0.50023   0.00000  Uiso   1.00
C510   C     0.25023   0.97350   0.50054   0.00000  Uiso   1.00
C511   C     0.24998   0.74998   0.35511   0.00000  Uiso   1.00
C512   C     0.25008   0.74998   0.64489   0.00000  Uiso   1.00
C513   C     0.04751   0.78835   0.52292   0.00000  Uiso   1.00
C514   C     0.45278   0.72470   0.47149   0.00000  Uiso   1.00
C515   C     0.45204   0.76980   0.54831   0.00000  Uiso   1.00
C516   C     0.33583   0.75016   0.50043   0.00000  Uiso   1.00
C517   C     0.04647   0.70523   0.50480   0.00000  Uiso   1.00
C518   C     0.09357   0.78923   0.51960   0.00000  Uiso   1.00
C519   C     0.40662   0.72616   0.46760   0.00000  Uiso   1.00
C520   C     0.40584   0.77148   0.54413   0.00000  Uiso   1.00
C521   C     0.09239   0.70623   0.50100   0.00000  Uiso   1.00
C522   C     0.11595   0.74854   0.50685   0.00000  Uiso   1.00
C523   C     0.38351   0.75011   0.50354   0.00000  Uiso   1.00
C524   C     0.02390   0.74652   0.51439   0.00000  Uiso   1.00
C525   C     0.47553   0.74657   0.51183   0.00000  Uiso   1.00
C526   C     0.20175   0.62599   0.42330   0.00000  Uiso   1.00
C527   C     0.22645   0.60156   0.46368   0.00000  Uiso   1.00
C528   C     0.32692   0.87632   0.53853   0.00000  Uiso   1.00
C529   C     0.30249   0.62770   0.57327   0.00000  Uiso   1.00
C530   C     0.17448   0.87578   0.45733   0.00000  Uiso   1.00
C531   C     0.23128   0.51308   0.38921   0.00000  Uiso   1.00
C532   C     0.34622   0.98004   0.46371   0.00000  Uiso   1.00
C533   C     0.27198   0.51647   0.61202   0.00000  Uiso   1.00
C534   C     0.15350   0.97724   0.53624   0.00000  Uiso   1.00
C535   C     0.28808   0.89889   0.51383   0.00000  Uiso   1.00
C536   C     0.27452   0.60240   0.53575   0.00000  Uiso   1.00
C537   C     0.21216   0.89832   0.48565   0.00000  Uiso   1.00
C538   C     0.22690   0.55212   0.46248   0.00000  Uiso   1.00
C539   C     0.29018   0.94800   0.50740   0.00000  Uiso   1.00
C540   C     0.27425   0.55297   0.53732   0.00000  Uiso   1.00
H541   H     0.03026   0.82047   0.53057   0.00000  Uiso   1.00
H542   H     0.39414   0.86960   0.54317   0.00000  Uiso   1.00
H543   H     0.36189   0.65868   0.59076   0.00000  Uiso   1.00
H544   H     0.10770   0.87057   0.44398   0.00000  Uiso   1.00
H545   H     0.24861   0.98096   0.40196   0.00000  Uiso   1.00
H546   H     0.25637   0.54015   0.37911   0.00000  Uiso   1.00
H547   H     0.21087   0.50375   0.35529   0.00000  Uiso   1.00
H548   H     0.32475   0.50615   0.44405   0.00000  Uiso   1.00
H549   H     0.34795   0.94757   0.44111   0.00000  Uiso   1.00
H550   H     0.38056   0.99506   0.46723   0.00000  Uiso   1.00
H551   H     0.25042   0.98643   0.59997   0.00000  Uiso   1.00
H552   H     0.47074   0.70721   0.44273   0.00000  Uiso   1.00
H553   H     0.25095   0.54559   0.62492   0.00000  Uiso   1.00
H554   H     0.29351   0.50451   0.64392   0.00000  Uiso   1.00
H555   H     0.15042   0.94396   0.55735   0.00000  Uiso   1.00
H556   H     0.11959   0.99248   0.53235   0.00000  Uiso   1.00
H557   H     0.17517   0.50257   0.55758   0.00000  Uiso   1.00
H558   H     0.46940   0.78623   0.57992   0.00000  Uiso   1.00
H559   H     0.02846   0.67250   0.49927   0.00000  Uiso   1.00
H560   H     0.11153   0.82160   0.52687   0.00000  Uiso   1.00
H561   H     0.38896   0.70917   0.43649   0.00000  Uiso   1.00
H562   H     0.38750   0.78848   0.57289   0.00000  Uiso   1.00
H563   H     0.10916   0.67401   0.49296   0.00000  Uiso   1.00
H564   H     0.19869   0.64403   0.35068   0.00000  Uiso   1.00
N565   N     0.25000   0.62624   0.50000   0.00000  Uiso   1.00
N566   N     0.25000   0.87377   0.50000   0.00000  Uiso   1.00
O567   O     0.18453   0.78974   0.50000   0.00000  Uiso   1.00
O568   O     0.21879   0.62678   0.37556   0.00000  Uiso   1.00
O569   O     0.32173   0.85271   0.57578   0.00000  Uiso   1.00
O570   O     0.36987   0.88425   0.52116   0.00000  Uiso   1.00
O571   O     0.28899   0.63308   0.61526   0.00000  Uiso   1.00
O572   O     0.34565   0.64228   0.56181   0.00000  Uiso   1.00
O573   O     0.18203   0.84940   0.42303   0.00000  Uiso   1.00
O574   O     0.13029   0.88722   0.46703   0.00000  Uiso   1.00
O575   O     0.20214   0.52935   0.42512   0.00000  Uiso   1.00
O576   O     0.33118   0.97080   0.51190   0.00000  Uiso   1.00
O577   O     0.29997   0.53099   0.57397   0.00000  Uiso   1.00
O578   O     0.31547   0.71026   0.50000   0.00000  Uiso   1.00
O579   O     0.16948   0.96966   0.48823   0.00000  Uiso   1.00
O580   O     0.31547   0.78974   0.50000   0.00000  Uiso   1.00
O581   O     0.18453   0.71026   0.50000   0.00000  Uiso   1.00
O582   O     0.25000   0.78973   0.42845   0.00000  Uiso   1.00
O583   O     0.25000   0.71027   0.57155   0.00000  Uiso   1.00
O584   O     0.25000   0.78973   0.57155   0.00000  Uiso   1.00
O585   O     0.25000   0.71027   0.42845   0.00000  Uiso   1.00
O586   O     0.16569   0.64364   0.43098   0.00000  Uiso   1.00
Zn587  Zn    0.25000   0.80307   0.50000   0.00000  Uiso   1.00
Zn588  Zn    0.25000   0.69693   0.50000   0.00000  Uiso   1.00
C589   C     0.66389   0.74968   0.50142   0.00000  Uiso   1.00
C590   C     0.71020   0.94732   0.49313   0.00000  Uiso   1.00
C591   C     0.74989   0.75000   0.40627   0.00000  Uiso   1.00
C592   C     0.75015   0.75000   0.59373   0.00000  Uiso   1.00
C593   C     0.75033   0.52673   0.50023   0.00000  Uiso   1.00
C594   C     0.75023   0.97350   0.50054   0.00000  Uiso   1.00
C595   C     0.74998   0.74998   0.35511   0.00000  Uiso   1.00
C596   C     0.75008   0.74998   0.64489   0.00000  Uiso   1.00
C597   C     0.54751   0.78835   0.52292   0.00000  Uiso   1.00
C598   C     0.95278   0.72470   0.47149   0.00000  Uiso   1.00
C599   C     0.95204   0.76980   0.54831   0.00000  Uiso   1.00
C600   C     0.83583   0.75016   0.50043   0.00000  Uiso   1.00
C601   C     0.54647   0.70523   0.50480   0.00000  Uiso   1.00
C602   C     0.59357   0.78923   0.51960   0.00000  Uiso   1.00
C603   C     0.90662   0.72616   0.46760   0.00000  Uiso   1.00
C604   C     0.90584   0.77148   0.54413   0.00000  Uiso   1.00
C605   C     0.59239   0.70623   0.50100   0.00000  Uiso   1.00
C606   C     0.61595   0.74854   0.50685   0.00000  Uiso   1.00
C607   C     0.88351   0.75011   0.50354   0.00000  Uiso   1.00
C608   C     0.52390   0.74652   0.51439   0.00000  Uiso   1.00
C609   C     0.97553   0.74657   0.51183   0.00000  Uiso   1.00
C610   C     0.70175   0.62599   0.42330   0.00000  Uiso   1.00
C611   C     0.72645   0.60156   0.46368   0.00000  Uiso   1.00
C612   C     0.82692   0.87632   0.53853   0.00000  Uiso   1.00
C613   C     0.80249   0.62770   0.57327   0.00000  Uiso   1.00
C614   C     0.67448   0.87578   0.45733   0.00000  Uiso   1.00
C615   C     0.73128   0.51308   0.38921   0.00000  Uiso   1.00
C616   C     0.84622   0.98004   0.46371   0.00000  Uiso   1.00
C617   C     0.77198   0.51647   0.61202   0.00000  Uiso   1.00
C618   C     0.65350   0.97724   0.53624   0.00000  Uiso   1.00
C619   C     0.78808   0.89889   0.51383   0.00000  Uiso   1.00
C620   C     0.77452   0.60240   0.53575   0.00000  Uiso   1.00
C621   C     0.71216   0.89832   0.48565   0.00000  Uiso   1.00
C622   C     0.72690   0.55212   0.46248   0.00000  Uiso   1.00
C623   C     0.79018   0.94800   0.50740   0.00000  Uiso   1.00
C624   C     0.77425   0.55297   0.53732   0.00000  Uiso   1.00
H625   H     0.53026   0.82047   0.53057   0.00000  Uiso   1.00
H626   H     0.89414   0.86960   0.54317   0.00000  Uiso   1.00
H627   H     0.86189   0.65868   0.59076   0.00000  Uiso   1.00
H628   H     0.60770   0.87057   0.44398   0.00000  Uiso   1.00
H629   H     0.74861   0.98096   0.40196   0.00000  Uiso   1.00
H630   H     0.75637   0.54015   0.37911   0.00000  Uiso   1.00
H631   H     0.71087   0.50375   0.35529   0.00000  Uiso   1.00
H632   H     0.82475   0.50615   0.44405   0.00000  Uiso   1.00
H633   H     0.84795   0.94757   0.44111   0.00000  Uiso   1.00
H634   H     0.88056   0.99506   0.46723   0.00000  Uiso   1.00
H635   H     0.75042   0.98643   0.59997   0.00000  Uiso   1.00
H636   H     0.97074   0.70721   0.44273   0.00000  Uiso   1.00
H637   H     0.75095   0.54559   0.62492   0.00000  Uiso   1.00
H638   H     0.79351   0.50451   0.64392   0.00000  Uiso   1.00
H639   H     0.65042   0.94396   0.55735   0.00000  Uiso   1.00
H640   H     0.61959   0.99248   0.53235   0.00000  Uiso   1.00
H641   H     0.67517   0.50257   0.55758   0.00000  Uiso   1.00
H642   H     0.96940   0.78623   0.57992   0.00000  Uiso   1.00
H643   H     0.52846   0.67250   0.49927   0.00000  Uiso   1.00
H644   H     0.61153   0.82160   0.52687   0.00000  Uiso   1.00
H645   H     0.88896   0.70917   0.43649   0.00000  Uiso   1.00
H646   H     0.88750   0.78848   0.57289   0.00000  Uiso   1.00
H647   H     0.60916   0.67401   0.49296   0.00000  Uiso   1.00
H648   H     0.69869   0.64403   0.35068   0.00000  Uiso   1.00
N649   N     0.75000   0.62624   0.50000   0.00000  Uiso   1.00
N650   N     0.75000   0.87377   0.50000   0.00000  Uiso   1.00
O651   O     0.68453   0.78974   0.50000   0.00000  Uiso   1.00
O652   O     0.71879   0.62678   0.37556   0.00000  Uiso   1.00
O653   O     0.82173   0.85271   0.57578   0.00000  Uiso   1.00
O654   O     0.86987   0.88425   0.52116   0.00000  Uiso   1.00
O655   O     0.78899   0.63308   0.61526   0.00000  Uiso   1.00
O656   O     0.84565   0.64228   0.56181   0.00000  Uiso   1.00
O657   O     0.68203   0.84940   0.42303   0.00000  Uiso   1.00
O658   O     0.63029   0.88722   0.46703   0.00000  Uiso   1.00
O659   O     0.70214   0.52935   0.42512   0.00000  Uiso   1.00
O660   O     0.83118   0.97080   0.51190   0.00000  Uiso   1.00
O661   O     0.79997   0.53099   0.57397   0.00000  Uiso   1.00
O662   O     0.81547   0.71026   0.50000   0.00000  Uiso   1.00
O663   O     0.66948   0.96966   0.48823   0.00000  Uiso   1.00
O664   O     0.81547   0.78974   0.50000   0.00000  Uiso   1.00
O665   O     0.68453   0.71026   0.50000   0.00000  Uiso   1.00
O666   O     0.75000   0.78973   0.42845   0.00000  Uiso   1.00
O667   O     0.75000   0.71027   0.57155   0.00000  Uiso   1.00
O668   O     0.75000   0.78973   0.57155   0.00000  Uiso   1.00
O669   O     0.75000   0.71027   0.42845   0.00000  Uiso   1.00
O670   O     0.66569   0.64364   0.43098   0.00000  Uiso   1.00
Zn671  Zn    0.75000   0.80307   0.50000   0.00000  Uiso   1.00
Zn672  Zn    0.75000   0.69693   0.50000   0.00000  Uiso   1.00
C673   C     0.16389   0.24968   0.83475   0.00000  Uiso   1.00
C674   C     0.21020   0.44732   0.82646   0.00000  Uiso   1.00
C675   C     0.24989   0.25000   0.73960   0.00000  Uiso   1.00
C676   C     0.25015   0.25000   0.92707   0.00000  Uiso   1.00
C677   C     0.25033   0.02673   0.83356   0.00000  Uiso   1.00
C678   C     0.25023   0.47350   0.83387   0.00000  Uiso   1.00
C679   C     0.24998   0.24998   0.68845   0.00000  Uiso   1.00
C680   C     0.25008   0.24998   0.97822   0.00000  Uiso   1.00
C681   C     0.04751   0.28835   0.85625   0.00000  Uiso   1.00
C682   C     0.45278   0.22470   0.80482   0.00000  Uiso   1.00
C683   C     0.45204   0.26980   0.88164   0.00000  Uiso   1.00
C684   C     0.33583   0.25016   0.83377   0.00000  Uiso   1.00
C685   C     0.04647   0.20523   0.83813   0.00000  Uiso   1.00
C686   C     0.09357   0.28923   0.85293   0.00000  Uiso   1.00
C687   C     0.40662   0.22616   0.80093   0.00000  Uiso   1.00
C688   C     0.40584   0.27148   0.87747   0.00000  Uiso   1.00
C689   C     0.09239   0.20623   0.83433   0.00000  Uiso   1.00
C690   C     0.11595   0.24854   0.84018   0.00000  Uiso   1.00
C691   C     0.38351   0.25011   0.83687   0.00000  Uiso   1.00
C692   C     0.02390   0.24652   0.84773   0.00000  Uiso   1.00
C693   C     0.47553   0.24657   0.84517   0.00000  Uiso   1.00
C694   C     0.20175   0.12599   0.75663   0.00000  Uiso   1.00
C695   C     0.22645   0.10156   0.79701   0.00000  Uiso   1.00
C696   C     0.32692   0.37632   0.87186   0.00000  Uiso   1.00
C697   C     0.30249   0.12770   0.90660   0.00000  Uiso   1.00
C698   C     0.17448   0.37578   0.79066   0.00000  Uiso   1.00
C699   C     0.23128   0.01308   0.72254   0.00000  Uiso   1.00
C700   C     0.34622   0.48004   0.79705   0.00000  Uiso   1.00
C701   C     0.27198   0.01647   0.94535   0.00000  Uiso   1.00
C702   C     0.15350   0.47724   0.86958   0.00000  Uiso   1.00
C703   C     0.28808   0.39889   0.84716   0.00000  Uiso   1.00
C704   C     0.27452   0.10240   0.86909   0.00000  Uiso   1.00
C705   C     0.21216   0.39832   0.81898   0.00000  Uiso   1.00
C706   C     0.22690   0.05212   0.79581   0.00000  Uiso   1.00
C707   C     0.29018   0.44800   0.84073   0.00000  Uiso   1.00
C708   C     0.27425   0.05297   0.87065   0.00000  Uiso   1.00
H709   H     0.03026   0.32047   0.86390   0.00000  Uiso   1.00
H710   H     0.39414   0.36960   0.87650   0.00000  Uiso   1.00
H711   H     0.36189   0.15868   0.92410   0.00000  Uiso   1.00
H712   H     0.10770   0.37057   0.77732   0.00000  Uiso   1.00
H713   H     0.24861   0.48096   0.73530   0.00000  Uiso   1.00
H714   H     0.25637   0.04015   0.71245   0.00000  Uiso   1.00
H715   H     0.21087   0.00375   0.68862   0.00000  Uiso   1.00
H716   H     0.32475   0.00615   0.77738   0.00000  Uiso   1.00
H717   H     0.34795   0.44757   0.77444   0.00000  Uiso   1.00
H718   H     0.38056   0.49506   0.80057   0.00000  Uiso   1.00
H719   H     0.25042   0.48643   0.93331   0.00000  Uiso   1.00
H720   H     0.47074   0.20721   0.77606   0.00000  Uiso   1.00
H721   H     0.25095   0.04559   0.95826   0.00000  Uiso   1.00
H722   H     0.29351   0.00451   0.97725   0.00000  Uiso   1.00
H723   H     0.15042   0.44396   0.89068   0.00000  Uiso   1.00
H724   H     0.11959   0.49248   0.86568   0.00000  Uiso   1.00
H725   H     0.17517   0.00257   0.89091   0.00000  Uiso   1.00
H726   H     0.46940   0.28623   0.91325   0.00000  Uiso   1.00
H727   H     0.02846   0.17250   0.83261   0.00000  Uiso   1.00
H728   H     0.11153   0.32160   0.86020   0.00000  Uiso   1.00
H729   H     0.38896   0.20917   0.76983   0.00000  Uiso   1.00
H730   H     0.38750   0.28848   0.90622   0.00000  Uiso   1.00
H731   H     0.10916   0.17401   0.82629   0.00000  Uiso   1.00
H732   H     0.19869   0.14403   0.68401   0.00000  Uiso   1.00
N733   N     0.25000   0.12624   0.83333   0.00000  Uiso   1.00
N734   N     0.25000   0.37377   0.83333   0.00000  Uiso   1.00
O735   O     0.18453   0.28974   0.83334   0.00000  Uiso   1.00
O736   O     0.21879   0.12678   0.70889   0.00000  Uiso   1.00
O737   O     0.32173   0.35271   0.90911   0.00000  Uiso   1.00
O738   O     0.36987   0.38425   0.85449   0.00000  Uiso   1.00
O739   O     0.28899   0.13308   0.94859   0.00000  Uiso   1.00
O740   O     0.34565   0.14228   0.89515   0.00000  Uiso   1.00
O741   O     0.18203   0.34940   0.75637   0.00000  Uiso   1.00
O742   O     0.13029   0.38722   0.80036   0.00000  Uiso   1.00
O743   O     0.20214   0.02935   0.75845   0.00000  Uiso   1.00
O744   O     0.33118   0.47080   0.84523   0.00000  Uiso   1.00
O745   O     0.29997   0.03099   0.90731   0.00000  Uiso   1.00
O746   O     0.31547   0.21026   0.83333   0.00000  Uiso   1.00
O747   O     0.16948   0.46966   0.82157   0.00000  Uiso   1.00
O748   O     0.31547   0.28974   0.83333   0.00000  Uiso   1.00
O749   O     0.18453   0.21026   0.83334   0.00000  Uiso   1.00
O750   O     0.25000   0.28973   0.76178   0.00000  Uiso   1.00
O751   O     0.25000   0.21027   0.90489   0.00000  Uiso   1.00
O752   O     0.25000   0.28973   0.90489   0.00000  Uiso   1.00
O753   O     0.25000   0.21027   0.76178   0.00000  Uiso   1.00
O754   O     0.16569   0.14364   0.76431   0.00000  Uiso   1.00
Zn755  Zn    0.25000   0.30307   0.83333   0.00000  Uiso   1.00
Zn756  Zn    0.25000   0.19693   0.83333   0.00000  Uiso   1.00
C757   C     0.66389   0.24968   0.83475   0.00000  Uiso   1.00
C758   C     0.71020   0.44732   0.82646   0.00000  Uiso   1.00
C759   C     0.74989   0.25000   0.73960   0.00000  Uiso   1.00
C760   C     0.75015   0.25000   0.92707   0.00000  Uiso   1.00
C761   C     0.75033   0.02673   0.83356   0.00000  Uiso   1.00
C762   C     0.75023   0.47350   0.83387   0.00000  Uiso   1.00
C763   C     0.74998   0.24998   0.68845   0.00000  Uiso   1.00
C764   C     0.75008   0.24998   0.97822   0.00000  Uiso   1.00
C765   C     0.54751   0.28835   0.85625   0.00000  Uiso   1.00
C766   C     0.95278   0.22470   0.80482   0.00000  Uiso   1.00
C767   C     0.95204   0.26980   0.88164   0.00000  Uiso   1.00
C768   C     0.83583   0.25016   0.83377   0.00000  Uiso   1.00
C769   C     0.54647   0.20523   0.83813   0.00000  Uiso   1.00
C770   C     0.59357   0.28923   0.85293   0.00000  Uiso   1.00
C771   C     0.90662   0.22616   0.80093   0.00000  Uiso   1.00
C772   C     0.90584   0.27148   0.87747   0.00000  Uiso   1.00
C773   C     0.59239   0.20623   0.83433   0.00000  Uiso   1.00
C774   C     0.61595   0.24854   0.84018   0.00000  Uiso   1.00
C775   C     0.88351   0.25011   0.83687   0.00000  Uiso   1.00
C776   C     0.52390   0.24652   0.84773   0.00000  Uiso   1.00
C777   C     0.97553   0.24657   0.84517   0.00000  Uiso   1.00
C778   C     0.70175   0.12599   0.75663   0.00000  Uiso   1.00
C779   C     0.72645   0.10156   0.79701   0.00000  Uiso   1.00
C780   C     0.82692   0.37632   0.87186   0.00000  Uiso   1.00
C781   C     0.80249   0.12770   0.90660   0.00000  Uiso   1.00
C782   C     0.67448   0.37578   0.79066   0.00000  Uiso   1.00
C783   C     0.73128   0.01308   0.72254   0.00000  Uiso   1.00
C784   C     0.84622   0.48004   0.79705   0.00000  Uiso   1.00
C785   C     0.77198   0.01647   0.94535   0.00000  Uiso   1.00
C786   C     0.65350   0.47724   0.86958   0.00000  Uiso   1.00
C787   C     0.78808   0.39889   0.84716   0.00000  Uiso   1.00
C788   C     0.77452   0.10240   0.86909   0.00000  Uiso   1.00
C789   C     0.71216   0.39832   0.81898   0.00000  Uiso   1.00
C790   C     0.72690   0.05212   0.79581   0.00000  Uiso   1.00
C791   C     0.79018   0.44800   0.84073   0.00000  Uiso   1.00
C792   C     0.77425   0.05297   0.87065   0.00000  Uiso   1.00
H793   H     0.53026   0.32047   0.86390   0.00000  Uiso   1.00
H794   H     0.89414   0.36960   0.87650   0.00000  Uiso   1.00
H795   H     0.86189   0.15868   0.92410   0.00000  Uiso   1.00
H796   H     0.60770   0.37057   0.77732   0.00000  Uiso   1.00
H797   H     0.74861   0.48096   0.73530   0.00000  Uiso   1.00
H798   H     0.75637   0.04015   0.71245   0.00000  Uiso   1.00
H799   H     0.71087   0.00375   0.68862   0.00000  Uiso   1.00
H800   H     0.82475   0.00615   0.77738   0.00000  Uiso   1.00
H801   H     0.84795   0.44757   0.77444   0.00000  Uiso   1.00
H802   H     0.88056   0.49506   0.80057   0.00000  Uiso   1.00
H803   H     0.75042   0.48643   0.93331   0.00000  Uiso   1.00
H804   H     0.97074   0.20721   0.77606   0.00000  Uiso   1.00
H805   H     0.75095   0.04559   0.95826   0.00000  Uiso   1.00
H806   H     0.79351   0.00451   0.97725   0.00000  Uiso   1.00
H807   H     0.65042   0.44396   0.89068   0.00000  Uiso   1.00
H808   H     0.61959   0.49248   0.86568   0.00000  Uiso   1.00
H809   H     0.67517   0.00257   0.89091   0.00000  Uiso   1.00
H810   H     0.96940   0.28623   0.91325   0.00000  Uiso   1.00
H811   H     0.52846   0.17250   0.83261   0.00000  Uiso   1.00
H812   H     0.61153   0.32160   0.86020   0.00000  Uiso   1.00
H813   H     0.88896   0.20917   0.76983   0.00000  Uiso   1.00
H814   H     0.88750   0.28848   0.90622   0.00000  Uiso   1.00
H815   H     0.60916   0.17401   0.82629   0.00000  Uiso   1.00
H816   H     0.69869   0.14403   0.68401   0.00000  Uiso   1.00
N817   N     0.75000   0.12624   0.83333   0.00000  Uiso   1.00
N818   N     0.75000   0.37377   0.83333   0.00000  Uiso   1.00
O819   O     0.68453   0.28974   0.83334   0.00000  Uiso   1.00
O820   O     0.71879   0.12678   0.70889   0.00000  Uiso   1.00
O821   O     0.82173   0.35271   0.90911   0.00000  Uiso   1.00
O822   O     0.86987   0.38425   0.85449   0.00000  Uiso   1.00
O823   O     0.78899   0.13308   0.94859   0.00000  Uiso   1.00
O824   O     0.84565   0.14228   0.89515   0.00000  Uiso   1.00
O825   O     0.68203   0.34940   0.75637   0.00000  Uiso   1.00
O826   O     0.63029   0.38722   0.80036   0.00000  Uiso   1.00
O827   O     0.70214   0.02935   0.75845   0.00000  Uiso   1.00
O828   O     0.83118   0.47080   0.84523   0.00000  Uiso   1.00
O829   O     0.79997   0.03099   0.90731   0.00000  Uiso   1.00
O830   O     0.81547   0.21026   0.83333   0.00000  Uiso   1.00
O831   O     0.66948   0.46966   0.82157   0.00000  Uiso   1.00
O832   O     0.81547   0.28974   0.83333   0.00000  Uiso   1.00
O833   O     0.68453   0.21026   0.83334   0.00000  Uiso   1.00
O834   O     0.75000   0.28973   0.76178   0.00000  Uiso   1.00
O835   O     0.75000   0.21027   0.90489   0.00000  Uiso   1.00
O836   O     0.75000   0.28973   0.90489   0.00000  Uiso   1.00
O837   O     0.75000   0.21027   0.76178   0.00000  Uiso   1.00
O838   O     0.66569   0.14364   0.76431   0.00000  Uiso   1.00
Zn839  Zn    0.75000   0.30307   0.83333   0.00000  Uiso   1.00
Zn840  Zn    0.75000   0.19693   0.83333   0.00000  Uiso   1.00
C841   C     0.16389   0.74968   0.83475   0.00000  Uiso   1.00
C842   C     0.21020   0.94732   0.82646   0.00000  Uiso   1.00
C843   C     0.24989   0.75000   0.73960   0.00000  Uiso   1.00
C844   C     0.25015   0.75000   0.92707   0.00000  Uiso   1.00
C845   C     0.25033   0.52673   0.83356   0.00000  Uiso   1.00
C846   C     0.25023   0.97350   0.83387   0.00000  Uiso   1.00
C847   C     0.24998   0.74998   0.68845   0.00000  Uiso   1.00
C848   C     0.25008   0.74998   0.97822   0.00000  Uiso   1.00
C849   C     0.04751   0.78835   0.85625   0.00000  Uiso   1.00
C850   C     0.45278   0.72470   0.80482   0.00000  Uiso   1.00
C851   C     0.45204   0.76980   0.88164   0.00000  Uiso   1.00
C852   C     0.33583   0.75016   0.83377   0.00000  Uiso   1.00
C853   C     0.04647   0.70523   0.83813   0.00000  Uiso   1.00
C854   C     0.09357   0.78923   0.85293   0.00000  Uiso   1.00
C855   C     0.40662   0.72616   0.80093   0.00000  Uiso   1.00
C856   C     0.40584   0.77148   0.87747   0.00000  Uiso   1.00
C857   C     0.09239   0.70623   0.83433   0.00000  Uiso   1.00
C858   C     0.11595   0.74854   0.84018   0.00000  Uiso   1.00
C859   C     0.38351   0.75011   0.83687   0.00000  Uiso   1.00
C860   C     0.02390   0.74652   0.84773   0.00000  Uiso   1.00
C861   C     0.47553   0.74657   0.84517   0.00000  Uiso   1.00
C862   C     0.20175   0.62599   0.75663   0.00000  Uiso   1.00
C863   C     0.22645   0.60156   0.79701   0.00000  Uiso   1.00
C864   C     0.32692   0.87632   0.87186   0.00000  Uiso   1.00
C865   C     0.30249   0.62770   0.90660   0.00000  Uiso   1.00
C866   C     0.17448   0.87578   0.79066   0.00000  Uiso   1.00
C867   C     0.23128   0.51308   0.72254   0.00000  Uiso   1.00
C868   C     0.34622   0.98004   0.79705   0.00000  Uiso   1.00
C869   C     0.27198   0.51647   0.94535   0.00000  Uiso   1.00
C870   C     0.15350   0.97724   0.86958   0.00000  Uiso   1.00
C871   C     0.28808   0.89889   0.84716   0.00000  Uiso   1.00
C872   C     0.27452   0.60240   0.86909   0.00000  Uiso   1.00
C873   C     0.21216   0.89832   0.81898   0.00000  Uiso   1.00
C874   C     0.22690   0.55212   0.79581   0.00000  Uiso   1.00
C875   C     0.29018   0.94800   0.84073   0.00000  Uiso   1.00
C876   C     0.27425   0.55297   0.87065   0.00000  Uiso   1.00
H877   H     0.03026   0.82047   0.86390   0.00000  Uiso   1.00
H878   H     0.39414   0.86960   0.87650   0.00000  Uiso   1.00
H879   H     0.36189   0.65868   0.92410   0.00000  Uiso   1.00
H880   H     0.10770   0.87057   0.77732   0.00000  Uiso   1.00
H881   H     0.24861   0.98096   0.73530   0.00000  Uiso   1.00
H882   H     0.25637   0.54015   0.71245   0.00000  Uiso   1.00
H883   H     0.21087   0.50375   0.68862   0.00000  Uiso   1.00
H884   H     0.32475   0.50615   0.77738   0.00000  Uiso   1.00
H885   H     0.34795   0.94757   0.77444   0.00000  Uiso   1.00
H886   H     0.38056   0.99506   0.80057   0.00000  Uiso   1.00
H887   H     0.25042   0.98643   0.93331   0.00000  Uiso   1.00
H888   H     0.47074   0.70721   0.77606   0.00000  Uiso   1.00
H889   H     0.25095   0.54559   0.95826   0.00000  Uiso   1.00
H890   H     0.29351   0.50451   0.97725   0.00000  Uiso   1.00
H891   H     0.15042   0.94396   0.89068   0.00000  Uiso   1.00
H892   H     0.11959   0.99248   0.86568   0.00000  Uiso   1.00
H893   H     0.17517   0.50257   0.89091   0.00000  Uiso   1.00
H894   H     0.46940   0.78623   0.91325   0.00000  Uiso   1.00
H895   H     0.02846   0.67250   0.83261   0.00000  Uiso   1.00
H896   H     0.11153   0.82160   0.86020   0.00000  Uiso   1.00
H897   H     0.38896   0.70917   0.76983   0.00000  Uiso   1.00
H898   H     0.38750   0.78848   0.90622   0.00000  Uiso   1.00
H899   H     0.10916   0.67401   0.82629   0.00000  Uiso   1.00
H900   H     0.19869   0.64403   0.68401   0.00000  Uiso   1.00
N901   N     0.25000   0.62624   0.83333   0.00000  Uiso   1.00
N902   N     0.25000   0.87377   0.83333   0.00000  Uiso   1.00
O903   O     0.18453   0.78974   0.83334   0.00000  Uiso   1.00
O904   O     0.21879   0.62678   0.70889   0.00000  Uiso   1.00
O905   O     0.32173   0.85271   0.90911   0.00000  Uiso   1.00
O906   O     0.36987   0.88425   0.85449   0.00000  Uiso   1.00
O907   O     0.28899   0.63308   0.94859   0.00000  Uiso   1.00
O908   O     0.34565   0.64228   0.89515   0.00000  Uiso   1.00
O909   O     0.18203   0.84940   0.75637   0.00000  Uiso   1.00
O910   O     0.13029   0.88722   0.80036   0.00000  Uiso   1.00
O911   O     0.20214   0.52935   0.75845   0.00000  Uiso   1.00
O912   O     0.33118   0.97080   0.84523   0.00000  Uiso   1.00
O913   O     0.29997   0.53099   0.90731   0.00000  Uiso   1.00
O914   O     0.31547   0.71026   0.83333   0.00000  Uiso   1.00
O915   O     0.16948   0.96966   0.82157   0.00000  Uiso   1.00
O916   O     0.31547   0.78974   0.83333   0.00000  Uiso   1.00
O917   O     0.18453   0.71026   0.83334   0.00000  Uiso   1.00
O918   O     0.25000   0.78973   0.76178   0.00000  Uiso   1.00
O919   O     0.25000   0.71027   0.90489   0.00000  Uiso   1.00
O920   O     0.25000   0.78973   0.90489   0.00000  Uiso   1.00
O921   O     0.25000   0.71027   0.76178   0.00000  Uiso   1.00
O922   O     0.16569   0.64364   0.76431   0.00000  Uiso   1.00
Zn923  Zn    0.25000   0.80307   0.83333   0.00000  Uiso   1.00
Zn924  Zn    0.25000   0.69693   0.83333   0.00000  Uiso   1.00
C925   C     0.66389   0.74968   0.83475   0.00000  Uiso   1.00
C926   C     0.71020   0.94732   0.82646   0.00000  Uiso   1.00
C927   C     0.74989   0.75000   0.73960   0.00000  Uiso   1.00
C928   C     0.75015   0.75000   0.92707   0.00000  Uiso   1.00
C929   C     0.75033   0.52673   0.83356   0.00000  Uiso   1.00
C930   C     0.75023   0.97350   0.83387   0.00000  Uiso   1.00
C931   C     0.74998   0.74998   0.68845   0.00000  Uiso   1.00
C932   C     0.75008   0.74998   0.97822   0.00000  Uiso   1.00
C933   C     0.54751   0.78835   0.85625   0.00000  Uiso   1.00
C934   C     0.95278   0.72470   0.80482   0.00000  Uiso   1.00
C935   C     0.95204   0.76980   0.88164   0.00000  Uiso   1.00
C936   C     0.83583   0.75016   0.83377   0.00000  Uiso   1.00
C937   C     0.54647   0.70523   0.83813   0.00000  Uiso   1.00
C938   C     0.59357   0.78923   0.85293   0.00000  Uiso   1.00
C939   C     0.90662   0.72616   0.80093   0.00000  Uiso   1.00
C940   C     0.90584   0.77148   0.87747   0.00000  Uiso   1.00
C941   C     0.59239   0.70623   0.83433   0.00000  Uiso   1.00
C942   C     0.61595   0.74854   0.84018   0.00000  Uiso   1.00
C943   C     0.88351   0.75011   0.83687   0.00000  Uiso   1.00
C944   C     0.52390   0.74652   0.84773   0.00000  Uiso   1.00
C945   C     0.97553   0.74657   0.84517   0.00000  Uiso   1.00
C946   C     0.70175   0.62599   0.75663   0.00000  Uiso   1.00
C947   C     0.72645   0.60156   0.79701   0.00000  Uiso   1.00
C948   C     0.82692   0.87632   0.87186   0.00000  Uiso   1.00
C949   C     0.80249   0.62770   0.90660   0.00000  Uiso   1.00
C950   C     0.67448   0.87578   0.79066   0.00000  Uiso   1.00
C951   C     0.73128   0.51308   0.72254   0.00000  Uiso   1.00
C952   C     0.84622   0.98004   0.79705   0.00000  Uiso   1.00
C953   C     0.77198   0.51647   0.94535   0.00000  Uiso   1.00
C954   C     0.65350   0.97724   0.86958   0.00000  Uiso   1.00
C955   C     0.78808   0.89889   0.84716   0.00000  Uiso   1.00
C956   C     0.77452   0.60240   0.86909   0.00000  Uiso   1.00
C957   C     0.71216   0.89832   0.81898   0.00000  Uiso   1.00
C958   C     0.72690   0.55212   0.79581   0.00000  Uiso   1.00
C959   C     0.79018   0.94800   0.84073   0.00000  Uiso   1.00
C960   C     0.77425   0.55297   0.87065   0.00000  Uiso   1.00
H961   H     0.53026   0.82047   0.86390   0.00000  Uiso   1.00
H962   H     0.89414   0.86960   0.87650   0.00000  Uiso   1.00
H963   H     0.86189   0.65868   0.92410   0.00000  Uiso   1.00
H964   H     0.60770   0.87057   0.77732   0.00000  Uiso   1.00
H965   H     0.74861   0.98096   0.73530   0.00000  Uiso   1.00
H966   H     0.75637   0.54015   0.71245   0.00000  Uiso   1.00
H967   H     0.71087   0.50375   0.68862   0.00000  Uiso   1.00
H968   H     0.82475   0.50615   0.77738   0.00000  Uiso   1.00
H969   H     0.84795   0.94757   0.77444   0.00000  Uiso   1.00
H970   H     0.88056   0.99506   0.80057   0.00000  Uiso   1.00
H971   H     0.75042   0.98643   0.93331   0.00000  Uiso   1.00
H972   H     0.97074   0.70721   0.77606   0.00000  Uiso   1.00
H973   H     0.75095   0.54559   0.95826   0.00000  Uiso   1.00
H974   H     0.79351   0.50451   0.97725   0.00000  Uiso   1.00
H975   H     0.65042   0.94396   0.89068   0.00000  Uiso   1.00
H976   H     0.61959   0.99248   0.86568   0.00000  Uiso   1.00
H977   H     0.67517   0.50257   0.89091   0.00000  Uiso   1.00
H978   H     0.96940   0.78623   0.91325   0.00000  Uiso   1.00
H979   H     0.52846   0.67250   0.83261   0.00000  Uiso   1.00
H980   H     0.61153   0.82160   0.86020   0.00000  Uiso   1.00
H981   H     0.88896   0.70917   0.76983   0.00000  Uiso   1.00
H982   H     0.88750   0.78848   0.90622   0.00000  Uiso   1.00
H983   H     0.60916   0.67401   0.82629   0.00000  Uiso   1.00
H984   H     0.69869   0.64403   0.68401   0.00000  Uiso   1.00
N985   N     0.75000   0.62624   0.83333   0.00000  Uiso   1.00
N986   N     0.75000   0.87377   0.83333   0.00000  Uiso   1.00
O987   O     0.68453   0.78974   0.83334   0.00000  Uiso   1.00
O988   O     0.71879   0.62678   0.70889   0.00000  Uiso   1.00
O989   O     0.82173   0.85271   0.90911   0.00000  Uiso   1.00
O990   O     0.86987   0.88425   0.85449   0.00000  Uiso   1.00
O991   O     0.78899   0.63308   0.94859   0.00000  Uiso   1.00
O992   O     0.84565   0.64228   0.89515   0.00000  Uiso   1.00
O993   O     0.68203   0.84940   0.75637   0.00000  Uiso   1.00
O994   O     0.63029   0.88722   0.80036   0.00000  Uiso   1.00
O995   O     0.70214   0.52935   0.75845   0.00000  Uiso   1.00
O996   O     0.83118   0.97080   0.84523   0.00000  Uiso   1.00
O997   O     0.79997   0.53099   0.90731   0.00000  Uiso   1.00
O998   O     0.81547   0.71026   0.83333   0.00000  Uiso   1.00
O999   O     0.66948   0.96966   0.82157   0.00000  Uiso   1.00
O1000  O     0.81547   0.78974   0.83333   0.00000  Uiso   1.00
O1001  O     0.68453   0.71026   0.83334   0.00000  Uiso   1.00
O1002  O     0.75000   0.78973   0.76178   0.00000  Uiso   1.00
O1003  O     0.75000   0.71027   0.90489   0.00000  Uiso   1.00
O1004  O     0.75000   0.78973   0.90489   0.00000  Uiso   1.00
O1005  O     0.75000   0.71027   0.76178   0.00000  Uiso   1.00
O1006  O     0.66569   0.64364   0.76431   0.00000  Uiso   1.00
Zn1007 Zn    0.75000   0.80307   0.83333   0.00000  Uiso   1.00
Zn1008 Zn    0.75000   0.69693   0.83333   0.00000  Uiso   1.00
loop_
_geom_bond_atom_site_label_1
_geom_bond_atom_site_label_2
_geom_bond_distance
_geom_bond_site_symmetry_2
_ccdc_geom_bond_type
C1     O77     1.294   .     A
C1     C18     1.446   .     S
C1     O63     1.298   .     A
C2     C6      1.413   .     A
C2     C33     1.421   .     A
C2     O75     1.383   .     S
C3     C7      1.374   .     S
C3     O81     1.285   .     A
C3     O78     1.285   .     A
C4     C8      1.374   .     S
C4     O80     1.285   .     A
C4     O79     1.285   .     A
C5     C36     1.416   .     A
C5     C34     1.416   .     A
C5     C174    1.525   1_545 S
C6     C35     1.413   .     A
C6     C173    1.525   .     S
C7     C680    1.170   1_554 S
C8     C343    1.170   .     S
C9     C14     1.382   .     A
C9     C20     1.399   .     A
C9     H37     1.083   .     S
C10    C15     1.380   .     A
C10    C21     1.402   .     A
C10    H48     1.083   .     S
C11    C21     1.399   .     A
C11    C16     1.382   .     A
C11    H54     1.083   .     S
C12    O74     1.289   .     A
C12    O76     1.293   .     A
C12    C19     1.424   .     S
C13    C20     1.397   .     A
C13    C17     1.380   .     A
C13    H55     1.084   .     S
C14    H56     1.081   .     S
C14    C18     1.400   .     A
C15    C19     1.393   .     A
C15    H57     1.084   .     S
C16    H58     1.083   .     S
C16    C19     1.395   .     A
C17    C18     1.401   .     A
C17    H59     1.081   .     S
C20    C105    1.444   1_455 S
C21    C104    1.444   .     S
C22    O82     1.220   .     D
C22    O64     1.398   .     S
C22    C23     1.471   .     S
C23    C34     1.417   .     A
C23    N61     1.373   .     A
C24    O66     1.398   .     S
C24    O65     1.222   .     D
C24    C31     1.471   .     S
C25    O67     1.222   .     D
C25    C32     1.471   .     S
C25    O68     1.396   .     S
C26    C33     1.478   .     S
C26    O70     1.398   .     S
C26    O69     1.221   .     D
C27    O71     1.407   .     S
C27    H42     1.114   .     S
C27    H43     1.108   .     S
C27    H209    1.109   1_545 S
C28    H46     1.109   .     S
C28    H45     1.114   .     S
C28    O72     1.410   .     S
C28    H212    1.112   .     S
C29    H49     1.113   .     S
C29    O73     1.405   .     S
C29    H50     1.109   .     S
C29    H215    1.110   1_545 S
C30    H51     1.114   .     S
C30    H52     1.109   .     S
C30    O75     1.410   .     S
C30    H221    1.112   .     S
C31    N62     1.379   .     A
C31    C35     1.419   .     A
C32    N61     1.373   .     A
C32    C36     1.417   .     A
C33    N62     1.381   .     A
C34    O71     1.383   .     S
C35    O72     1.383   .     S
C36    O73     1.382   .     S
H38    O66     1.013   .     S
H39    O68     1.014   .     S
H40    O70     1.014   .     S
H41    C195    1.109   .     S
H44    C196    1.112   1_545 S
H47    C197    1.110   .     S
H53    C198    1.112   1_545 S
H60    O64     1.014   .     S
N61    Zn84    2.026   .     S
N62    Zn83    2.026   .     S
O63    Zn83    1.989   .     S
O74    Zn84    1.989   .     S
O76    Zn83    1.997   .     S
O77    Zn84    1.997   .     S
O78    Zn83    1.960   .     S
O79    Zn84    1.960   .     S
O80    Zn83    1.960   .     S
O81    Zn84    1.960   .     S
C85    O161    1.294   .     A
C85    C102    1.446   .     S
C85    O147    1.298   .     A
C86    C90     1.413   .     A
C86    C117    1.421   .     A
C86    O159    1.383   .     S
C87    C91     1.374   .     S
C87    O165    1.285   .     A
C87    O162    1.285   .     A
C88    C92     1.374   .     S
C88    O164    1.285   .     A
C88    O163    1.285   .     A
C89    C120    1.416   .     A
C89    C118    1.416   .     A
C89    C258    1.525   1_545 S
C90    C119    1.413   .     A
C90    C257    1.525   .     S
C91    C764    1.170   1_554 S
C92    C427    1.170   .     S
C93    C98     1.382   .     A
C93    C104    1.399   .     A
C93    H121    1.083   .     S
C94    C99     1.380   .     A
C94    C105    1.402   .     A
C94    H132    1.083   .     S
C95    C105    1.399   .     A
C95    C100    1.382   .     A
C95    H138    1.083   .     S
C96    O158    1.289   .     A
C96    O160    1.293   .     A
C96    C103    1.424   .     S
C97    C104    1.397   .     A
C97    C101    1.380   .     A
C97    H139    1.084   .     S
C98    H140    1.081   .     S
C98    C102    1.400   .     A
C99    C103    1.393   .     A
C99    H141    1.084   .     S
C100   H142    1.083   .     S
C100   C103    1.395   .     A
C101   C102    1.401   .     A
C101   H143    1.081   .     S
C105   C20     1.444   1_655 S
C106   O166    1.220   .     D
C106   O148    1.398   .     S
C106   C107    1.471   .     S
C107   C118    1.417   .     A
C107   N145    1.373   .     A
C108   O150    1.398   .     S
C108   O149    1.222   .     D
C108   C115    1.471   .     S
C109   O151    1.222   .     D
C109   C116    1.471   .     S
C109   O152    1.396   .     S
C110   C117    1.478   .     S
C110   O154    1.398   .     S
C110   O153    1.221   .     D
C111   O155    1.407   .     S
C111   H126    1.114   .     S
C111   H127    1.108   .     S
C111   H293    1.109   1_545 S
C112   H130    1.109   .     S
C112   H129    1.114   .     S
C112   O156    1.410   .     S
C112   H296    1.112   .     S
C113   H133    1.113   .     S
C113   O157    1.405   .     S
C113   H134    1.109   .     S
C113   H299    1.110   1_545 S
C114   H135    1.114   .     S
C114   H136    1.109   .     S
C114   O159    1.410   .     S
C114   H305    1.112   .     S
C115   N146    1.379   .     A
C115   C119    1.419   .     A
C116   N145    1.373   .     A
C116   C120    1.417   .     A
C117   N146    1.381   .     A
C118   O155    1.383   .     S
C119   O156    1.383   .     S
C120   O157    1.382   .     S
H122   O150    1.013   .     S
H123   O152    1.014   .     S
H124   O154    1.014   .     S
H125   C279    1.109   .     S
H128   C280    1.112   1_545 S
H131   C281    1.110   .     S
H137   C282    1.112   1_545 S
H144   O148    1.014   .     S
N145   Zn168   2.026   .     S
N146   Zn167   2.026   .     S
O147   Zn167   1.989   .     S
O158   Zn168   1.989   .     S
O160   Zn167   1.997   .     S
O161   Zn168   1.997   .     S
O162   Zn167   1.960   .     S
O163   Zn168   1.960   .     S
O164   Zn167   1.960   .     S
O165   Zn168   1.960   .     S
C169   O245    1.294   .     A
C169   C186    1.446   .     S
C169   O231    1.298   .     A
C170   C174    1.413   .     A
C170   C201    1.421   .     A
C170   O243    1.383   .     S
C171   C175    1.374   .     S
C171   O249    1.285   .     A
C171   O246    1.285   .     A
C172   C176    1.374   .     S
C172   O248    1.285   .     A
C172   O247    1.285   .     A
C173   C204    1.416   .     A
C173   C202    1.416   .     A
C174   C203    1.413   .     A
C174   C5      1.525   1_565 S
C175   C848    1.170   1_554 S
C176   C511    1.170   .     S
C177   C182    1.382   .     A
C177   C188    1.399   .     A
C177   H205    1.083   .     S
C178   C183    1.380   .     A
C178   C189    1.402   .     A
C178   H216    1.083   .     S
C179   C189    1.399   .     A
C179   C184    1.382   .     A
C179   H222    1.083   .     S
C180   O242    1.289   .     A
C180   O244    1.293   .     A
C180   C187    1.424   .     S
C181   C188    1.397   .     A
C181   C185    1.380   .     A
C181   H223    1.084   .     S
C182   H224    1.081   .     S
C182   C186    1.400   .     A
C183   C187    1.393   .     A
C183   H225    1.084   .     S
C184   H226    1.083   .     S
C184   C187    1.395   .     A
C185   C186    1.401   .     A
C185   H227    1.081   .     S
C188   C273    1.444   1_455 S
C189   C272    1.444   .     S
C190   O250    1.220   .     D
C190   O232    1.398   .     S
C190   C191    1.471   .     S
C191   C202    1.417   .     A
C191   N229    1.373   .     A
C192   O234    1.398   .     S
C192   O233    1.222   .     D
C192   C199    1.471   .     S
C193   O235    1.222   .     D
C193   C200    1.471   .     S
C193   O236    1.396   .     S
C194   C201    1.478   .     S
C194   O238    1.398   .     S
C194   O237    1.221   .     D
C195   O239    1.407   .     S
C195   H210    1.114   .     S
C195   H211    1.108   .     S
C196   H214    1.109   .     S
C196   H213    1.114   .     S
C196   O240    1.410   .     S
C196   H44     1.112   1_565 S
C197   H217    1.113   .     S
C197   O241    1.405   .     S
C197   H218    1.109   .     S
C198   H219    1.114   .     S
C198   H220    1.109   .     S
C198   O243    1.410   .     S
C198   H53     1.112   1_565 S
C199   N230    1.379   .     A
C199   C203    1.419   .     A
C200   N229    1.373   .     A
C200   C204    1.417   .     A
C201   N230    1.381   .     A
C202   O239    1.383   .     S
C203   O240    1.383   .     S
C204   O241    1.382   .     S
H206   O234    1.013   .     S
H207   O236    1.014   .     S
H208   O238    1.014   .     S
H209   C27     1.109   1_565 S
H215   C29     1.110   1_565 S
H228   O232    1.014   .     S
N229   Zn252   2.026   .     S
N230   Zn251   2.026   .     S
O231   Zn251   1.989   .     S
O242   Zn252   1.989   .     S
O244   Zn251   1.997   .     S
O245   Zn252   1.997   .     S
O246   Zn251   1.960   .     S
O247   Zn252   1.960   .     S
O248   Zn251   1.960   .     S
O249   Zn252   1.960   .     S
C253   O329    1.294   .     A
C253   C270    1.446   .     S
C253   O315    1.298   .     A
C254   C258    1.413   .     A
C254   C285    1.421   .     A
C254   O327    1.383   .     S
C255   C259    1.374   .     S
C255   O333    1.285   .     A
C255   O330    1.285   .     A
C256   C260    1.374   .     S
C256   O332    1.285   .     A
C256   O331    1.285   .     A
C257   C288    1.416   .     A
C257   C286    1.416   .     A
C258   C287    1.413   .     A
C258   C89     1.525   1_565 S
C259   C932    1.170   1_554 S
C260   C595    1.170   .     S
C261   C266    1.382   .     A
C261   C272    1.399   .     A
C261   H289    1.083   .     S
C262   C267    1.380   .     A
C262   C273    1.402   .     A
C262   H300    1.083   .     S
C263   C273    1.399   .     A
C263   C268    1.382   .     A
C263   H306    1.083   .     S
C264   O326    1.289   .     A
C264   O328    1.293   .     A
C264   C271    1.424   .     S
C265   C272    1.397   .     A
C265   C269    1.380   .     A
C265   H307    1.084   .     S
C266   H308    1.081   .     S
C266   C270    1.400   .     A
C267   C271    1.393   .     A
C267   H309    1.084   .     S
C268   H310    1.083   .     S
C268   C271    1.395   .     A
C269   C270    1.401   .     A
C269   H311    1.081   .     S
C273   C188    1.444   1_655 S
C274   O334    1.220   .     D
C274   O316    1.398   .     S
C274   C275    1.471   .     S
C275   C286    1.417   .     A
C275   N313    1.373   .     A
C276   O318    1.398   .     S
C276   O317    1.222   .     D
C276   C283    1.471   .     S
C277   O319    1.222   .     D
C277   C284    1.471   .     S
C277   O320    1.396   .     S
C278   C285    1.478   .     S
C278   O322    1.398   .     S
C278   O321    1.221   .     D
C279   O323    1.407   .     S
C279   H294    1.114   .     S
C279   H295    1.108   .     S
C280   H298    1.109   .     S
C280   H297    1.114   .     S
C280   O324    1.410   .     S
C280   H128    1.112   1_565 S
C281   H301    1.113   .     S
C281   O325    1.405   .     S
C281   H302    1.109   .     S
C282   H303    1.114   .     S
C282   H304    1.109   .     S
C282   O327    1.410   .     S
C282   H137    1.112   1_565 S
C283   N314    1.379   .     A
C283   C287    1.419   .     A
C284   N313    1.373   .     A
C284   C288    1.417   .     A
C285   N314    1.381   .     A
C286   O323    1.383   .     S
C287   O324    1.383   .     S
C288   O325    1.382   .     S
H290   O318    1.013   .     S
H291   O320    1.014   .     S
H292   O322    1.014   .     S
H293   C111    1.109   1_565 S
H299   C113    1.110   1_565 S
H312   O316    1.014   .     S
N313   Zn336   2.026   .     S
N314   Zn335   2.026   .     S
O315   Zn335   1.989   .     S
O326   Zn336   1.989   .     S
O328   Zn335   1.997   .     S
O329   Zn336   1.997   .     S
O330   Zn335   1.960   .     S
O331   Zn336   1.960   .     S
O332   Zn335   1.960   .     S
O333   Zn336   1.960   .     S
C337   O413    1.294   .     A
C337   C354    1.446   .     S
C337   O399    1.298   .     A
C338   C342    1.413   .     A
C338   C369    1.421   .     A
C338   O411    1.383   .     S
C339   C343    1.374   .     S
C339   O417    1.285   .     A
C339   O414    1.285   .     A
C340   C344    1.374   .     S
C340   O416    1.285   .     A
C340   O415    1.285   .     A
C341   C372    1.416   .     A
C341   C370    1.416   .     A
C341   C510    1.525   1_545 S
C342   C371    1.413   .     A
C342   C509    1.525   .     S
C344   C679    1.170   .     S
C345   C350    1.382   .     A
C345   C356    1.399   .     A
C345   H373    1.083   .     S
C346   C351    1.380   .     A
C346   C357    1.402   .     A
C346   H384    1.083   .     S
C347   C357    1.399   .     A
C347   C352    1.382   .     A
C347   H390    1.083   .     S
C348   O410    1.289   .     A
C348   O412    1.293   .     A
C348   C355    1.424   .     S
C349   C356    1.397   .     A
C349   C353    1.380   .     A
C349   H391    1.084   .     S
C350   H392    1.081   .     S
C350   C354    1.400   .     A
C351   C355    1.393   .     A
C351   H393    1.084   .     S
C352   H394    1.083   .     S
C352   C355    1.395   .     A
C353   C354    1.401   .     A
C353   H395    1.081   .     S
C356   C441    1.444   1_455 S
C357   C440    1.444   .     S
C358   O418    1.220   .     D
C358   O400    1.398   .     S
C358   C359    1.471   .     S
C359   C370    1.417   .     A
C359   N397    1.373   .     A
C360   O402    1.398   .     S
C360   O401    1.222   .     D
C360   C367    1.471   .     S
C361   O403    1.222   .     D
C361   C368    1.471   .     S
C361   O404    1.396   .     S
C362   C369    1.478   .     S
C362   O406    1.398   .     S
C362   O405    1.221   .     D
C363   O407    1.407   .     S
C363   H378    1.114   .     S
C363   H379    1.108   .     S
C363   H545    1.109   1_545 S
C364   H382    1.109   .     S
C364   H381    1.114   .     S
C364   O408    1.410   .     S
C364   H548    1.112   .     S
C365   H385    1.113   .     S
C365   O409    1.405   .     S
C365   H386    1.109   .     S
C365   H551    1.110   1_545 S
C366   H387    1.114   .     S
C366   H388    1.109   .     S
C366   O411    1.410   .     S
C366   H557    1.112   .     S
C367   N398    1.379   .     A
C367   C371    1.419   .     A
C368   N397    1.373   .     A
C368   C372    1.417   .     A
C369   N398    1.381   .     A
C370   O407    1.383   .     S
C371   O408    1.383   .     S
C372   O409    1.382   .     S
H374   O402    1.013   .     S
H375   O404    1.014   .     S
H376   O406    1.014   .     S
H377   C531    1.109   .     S
H380   C532    1.112   1_545 S
H383   C533    1.110   .     S
H389   C534    1.112   1_545 S
H396   O400    1.014   .     S
N397   Zn420   2.026   .     S
N398   Zn419   2.026   .     S
O399   Zn419   1.989   .     S
O410   Zn420   1.989   .     S
O412   Zn419   1.997   .     S
O413   Zn420   1.997   .     S
O414   Zn419   1.960   .     S
O415   Zn420   1.960   .     S
O416   Zn419   1.960   .     S
O417   Zn420   1.960   .     S
C421   O497    1.294   .     A
C421   C438    1.446   .     S
C421   O483    1.298   .     A
C422   C426    1.413   .     A
C422   C453    1.421   .     A
C422   O495    1.383   .     S
C423   C427    1.374   .     S
C423   O501    1.285   .     A
C423   O498    1.285   .     A
C424   C428    1.374   .     S
C424   O500    1.285   .     A
C424   O499    1.285   .     A
C425   C456    1.416   .     A
C425   C454    1.416   .     A
C425   C594    1.525   1_545 S
C426   C455    1.413   .     A
C426   C593    1.525   .     S
C428   C763    1.170   .     S
C429   C434    1.382   .     A
C429   C440    1.399   .     A
C429   H457    1.083   .     S
C430   C435    1.380   .     A
C430   C441    1.402   .     A
C430   H468    1.083   .     S
C431   C441    1.399   .     A
C431   C436    1.382   .     A
C431   H474    1.083   .     S
C432   O494    1.289   .     A
C432   O496    1.293   .     A
C432   C439    1.424   .     S
C433   C440    1.397   .     A
C433   C437    1.380   .     A
C433   H475    1.084   .     S
C434   H476    1.081   .     S
C434   C438    1.400   .     A
C435   C439    1.393   .     A
C435   H477    1.084   .     S
C436   H478    1.083   .     S
C436   C439    1.395   .     A
C437   C438    1.401   .     A
C437   H479    1.081   .     S
C441   C356    1.444   1_655 S
C442   O502    1.220   .     D
C442   O484    1.398   .     S
C442   C443    1.471   .     S
C443   C454    1.417   .     A
C443   N481    1.373   .     A
C444   O486    1.398   .     S
C444   O485    1.222   .     D
C444   C451    1.471   .     S
C445   O487    1.222   .     D
C445   C452    1.471   .     S
C445   O488    1.396   .     S
C446   C453    1.478   .     S
C446   O490    1.398   .     S
C446   O489    1.221   .     D
C447   O491    1.407   .     S
C447   H462    1.114   .     S
C447   H463    1.108   .     S
C447   H629    1.109   1_545 S
C448   H466    1.109   .     S
C448   H465    1.114   .     S
C448   O492    1.410   .     S
C448   H632    1.112   .     S
C449   H469    1.113   .     S
C449   O493    1.405   .     S
C449   H470    1.109   .     S
C449   H635    1.110   1_545 S
C450   H471    1.114   .     S
C450   H472    1.109   .     S
C450   O495    1.410   .     S
C450   H641    1.112   .     S
C451   N482    1.379   .     A
C451   C455    1.419   .     A
C452   N481    1.373   .     A
C452   C456    1.417   .     A
C453   N482    1.381   .     A
C454   O491    1.383   .     S
C455   O492    1.383   .     S
C456   O493    1.382   .     S
H458   O486    1.013   .     S
H459   O488    1.014   .     S
H460   O490    1.014   .     S
H461   C615    1.109   .     S
H464   C616    1.112   1_545 S
H467   C617    1.110   .     S
H473   C618    1.112   1_545 S
H480   O484    1.014   .     S
N481   Zn504   2.026   .     S
N482   Zn503   2.026   .     S
O483   Zn503   1.989   .     S
O494   Zn504   1.989   .     S
O496   Zn503   1.997   .     S
O497   Zn504   1.997   .     S
O498   Zn503   1.960   .     S
O499   Zn504   1.960   .     S
O500   Zn503   1.960   .     S
O501   Zn504   1.960   .     S
C505   O581    1.294   .     A
C505   C522    1.446   .     S
C505   O567    1.298   .     A
C506   C510    1.413   .     A
C506   C537    1.421   .     A
C506   O579    1.383   .     S
C507   C511    1.374   .     S
C507   O585    1.285   .     A
C507   O582    1.285   .     A
C508   C512    1.374   .     S
C508   O584    1.285   .     A
C508   O583    1.285   .     A
C509   C540    1.416   .     A
C509   C538    1.416   .     A
C510   C539    1.413   .     A
C510   C341    1.525   1_565 S
C512   C847    1.170   .     S
C513   C518    1.382   .     A
C513   C524    1.399   .     A
C513   H541    1.083   .     S
C514   C519    1.380   .     A
C514   C525    1.402   .     A
C514   H552    1.083   .     S
C515   C525    1.399   .     A
C515   C520    1.382   .     A
C515   H558    1.083   .     S
C516   O578    1.289   .     A
C516   O580    1.293   .     A
C516   C523    1.424   .     S
C517   C524    1.397   .     A
C517   C521    1.380   .     A
C517   H559    1.084   .     S
C518   H560    1.081   .     S
C518   C522    1.400   .     A
C519   C523    1.393   .     A
C519   H561    1.084   .     S
C520   H562    1.083   .     S
C520   C523    1.395   .     A
C521   C522    1.401   .     A
C521   H563    1.081   .     S
C524   C609    1.444   1_455 S
C525   C608    1.444   .     S
C526   O586    1.220   .     D
C526   O568    1.398   .     S
C526   C527    1.471   .     S
C527   C538    1.417   .     A
C527   N565    1.373   .     A
C528   O570    1.398   .     S
C528   O569    1.222   .     D
C528   C535    1.471   .     S
C529   O571    1.222   .     D
C529   C536    1.471   .     S
C529   O572    1.396   .     S
C530   C537    1.478   .     S
C530   O574    1.398   .     S
C530   O573    1.221   .     D
C531   O575    1.407   .     S
C531   H546    1.114   .     S
C531   H547    1.108   .     S
C532   H550    1.109   .     S
C532   H549    1.114   .     S
C532   O576    1.410   .     S
C532   H380    1.112   1_565 S
C533   H553    1.113   .     S
C533   O577    1.405   .     S
C533   H554    1.109   .     S
C534   H555    1.114   .     S
C534   H556    1.109   .     S
C534   O579    1.410   .     S
C534   H389    1.112   1_565 S
C535   N566    1.379   .     A
C535   C539    1.419   .     A
C536   N565    1.373   .     A
C536   C540    1.417   .     A
C537   N566    1.381   .     A
C538   O575    1.383   .     S
C539   O576    1.383   .     S
C540   O577    1.382   .     S
H542   O570    1.013   .     S
H543   O572    1.014   .     S
H544   O574    1.014   .     S
H545   C363    1.109   1_565 S
H551   C365    1.110   1_565 S
H564   O568    1.014   .     S
N565   Zn588   2.026   .     S
N566   Zn587   2.026   .     S
O567   Zn587   1.989   .     S
O578   Zn588   1.989   .     S
O580   Zn587   1.997   .     S
O581   Zn588   1.997   .     S
O582   Zn587   1.960   .     S
O583   Zn588   1.960   .     S
O584   Zn587   1.960   .     S
O585   Zn588   1.960   .     S
C589   O665    1.294   .     A
C589   C606    1.446   .     S
C589   O651    1.298   .     A
C590   C594    1.413   .     A
C590   C621    1.421   .     A
C590   O663    1.383   .     S
C591   C595    1.374   .     S
C591   O669    1.285   .     A
C591   O666    1.285   .     A
C592   C596    1.374   .     S
C592   O668    1.285   .     A
C592   O667    1.285   .     A
C593   C624    1.416   .     A
C593   C622    1.416   .     A
C594   C623    1.413   .     A
C594   C425    1.525   1_565 S
C596   C931    1.170   .     S
C597   C602    1.382   .     A
C597   C608    1.399   .     A
C597   H625    1.083   .     S
C598   C603    1.380   .     A
C598   C609    1.402   .     A
C598   H636    1.083   .     S
C599   C609    1.399   .     A
C599   C604    1.382   .     A
C599   H642    1.083   .     S
C600   O662    1.289   .     A
C600   O664    1.293   .     A
C600   C607    1.424   .     S
C601   C608    1.397   .     A
C601   C605    1.380   .     A
C601   H643    1.084   .     S
C602   H644    1.081   .     S
C602   C606    1.400   .     A
C603   C607    1.393   .     A
C603   H645    1.084   .     S
C604   H646    1.083   .     S
C604   C607    1.395   .     A
C605   C606    1.401   .     A
C605   H647    1.081   .     S
C609   C524    1.444   1_655 S
C610   O670    1.220   .     D
C610   O652    1.398   .     S
C610   C611    1.471   .     S
C611   C622    1.417   .     A
C611   N649    1.373   .     A
C612   O654    1.398   .     S
C612   O653    1.222   .     D
C612   C619    1.471   .     S
C613   O655    1.222   .     D
C613   C620    1.471   .     S
C613   O656    1.396   .     S
C614   C621    1.478   .     S
C614   O658    1.398   .     S
C614   O657    1.221   .     D
C615   O659    1.407   .     S
C615   H630    1.114   .     S
C615   H631    1.108   .     S
C616   H634    1.109   .     S
C616   H633    1.114   .     S
C616   O660    1.410   .     S
C616   H464    1.112   1_565 S
C617   H637    1.113   .     S
C617   O661    1.405   .     S
C617   H638    1.109   .     S
C618   H639    1.114   .     S
C618   H640    1.109   .     S
C618   O663    1.410   .     S
C618   H473    1.112   1_565 S
C619   N650    1.379   .     A
C619   C623    1.419   .     A
C620   N649    1.373   .     A
C620   C624    1.417   .     A
C621   N650    1.381   .     A
C622   O659    1.383   .     S
C623   O660    1.383   .     S
C624   O661    1.382   .     S
H626   O654    1.013   .     S
H627   O656    1.014   .     S
H628   O658    1.014   .     S
H629   C447    1.109   1_565 S
H635   C449    1.110   1_565 S
H648   O652    1.014   .     S
N649   Zn672   2.026   .     S
N650   Zn671   2.026   .     S
O651   Zn671   1.989   .     S
O662   Zn672   1.989   .     S
O664   Zn671   1.997   .     S
O665   Zn672   1.997   .     S
O666   Zn671   1.960   .     S
O667   Zn672   1.960   .     S
O668   Zn671   1.960   .     S
O669   Zn672   1.960   .     S
C673   O749    1.294   .     A
C673   C690    1.446   .     S
C673   O735    1.298   .     A
C674   C678    1.413   .     A
C674   C705    1.421   .     A
C674   O747    1.383   .     S
C675   C679    1.374   .     S
C675   O753    1.285   .     A
C675   O750    1.285   .     A
C676   C680    1.374   .     S
C676   O752    1.285   .     A
C676   O751    1.285   .     A
C677   C708    1.416   .     A
C677   C706    1.416   .     A
C677   C846    1.525   1_545 S
C678   C707    1.413   .     A
C678   C845    1.525   .     S
C680   C7      1.170   1_556 S
C681   C686    1.382   .     A
C681   C692    1.399   .     A
C681   H709    1.083   .     S
C682   C687    1.380   .     A
C682   C693    1.402   .     A
C682   H720    1.083   .     S
C683   C693    1.399   .     A
C683   C688    1.382   .     A
C683   H726    1.083   .     S
C684   O746    1.289   .     A
C684   O748    1.293   .     A
C684   C691    1.424   .     S
C685   C692    1.397   .     A
C685   C689    1.380   .     A
C685   H727    1.084   .     S
C686   H728    1.081   .     S
C686   C690    1.400   .     A
C687   C691    1.393   .     A
C687   H729    1.084   .     S
C688   H730    1.083   .     S
C688   C691    1.395   .     A
C689   C690    1.401   .     A
C689   H731    1.081   .     S
C692   C777    1.444   1_455 S
C693   C776    1.444   .     S
C694   O754    1.220   .     D
C694   O736    1.398   .     S
C694   C695    1.471   .     S
C695   C706    1.417   .     A
C695   N733    1.373   .     A
C696   O738    1.398   .     S
C696   O737    1.222   .     D
C696   C703    1.471   .     S
C697   O739    1.222   .     D
C697   C704    1.471   .     S
C697   O740    1.396   .     S
C698   C705    1.478   .     S
C698   O742    1.398   .     S
C698   O741    1.221   .     D
C699   O743    1.407   .     S
C699   H714    1.114   .     S
C699   H715    1.108   .     S
C699   H881    1.109   1_545 S
C700   H718    1.109   .     S
C700   H717    1.114   .     S
C700   O744    1.410   .     S
C700   H884    1.112   .     S
C701   H721    1.113   .     S
C701   O745    1.405   .     S
C701   H722    1.109   .     S
C701   H887    1.110   1_545 S
C702   H723    1.114   .     S
C702   H724    1.109   .     S
C702   O747    1.410   .     S
C702   H893    1.112   .     S
C703   N734    1.379   .     A
C703   C707    1.419   .     A
C704   N733    1.373   .     A
C704   C708    1.417   .     A
C705   N734    1.381   .     A
C706   O743    1.383   .     S
C707   O744    1.383   .     S
C708   O745    1.382   .     S
H710   O738    1.013   .     S
H711   O740    1.014   .     S
H712   O742    1.014   .     S
H713   C867    1.109   .     S
H716   C868    1.112   1_545 S
H719   C869    1.110   .     S
H725   C870    1.112   1_545 S
H732   O736    1.014   .     S
N733   Zn756   2.026   .     S
N734   Zn755   2.026   .     S
O735   Zn755   1.989   .     S
O746   Zn756   1.989   .     S
O748   Zn755   1.997   .     S
O749   Zn756   1.997   .     S
O750   Zn755   1.960   .     S
O751   Zn756   1.960   .     S
O752   Zn755   1.960   .     S
O753   Zn756   1.960   .     S
C757   O833    1.294   .     A
C757   C774    1.446   .     S
C757   O819    1.298   .     A
C758   C762    1.413   .     A
C758   C789    1.421   .     A
C758   O831    1.383   .     S
C759   C763    1.374   .     S
C759   O837    1.285   .     A
C759   O834    1.285   .     A
C760   C764    1.374   .     S
C760   O836    1.285   .     A
C760   O835    1.285   .     A
C761   C792    1.416   .     A
C761   C790    1.416   .     A
C761   C930    1.525   1_545 S
C762   C791    1.413   .     A
C762   C929    1.525   .     S
C764   C91     1.170   1_556 S
C765   C770    1.382   .     A
C765   C776    1.399   .     A
C765   H793    1.083   .     S
C766   C771    1.380   .     A
C766   C777    1.402   .     A
C766   H804    1.083   .     S
C767   C777    1.399   .     A
C767   C772    1.382   .     A
C767   H810    1.083   .     S
C768   O830    1.289   .     A
C768   O832    1.293   .     A
C768   C775    1.424   .     S
C769   C776    1.397   .     A
C769   C773    1.380   .     A
C769   H811    1.084   .     S
C770   H812    1.081   .     S
C770   C774    1.400   .     A
C771   C775    1.393   .     A
C771   H813    1.084   .     S
C772   H814    1.083   .     S
C772   C775    1.395   .     A
C773   C774    1.401   .     A
C773   H815    1.081   .     S
C777   C692    1.444   1_655 S
C778   O838    1.220   .     D
C778   O820    1.398   .     S
C778   C779    1.471   .     S
C779   C790    1.417   .     A
C779   N817    1.373   .     A
C780   O822    1.398   .     S
C780   O821    1.222   .     D
C780   C787    1.471   .     S
C781   O823    1.222   .     D
C781   C788    1.471   .     S
C781   O824    1.396   .     S
C782   C789    1.478   .     S
C782   O826    1.398   .     S
C782   O825    1.221   .     D
C783   O827    1.407   .     S
C783   H798    1.114   .     S
C783   H799    1.108   .     S
C783   H965    1.109   1_545 S
C784   H802    1.109   .     S
C784   H801    1.114   .     S
C784   O828    1.410   .     S
C784   H968    1.112   .     S
C785   H805    1.113   .     S
C785   O829    1.405   .     S
C785   H806    1.109   .     S
C785   H971    1.110   1_545 S
C786   H807    1.114   .     S
C786   H808    1.109   .     S
C786   O831    1.410   .     S
C786   H977    1.112   .     S
C787   N818    1.379   .     A
C787   C791    1.419   .     A
C788   N817    1.373   .     A
C788   C792    1.417   .     A
C789   N818    1.381   .     A
C790   O827    1.383   .     S
C791   O828    1.383   .     S
C792   O829    1.382   .     S
H794   O822    1.013   .     S
H795   O824    1.014   .     S
H796   O826    1.014   .     S
H797   C951    1.109   .     S
H800   C952    1.112   1_545 S
H803   C953    1.110   .     S
H809   C954    1.112   1_545 S
H816   O820    1.014   .     S
N817   Zn840   2.026   .     S
N818   Zn839   2.026   .     S
O819   Zn839   1.989   .     S
O830   Zn840   1.989   .     S
O832   Zn839   1.997   .     S
O833   Zn840   1.997   .     S
O834   Zn839   1.960   .     S
O835   Zn840   1.960   .     S
O836   Zn839   1.960   .     S
O837   Zn840   1.960   .     S
C841   O917    1.294   .     A
C841   C858    1.446   .     S
C841   O903    1.298   .     A
C842   C846    1.413   .     A
C842   C873    1.421   .     A
C842   O915    1.383   .     S
C843   C847    1.374   .     S
C843   O921    1.285   .     A
C843   O918    1.285   .     A
C844   C848    1.374   .     S
C844   O920    1.285   .     A
C844   O919    1.285   .     A
C845   C876    1.416   .     A
C845   C874    1.416   .     A
C846   C875    1.413   .     A
C846   C677    1.525   1_565 S
C848   C175    1.170   1_556 S
C849   C854    1.382   .     A
C849   C860    1.399   .     A
C849   H877    1.083   .     S
C850   C855    1.380   .     A
C850   C861    1.402   .     A
C850   H888    1.083   .     S
C851   C861    1.399   .     A
C851   C856    1.382   .     A
C851   H894    1.083   .     S
C852   O914    1.289   .     A
C852   O916    1.293   .     A
C852   C859    1.424   .     S
C853   C860    1.397   .     A
C853   C857    1.380   .     A
C853   H895    1.084   .     S
C854   H896    1.081   .     S
C854   C858    1.400   .     A
C855   C859    1.393   .     A
C855   H897    1.084   .     S
C856   H898    1.083   .     S
C856   C859    1.395   .     A
C857   C858    1.401   .     A
C857   H899    1.081   .     S
C860   C945    1.444   1_455 S
C861   C944    1.444   .     S
C862   O922    1.220   .     D
C862   O904    1.398   .     S
C862   C863    1.471   .     S
C863   C874    1.417   .     A
C863   N901    1.373   .     A
C864   O906    1.398   .     S
C864   O905    1.222   .     D
C864   C871    1.471   .     S
C865   O907    1.222   .     D
C865   C872    1.471   .     S
C865   O908    1.396   .     S
C866   C873    1.478   .     S
C866   O910    1.398   .     S
C866   O909    1.221   .     D
C867   O911    1.407   .     S
C867   H882    1.114   .     S
C867   H883    1.108   .     S
C868   H886    1.109   .     S
C868   H885    1.114   .     S
C868   O912    1.410   .     S
C868   H716    1.112   1_565 S
C869   H889    1.113   .     S
C869   O913    1.405   .     S
C869   H890    1.109   .     S
C870   H891    1.114   .     S
C870   H892    1.109   .     S
C870   O915    1.410   .     S
C870   H725    1.112   1_565 S
C871   N902    1.379   .     A
C871   C875    1.419   .     A
C872   N901    1.373   .     A
C872   C876    1.417   .     A
C873   N902    1.381   .     A
C874   O911    1.383   .     S
C875   O912    1.383   .     S
C876   O913    1.382   .     S
H878   O906    1.013   .     S
H879   O908    1.014   .     S
H880   O910    1.014   .     S
H881   C699    1.109   1_565 S
H887   C701    1.110   1_565 S
H900   O904    1.014   .     S
N901   Zn924   2.026   .     S
N902   Zn923   2.026   .     S
O903   Zn923   1.989   .     S
O914   Zn924   1.989   .     S
O916   Zn923   1.997   .     S
O917   Zn924   1.997   .     S
O918   Zn923   1.960   .     S
O919   Zn924   1.960   .     S
O920   Zn923   1.960   .     S
O921   Zn924   1.960   .     S
C925   O1001   1.294   .     A
C925   C942    1.446   .     S
C925   O987    1.298   .     A
C926   C930    1.413   .     A
C926   C957    1.421   .     A
C926   O999    1.383   .     S
C927   C931    1.374   .     S
C927   O1005   1.285   .     A
C927   O1002   1.285   .     A
C928   C932    1.374   .     S
C928   O1004   1.285   .     A
C928   O1003   1.285   .     A
C929   C960    1.416   .     A
C929   C958    1.416   .     A
C930   C959    1.413   .     A
C930   C761    1.525   1_565 S
C932   C259    1.170   1_556 S
C933   C938    1.382   .     A
C933   C944    1.399   .     A
C933   H961    1.083   .     S
C934   C939    1.380   .     A
C934   C945    1.402   .     A
C934   H972    1.083   .     S
C935   C945    1.399   .     A
C935   C940    1.382   .     A
C935   H978    1.083   .     S
C936   O998    1.289   .     A
C936   O1000   1.293   .     A
C936   C943    1.424   .     S
C937   C944    1.397   .     A
C937   C941    1.380   .     A
C937   H979    1.084   .     S
C938   H980    1.081   .     S
C938   C942    1.400   .     A
C939   C943    1.393   .     A
C939   H981    1.084   .     S
C940   H982    1.083   .     S
C940   C943    1.395   .     A
C941   C942    1.401   .     A
C941   H983    1.081   .     S
C945   C860    1.444   1_655 S
C946   O1006   1.220   .     D
C946   O988    1.398   .     S
C946   C947    1.471   .     S
C947   C958    1.417   .     A
C947   N985    1.373   .     A
C948   O990    1.398   .     S
C948   O989    1.222   .     D
C948   C955    1.471   .     S
C949   O991    1.222   .     D
C949   C956    1.471   .     S
C949   O992    1.396   .     S
C950   C957    1.478   .     S
C950   O994    1.398   .     S
C950   O993    1.221   .     D
C951   O995    1.407   .     S
C951   H966    1.114   .     S
C951   H967    1.108   .     S
C952   H970    1.109   .     S
C952   H969    1.114   .     S
C952   O996    1.410   .     S
C952   H800    1.112   1_565 S
C953   H973    1.113   .     S
C953   O997    1.405   .     S
C953   H974    1.109   .     S
C954   H975    1.114   .     S
C954   H976    1.109   .     S
C954   O999    1.410   .     S
C954   H809    1.112   1_565 S
C955   N986    1.379   .     A
C955   C959    1.419   .     A
C956   N985    1.373   .     A
C956   C960    1.417   .     A
C957   N986    1.381   .     A
C958   O995    1.383   .     S
C959   O996    1.383   .     S
C960   O997    1.382   .     S
H962   O990    1.013   .     S
H963   O992    1.014   .     S
H964   O994    1.014   .     S
H965   C783    1.109   1_565 S
H971   C785    1.110   1_565 S
H984   O988    1.014   .     S
N985   Zn1008  2.026   .     S
N986   Zn1007  2.026   .     S
O987   Zn1007  1.989   .     S
O998   Zn1008  1.989   .     S
O1000  Zn1007  1.997   .     S
O1001  Zn1008  1.997   .     S
O1002  Zn1007  1.960   .     S
O1003  Zn1008  1.960   .     S
O1004  Zn1007  1.960   .     S
O1005  Zn1008  1.960   .     S
