data_str_m3_o1_o17_pcu_sym.26
_audit_creation_date              2020-01-03
_audit_creation_method            'Materials Studio'
_symmetry_space_group_name_H-M    'P1'
_symmetry_Int_Tables_number       1
_symmetry_cell_setting            triclinic
loop_
_symmetry_equiv_pos_as_xyz
  x,y,z
_cell_length_a                    32.0837
_cell_length_b                    29.5438
_cell_length_c                    29.8331
_cell_angle_alpha                 90.3143
_cell_angle_beta                  89.8997
_cell_angle_gamma                 89.9805
loop_
_atom_site_label
_atom_site_type_symbol
_atom_site_fract_x
_atom_site_fract_y
_atom_site_fract_z
_atom_site_U_iso_or_equiv
_atom_site_adp_type
_atom_site_occupancy
C1     C     0.08665   0.16667   0.24999   0.00000  Uiso   1.00
C2     C     0.04250   0.16666   0.24995   0.00000  Uiso   1.00
C3     C     0.19392   0.02411   0.27624   0.00000  Uiso   1.00
C4     C     0.13941   0.30922   0.22376   0.00000  Uiso   1.00
C5     C     0.13941   0.02384   0.22375   0.00000  Uiso   1.00
C6     C     0.19392   0.30949   0.27625   0.00000  Uiso   1.00
C7     C     0.16605   0.16653   0.16360   0.00000  Uiso   1.00
C8     C     0.16728   0.16680   0.33640   0.00000  Uiso   1.00
C9     C     0.20603   0.17558   0.40687   0.00000  Uiso   1.00
C10    C     0.12730   0.15775   0.09313   0.00000  Uiso   1.00
C11    C     0.16852   0.16721   0.38401   0.00000  Uiso   1.00
C12    C     0.24669   0.16666   0.25001   0.00000  Uiso   1.00
C13    C     0.16481   0.16612   0.11599   0.00000  Uiso   1.00
C14    C     0.13146   0.15797   0.40618   0.00000  Uiso   1.00
C15    C     0.20187   0.17536   0.09382   0.00000  Uiso   1.00
C16    C     0.13052   0.15757   0.45239   0.00000  Uiso   1.00
C17    C     0.20281   0.17576   0.04761   0.00000  Uiso   1.00
C18    C     0.16735   0.16660   0.47657   0.00000  Uiso   1.00
C19    C     0.16599   0.16673   0.02343   0.00000  Uiso   1.00
C20    C     0.20543   0.17557   0.45393   0.00000  Uiso   1.00
C21    C     0.12790   0.15776   0.04607   0.00000  Uiso   1.00
C22    C     0.09318   0.14828   0.47458   0.00000  Uiso   1.00
C23    C     0.09184   0.14814   0.02100   0.00000  Uiso   1.00
C24    C     0.24015   0.18505   0.02542   0.00000  Uiso   1.00
C25    C     0.24539   0.18268   0.38143   0.00000  Uiso   1.00
C26    C     0.08794   0.15065   0.11858   0.00000  Uiso   1.00
C27    C     0.24149   0.18519   0.47900   0.00000  Uiso   1.00
C28    C     0.02134   0.12766   0.26324   0.00000  Uiso   1.00
C29    C     0.31199   0.20567   0.23676   0.00000  Uiso   1.00
C30    C     0.31197   0.12768   0.26332   0.00000  Uiso   1.00
C31    C     0.02136   0.20565   0.23668   0.00000  Uiso   1.00
C32    C     0.29083   0.16667   0.25005   0.00000  Uiso   1.00
H33    H     0.10328   0.15122   0.38715   0.00000  Uiso   1.00
H34    H     0.03772   0.23580   0.22592   0.00000  Uiso   1.00
H35    H     0.21572   0.04237   0.29723   0.00000  Uiso   1.00
H36    H     0.11761   0.29096   0.20277   0.00000  Uiso   1.00
H37    H     0.11762   0.04189   0.20276   0.00000  Uiso   1.00
H38    H     0.21571   0.29145   0.29724   0.00000  Uiso   1.00
H39    H     0.30388   0.16133   0.36829   0.00000  Uiso   1.00
H40    H     0.02945   0.17201   0.13171   0.00000  Uiso   1.00
H41    H     0.23005   0.18211   0.11285   0.00000  Uiso   1.00
H42    H     0.06494   0.14099   0.45598   0.00000  Uiso   1.00
H43    H     0.26839   0.19234   0.04402   0.00000  Uiso   1.00
H44    H     0.06246   0.14004   0.03685   0.00000  Uiso   1.00
H45    H     0.27088   0.19329   0.46315   0.00000  Uiso   1.00
H46    H     0.03768   0.09749   0.27393   0.00000  Uiso   1.00
H47    H     0.29565   0.23584   0.22607   0.00000  Uiso   1.00
H48    H     0.29561   0.09753   0.27408   0.00000  Uiso   1.00
N49    N     0.16667   0.28573   0.25000   0.00000  Uiso   1.00
N50    N     0.16667   0.04760   0.25000   0.00000  Uiso   1.00
O51    O     0.10559   0.20487   0.25000   0.00000  Uiso   1.00
O52    O     0.27900   0.15326   0.38766   0.00000  Uiso   1.00
O53    O     0.08511   0.11936   0.14505   0.00000  Uiso   1.00
O54    O     0.05434   0.18007   0.11234   0.00000  Uiso   1.00
O55    O     0.22774   0.12846   0.25001   0.00000  Uiso   1.00
O56    O     0.22774   0.20487   0.25001   0.00000  Uiso   1.00
O57    O     0.10559   0.12846   0.25000   0.00000  Uiso   1.00
O58    O     0.16666   0.20489   0.18393   0.00000  Uiso   1.00
O59    O     0.16667   0.12844   0.31608   0.00000  Uiso   1.00
O60    O     0.16667   0.20489   0.31608   0.00000  Uiso   1.00
O61    O     0.16666   0.12844   0.18393   0.00000  Uiso   1.00
O62    O     0.24822   0.21397   0.35495   0.00000  Uiso   1.00
Zn63   Zn    0.16667   0.21771   0.25000   0.00000  Uiso   1.00
Zn64   Zn    0.16667   0.11563   0.25000   0.00000  Uiso   1.00
C65    C     0.41998   0.16667   0.24999   0.00000  Uiso   1.00
C66    C     0.37584   0.16666   0.24995   0.00000  Uiso   1.00
C67    C     0.52726   0.02411   0.27624   0.00000  Uiso   1.00
C68    C     0.47274   0.30922   0.22376   0.00000  Uiso   1.00
C69    C     0.47275   0.02384   0.22375   0.00000  Uiso   1.00
C70    C     0.52725   0.30949   0.27625   0.00000  Uiso   1.00
C71    C     0.49939   0.16653   0.16360   0.00000  Uiso   1.00
C72    C     0.50061   0.16680   0.33640   0.00000  Uiso   1.00
C73    C     0.53936   0.17558   0.40687   0.00000  Uiso   1.00
C74    C     0.46064   0.15775   0.09313   0.00000  Uiso   1.00
C75    C     0.50185   0.16721   0.38401   0.00000  Uiso   1.00
C76    C     0.58002   0.16666   0.25001   0.00000  Uiso   1.00
C77    C     0.49815   0.16612   0.11599   0.00000  Uiso   1.00
C78    C     0.46480   0.15797   0.40618   0.00000  Uiso   1.00
C79    C     0.53520   0.17536   0.09382   0.00000  Uiso   1.00
C80    C     0.46385   0.15757   0.45239   0.00000  Uiso   1.00
C81    C     0.53615   0.17576   0.04761   0.00000  Uiso   1.00
C82    C     0.50068   0.16660   0.47657   0.00000  Uiso   1.00
C83    C     0.49932   0.16673   0.02343   0.00000  Uiso   1.00
C84    C     0.53877   0.17557   0.45393   0.00000  Uiso   1.00
C85    C     0.46123   0.15776   0.04607   0.00000  Uiso   1.00
C86    C     0.42651   0.14828   0.47458   0.00000  Uiso   1.00
C87    C     0.42518   0.14814   0.02100   0.00000  Uiso   1.00
C88    C     0.57349   0.18505   0.02542   0.00000  Uiso   1.00
C89    C     0.57873   0.18268   0.38143   0.00000  Uiso   1.00
C90    C     0.42127   0.15065   0.11858   0.00000  Uiso   1.00
C91    C     0.57482   0.18519   0.47900   0.00000  Uiso   1.00
C92    C     0.35467   0.12766   0.26324   0.00000  Uiso   1.00
C93    C     0.64533   0.20567   0.23676   0.00000  Uiso   1.00
C94    C     0.64531   0.12768   0.26332   0.00000  Uiso   1.00
C95    C     0.35469   0.20565   0.23668   0.00000  Uiso   1.00
C96    C     0.62416   0.16667   0.25005   0.00000  Uiso   1.00
H97    H     0.43661   0.15122   0.38715   0.00000  Uiso   1.00
H98    H     0.37105   0.23580   0.22592   0.00000  Uiso   1.00
H99    H     0.54905   0.04237   0.29723   0.00000  Uiso   1.00
H100   H     0.45095   0.29096   0.20277   0.00000  Uiso   1.00
H101   H     0.45095   0.04189   0.20276   0.00000  Uiso   1.00
H102   H     0.54905   0.29145   0.29724   0.00000  Uiso   1.00
H103   H     0.63722   0.16133   0.36829   0.00000  Uiso   1.00
H104   H     0.36278   0.17201   0.13171   0.00000  Uiso   1.00
H105   H     0.56339   0.18211   0.11285   0.00000  Uiso   1.00
H106   H     0.39828   0.14099   0.45598   0.00000  Uiso   1.00
H107   H     0.60172   0.19234   0.04402   0.00000  Uiso   1.00
H108   H     0.39579   0.14004   0.03685   0.00000  Uiso   1.00
H109   H     0.60421   0.19329   0.46315   0.00000  Uiso   1.00
H110   H     0.37101   0.09749   0.27393   0.00000  Uiso   1.00
H111   H     0.62899   0.23584   0.22607   0.00000  Uiso   1.00
H112   H     0.62895   0.09753   0.27408   0.00000  Uiso   1.00
N113   N     0.50000   0.28573   0.25000   0.00000  Uiso   1.00
N114   N     0.50000   0.04760   0.25000   0.00000  Uiso   1.00
O115   O     0.43892   0.20487   0.25000   0.00000  Uiso   1.00
O116   O     0.61233   0.15326   0.38766   0.00000  Uiso   1.00
O117   O     0.41844   0.11936   0.14505   0.00000  Uiso   1.00
O118   O     0.38767   0.18007   0.11234   0.00000  Uiso   1.00
O119   O     0.56108   0.12846   0.25001   0.00000  Uiso   1.00
O120   O     0.56108   0.20487   0.25001   0.00000  Uiso   1.00
O121   O     0.43892   0.12846   0.25000   0.00000  Uiso   1.00
O122   O     0.49999   0.20489   0.18393   0.00000  Uiso   1.00
O123   O     0.50001   0.12844   0.31608   0.00000  Uiso   1.00
O124   O     0.50001   0.20489   0.31608   0.00000  Uiso   1.00
O125   O     0.49999   0.12844   0.18393   0.00000  Uiso   1.00
O126   O     0.58156   0.21397   0.35495   0.00000  Uiso   1.00
Zn127  Zn    0.50000   0.21771   0.25000   0.00000  Uiso   1.00
Zn128  Zn    0.50000   0.11563   0.25000   0.00000  Uiso   1.00
C129   C     0.75331   0.16667   0.24999   0.00000  Uiso   1.00
C130   C     0.70917   0.16666   0.24995   0.00000  Uiso   1.00
C131   C     0.86059   0.02411   0.27624   0.00000  Uiso   1.00
C132   C     0.80608   0.30922   0.22376   0.00000  Uiso   1.00
C133   C     0.80608   0.02384   0.22375   0.00000  Uiso   1.00
C134   C     0.86059   0.30949   0.27625   0.00000  Uiso   1.00
C135   C     0.83272   0.16653   0.16360   0.00000  Uiso   1.00
C136   C     0.83395   0.16680   0.33640   0.00000  Uiso   1.00
C137   C     0.87270   0.17558   0.40687   0.00000  Uiso   1.00
C138   C     0.79397   0.15775   0.09313   0.00000  Uiso   1.00
C139   C     0.83519   0.16721   0.38401   0.00000  Uiso   1.00
C140   C     0.91335   0.16666   0.25001   0.00000  Uiso   1.00
C141   C     0.83148   0.16612   0.11599   0.00000  Uiso   1.00
C142   C     0.79813   0.15797   0.40618   0.00000  Uiso   1.00
C143   C     0.86854   0.17536   0.09382   0.00000  Uiso   1.00
C144   C     0.79719   0.15757   0.45239   0.00000  Uiso   1.00
C145   C     0.86948   0.17576   0.04761   0.00000  Uiso   1.00
C146   C     0.83401   0.16660   0.47657   0.00000  Uiso   1.00
C147   C     0.83265   0.16673   0.02343   0.00000  Uiso   1.00
C148   C     0.87210   0.17557   0.45393   0.00000  Uiso   1.00
C149   C     0.79457   0.15776   0.04607   0.00000  Uiso   1.00
C150   C     0.75985   0.14828   0.47458   0.00000  Uiso   1.00
C151   C     0.75851   0.14814   0.02100   0.00000  Uiso   1.00
C152   C     0.90682   0.18505   0.02542   0.00000  Uiso   1.00
C153   C     0.91206   0.18268   0.38143   0.00000  Uiso   1.00
C154   C     0.75461   0.15065   0.11858   0.00000  Uiso   1.00
C155   C     0.90816   0.18519   0.47900   0.00000  Uiso   1.00
C156   C     0.68800   0.12766   0.26324   0.00000  Uiso   1.00
C157   C     0.97866   0.20567   0.23676   0.00000  Uiso   1.00
C158   C     0.97864   0.12768   0.26332   0.00000  Uiso   1.00
C159   C     0.68803   0.20565   0.23668   0.00000  Uiso   1.00
C160   C     0.95750   0.16667   0.25005   0.00000  Uiso   1.00
H161   H     0.76995   0.15122   0.38715   0.00000  Uiso   1.00
H162   H     0.70439   0.23580   0.22592   0.00000  Uiso   1.00
H163   H     0.88239   0.04237   0.29723   0.00000  Uiso   1.00
H164   H     0.78428   0.29096   0.20277   0.00000  Uiso   1.00
H165   H     0.78429   0.04189   0.20276   0.00000  Uiso   1.00
H166   H     0.88238   0.29145   0.29724   0.00000  Uiso   1.00
H167   H     0.97055   0.16133   0.36829   0.00000  Uiso   1.00
H168   H     0.69612   0.17201   0.13171   0.00000  Uiso   1.00
H169   H     0.89672   0.18211   0.11285   0.00000  Uiso   1.00
H170   H     0.73161   0.14099   0.45598   0.00000  Uiso   1.00
H171   H     0.93506   0.19234   0.04402   0.00000  Uiso   1.00
H172   H     0.72912   0.14004   0.03685   0.00000  Uiso   1.00
H173   H     0.93754   0.19329   0.46315   0.00000  Uiso   1.00
H174   H     0.70435   0.09749   0.27393   0.00000  Uiso   1.00
H175   H     0.96232   0.23584   0.22607   0.00000  Uiso   1.00
H176   H     0.96228   0.09753   0.27408   0.00000  Uiso   1.00
N177   N     0.83333   0.28573   0.25000   0.00000  Uiso   1.00
N178   N     0.83333   0.04760   0.25000   0.00000  Uiso   1.00
O179   O     0.77226   0.20487   0.25000   0.00000  Uiso   1.00
O180   O     0.94566   0.15326   0.38766   0.00000  Uiso   1.00
O181   O     0.75178   0.11936   0.14505   0.00000  Uiso   1.00
O182   O     0.72100   0.18007   0.11234   0.00000  Uiso   1.00
O183   O     0.89441   0.12846   0.25001   0.00000  Uiso   1.00
O184   O     0.89441   0.20487   0.25001   0.00000  Uiso   1.00
O185   O     0.77226   0.12846   0.25000   0.00000  Uiso   1.00
O186   O     0.83333   0.20489   0.18393   0.00000  Uiso   1.00
O187   O     0.83334   0.12844   0.31608   0.00000  Uiso   1.00
O188   O     0.83334   0.20489   0.31608   0.00000  Uiso   1.00
O189   O     0.83333   0.12844   0.18393   0.00000  Uiso   1.00
O190   O     0.91489   0.21397   0.35495   0.00000  Uiso   1.00
Zn191  Zn    0.83333   0.21771   0.25000   0.00000  Uiso   1.00
Zn192  Zn    0.83333   0.11563   0.25000   0.00000  Uiso   1.00
C193   C     0.08665   0.50000   0.24999   0.00000  Uiso   1.00
C194   C     0.04250   0.49999   0.24995   0.00000  Uiso   1.00
C195   C     0.19392   0.35744   0.27624   0.00000  Uiso   1.00
C196   C     0.13941   0.64256   0.22376   0.00000  Uiso   1.00
C197   C     0.13941   0.35717   0.22375   0.00000  Uiso   1.00
C198   C     0.19392   0.64283   0.27625   0.00000  Uiso   1.00
C199   C     0.16605   0.49987   0.16360   0.00000  Uiso   1.00
C200   C     0.16728   0.50013   0.33640   0.00000  Uiso   1.00
C201   C     0.20603   0.50891   0.40687   0.00000  Uiso   1.00
C202   C     0.12730   0.49109   0.09313   0.00000  Uiso   1.00
C203   C     0.16852   0.50054   0.38401   0.00000  Uiso   1.00
C204   C     0.24669   0.50000   0.25001   0.00000  Uiso   1.00
C205   C     0.16481   0.49946   0.11599   0.00000  Uiso   1.00
C206   C     0.13146   0.49131   0.40618   0.00000  Uiso   1.00
C207   C     0.20187   0.50869   0.09382   0.00000  Uiso   1.00
C208   C     0.13052   0.49090   0.45239   0.00000  Uiso   1.00
C209   C     0.20281   0.50910   0.04761   0.00000  Uiso   1.00
C210   C     0.16735   0.49994   0.47657   0.00000  Uiso   1.00
C211   C     0.16599   0.50006   0.02343   0.00000  Uiso   1.00
C212   C     0.20543   0.50890   0.45393   0.00000  Uiso   1.00
C213   C     0.12790   0.49110   0.04607   0.00000  Uiso   1.00
C214   C     0.09318   0.48161   0.47458   0.00000  Uiso   1.00
C215   C     0.09184   0.48147   0.02100   0.00000  Uiso   1.00
C216   C     0.24015   0.51838   0.02542   0.00000  Uiso   1.00
C217   C     0.24539   0.51602   0.38143   0.00000  Uiso   1.00
C218   C     0.08794   0.48398   0.11858   0.00000  Uiso   1.00
C219   C     0.24149   0.51853   0.47900   0.00000  Uiso   1.00
C220   C     0.02134   0.46100   0.26324   0.00000  Uiso   1.00
C221   C     0.31199   0.53900   0.23676   0.00000  Uiso   1.00
C222   C     0.31197   0.46101   0.26332   0.00000  Uiso   1.00
C223   C     0.02136   0.53899   0.23668   0.00000  Uiso   1.00
C224   C     0.29083   0.50001   0.25005   0.00000  Uiso   1.00
H225   H     0.10328   0.48456   0.38715   0.00000  Uiso   1.00
H226   H     0.03772   0.56913   0.22592   0.00000  Uiso   1.00
H227   H     0.21572   0.37571   0.29723   0.00000  Uiso   1.00
H228   H     0.11761   0.62429   0.20277   0.00000  Uiso   1.00
H229   H     0.11762   0.37522   0.20276   0.00000  Uiso   1.00
H230   H     0.21571   0.62478   0.29724   0.00000  Uiso   1.00
H231   H     0.30388   0.49466   0.36829   0.00000  Uiso   1.00
H232   H     0.02945   0.50534   0.13171   0.00000  Uiso   1.00
H233   H     0.23005   0.51544   0.11285   0.00000  Uiso   1.00
H234   H     0.06494   0.47432   0.45598   0.00000  Uiso   1.00
H235   H     0.26839   0.52568   0.04402   0.00000  Uiso   1.00
H236   H     0.06246   0.47338   0.03685   0.00000  Uiso   1.00
H237   H     0.27088   0.52662   0.46315   0.00000  Uiso   1.00
H238   H     0.03768   0.43082   0.27393   0.00000  Uiso   1.00
H239   H     0.29565   0.56918   0.22607   0.00000  Uiso   1.00
H240   H     0.29561   0.43087   0.27408   0.00000  Uiso   1.00
N241   N     0.16667   0.61907   0.25000   0.00000  Uiso   1.00
N242   N     0.16667   0.38093   0.25000   0.00000  Uiso   1.00
O243   O     0.10559   0.53821   0.25000   0.00000  Uiso   1.00
O244   O     0.27900   0.48660   0.38766   0.00000  Uiso   1.00
O245   O     0.08511   0.45269   0.14505   0.00000  Uiso   1.00
O246   O     0.05434   0.51340   0.11234   0.00000  Uiso   1.00
O247   O     0.22774   0.46179   0.25001   0.00000  Uiso   1.00
O248   O     0.22774   0.53821   0.25001   0.00000  Uiso   1.00
O249   O     0.10559   0.46179   0.25000   0.00000  Uiso   1.00
O250   O     0.16666   0.53823   0.18393   0.00000  Uiso   1.00
O251   O     0.16667   0.46177   0.31608   0.00000  Uiso   1.00
O252   O     0.16667   0.53823   0.31608   0.00000  Uiso   1.00
O253   O     0.16666   0.46177   0.18393   0.00000  Uiso   1.00
O254   O     0.24822   0.54731   0.35495   0.00000  Uiso   1.00
Zn255  Zn    0.16667   0.55104   0.25000   0.00000  Uiso   1.00
Zn256  Zn    0.16667   0.44896   0.25000   0.00000  Uiso   1.00
C257   C     0.41998   0.50000   0.24999   0.00000  Uiso   1.00
C258   C     0.37584   0.49999   0.24995   0.00000  Uiso   1.00
C259   C     0.52726   0.35744   0.27624   0.00000  Uiso   1.00
C260   C     0.47274   0.64256   0.22376   0.00000  Uiso   1.00
C261   C     0.47275   0.35717   0.22375   0.00000  Uiso   1.00
C262   C     0.52725   0.64283   0.27625   0.00000  Uiso   1.00
C263   C     0.49939   0.49987   0.16360   0.00000  Uiso   1.00
C264   C     0.50061   0.50013   0.33640   0.00000  Uiso   1.00
C265   C     0.53936   0.50891   0.40687   0.00000  Uiso   1.00
C266   C     0.46064   0.49109   0.09313   0.00000  Uiso   1.00
C267   C     0.50185   0.50054   0.38401   0.00000  Uiso   1.00
C268   C     0.58002   0.50000   0.25001   0.00000  Uiso   1.00
C269   C     0.49815   0.49946   0.11599   0.00000  Uiso   1.00
C270   C     0.46480   0.49131   0.40618   0.00000  Uiso   1.00
C271   C     0.53520   0.50869   0.09382   0.00000  Uiso   1.00
C272   C     0.46385   0.49090   0.45239   0.00000  Uiso   1.00
C273   C     0.53615   0.50910   0.04761   0.00000  Uiso   1.00
C274   C     0.50068   0.49994   0.47657   0.00000  Uiso   1.00
C275   C     0.49932   0.50006   0.02343   0.00000  Uiso   1.00
C276   C     0.53877   0.50890   0.45393   0.00000  Uiso   1.00
C277   C     0.46123   0.49110   0.04607   0.00000  Uiso   1.00
C278   C     0.42651   0.48161   0.47458   0.00000  Uiso   1.00
C279   C     0.42518   0.48147   0.02100   0.00000  Uiso   1.00
C280   C     0.57349   0.51838   0.02542   0.00000  Uiso   1.00
C281   C     0.57873   0.51602   0.38143   0.00000  Uiso   1.00
C282   C     0.42127   0.48398   0.11858   0.00000  Uiso   1.00
C283   C     0.57482   0.51853   0.47900   0.00000  Uiso   1.00
C284   C     0.35467   0.46100   0.26324   0.00000  Uiso   1.00
C285   C     0.64533   0.53900   0.23676   0.00000  Uiso   1.00
C286   C     0.64531   0.46101   0.26332   0.00000  Uiso   1.00
C287   C     0.35469   0.53899   0.23668   0.00000  Uiso   1.00
C288   C     0.62416   0.50001   0.25005   0.00000  Uiso   1.00
H289   H     0.43661   0.48456   0.38715   0.00000  Uiso   1.00
H290   H     0.37105   0.56913   0.22592   0.00000  Uiso   1.00
H291   H     0.54905   0.37571   0.29723   0.00000  Uiso   1.00
H292   H     0.45095   0.62429   0.20277   0.00000  Uiso   1.00
H293   H     0.45095   0.37522   0.20276   0.00000  Uiso   1.00
H294   H     0.54905   0.62478   0.29724   0.00000  Uiso   1.00
H295   H     0.63722   0.49466   0.36829   0.00000  Uiso   1.00
H296   H     0.36278   0.50534   0.13171   0.00000  Uiso   1.00
H297   H     0.56339   0.51544   0.11285   0.00000  Uiso   1.00
H298   H     0.39828   0.47432   0.45598   0.00000  Uiso   1.00
H299   H     0.60172   0.52568   0.04402   0.00000  Uiso   1.00
H300   H     0.39579   0.47338   0.03685   0.00000  Uiso   1.00
H301   H     0.60421   0.52662   0.46315   0.00000  Uiso   1.00
H302   H     0.37101   0.43082   0.27393   0.00000  Uiso   1.00
H303   H     0.62899   0.56918   0.22607   0.00000  Uiso   1.00
H304   H     0.62895   0.43087   0.27408   0.00000  Uiso   1.00
N305   N     0.50000   0.61907   0.25000   0.00000  Uiso   1.00
N306   N     0.50000   0.38093   0.25000   0.00000  Uiso   1.00
O307   O     0.43892   0.53821   0.25000   0.00000  Uiso   1.00
O308   O     0.61233   0.48660   0.38766   0.00000  Uiso   1.00
O309   O     0.41844   0.45269   0.14505   0.00000  Uiso   1.00
O310   O     0.38767   0.51340   0.11234   0.00000  Uiso   1.00
O311   O     0.56108   0.46179   0.25001   0.00000  Uiso   1.00
O312   O     0.56108   0.53821   0.25001   0.00000  Uiso   1.00
O313   O     0.43892   0.46179   0.25000   0.00000  Uiso   1.00
O314   O     0.49999   0.53823   0.18393   0.00000  Uiso   1.00
O315   O     0.50001   0.46177   0.31608   0.00000  Uiso   1.00
O316   O     0.50001   0.53823   0.31608   0.00000  Uiso   1.00
O317   O     0.49999   0.46177   0.18393   0.00000  Uiso   1.00
O318   O     0.58156   0.54731   0.35495   0.00000  Uiso   1.00
Zn319  Zn    0.50000   0.55104   0.25000   0.00000  Uiso   1.00
Zn320  Zn    0.50000   0.44896   0.25000   0.00000  Uiso   1.00
C321   C     0.75331   0.50000   0.24999   0.00000  Uiso   1.00
C322   C     0.70917   0.49999   0.24995   0.00000  Uiso   1.00
C323   C     0.86059   0.35744   0.27624   0.00000  Uiso   1.00
C324   C     0.80608   0.64256   0.22376   0.00000  Uiso   1.00
C325   C     0.80608   0.35717   0.22375   0.00000  Uiso   1.00
C326   C     0.86059   0.64283   0.27625   0.00000  Uiso   1.00
C327   C     0.83272   0.49987   0.16360   0.00000  Uiso   1.00
C328   C     0.83395   0.50013   0.33640   0.00000  Uiso   1.00
C329   C     0.87270   0.50891   0.40687   0.00000  Uiso   1.00
C330   C     0.79397   0.49109   0.09313   0.00000  Uiso   1.00
C331   C     0.83519   0.50054   0.38401   0.00000  Uiso   1.00
C332   C     0.91335   0.50000   0.25001   0.00000  Uiso   1.00
C333   C     0.83148   0.49946   0.11599   0.00000  Uiso   1.00
C334   C     0.79813   0.49131   0.40618   0.00000  Uiso   1.00
C335   C     0.86854   0.50869   0.09382   0.00000  Uiso   1.00
C336   C     0.79719   0.49090   0.45239   0.00000  Uiso   1.00
C337   C     0.86948   0.50910   0.04761   0.00000  Uiso   1.00
C338   C     0.83401   0.49994   0.47657   0.00000  Uiso   1.00
C339   C     0.83265   0.50006   0.02343   0.00000  Uiso   1.00
C340   C     0.87210   0.50890   0.45393   0.00000  Uiso   1.00
C341   C     0.79457   0.49110   0.04607   0.00000  Uiso   1.00
C342   C     0.75985   0.48161   0.47458   0.00000  Uiso   1.00
C343   C     0.75851   0.48147   0.02100   0.00000  Uiso   1.00
C344   C     0.90682   0.51838   0.02542   0.00000  Uiso   1.00
C345   C     0.91206   0.51602   0.38143   0.00000  Uiso   1.00
C346   C     0.75461   0.48398   0.11858   0.00000  Uiso   1.00
C347   C     0.90816   0.51853   0.47900   0.00000  Uiso   1.00
C348   C     0.68800   0.46100   0.26324   0.00000  Uiso   1.00
C349   C     0.97866   0.53900   0.23676   0.00000  Uiso   1.00
C350   C     0.97864   0.46101   0.26332   0.00000  Uiso   1.00
C351   C     0.68803   0.53899   0.23668   0.00000  Uiso   1.00
C352   C     0.95750   0.50001   0.25005   0.00000  Uiso   1.00
H353   H     0.76995   0.48456   0.38715   0.00000  Uiso   1.00
H354   H     0.70439   0.56913   0.22592   0.00000  Uiso   1.00
H355   H     0.88239   0.37571   0.29723   0.00000  Uiso   1.00
H356   H     0.78428   0.62429   0.20277   0.00000  Uiso   1.00
H357   H     0.78429   0.37522   0.20276   0.00000  Uiso   1.00
H358   H     0.88238   0.62478   0.29724   0.00000  Uiso   1.00
H359   H     0.97055   0.49466   0.36829   0.00000  Uiso   1.00
H360   H     0.69612   0.50534   0.13171   0.00000  Uiso   1.00
H361   H     0.89672   0.51544   0.11285   0.00000  Uiso   1.00
H362   H     0.73161   0.47432   0.45598   0.00000  Uiso   1.00
H363   H     0.93506   0.52568   0.04402   0.00000  Uiso   1.00
H364   H     0.72912   0.47338   0.03685   0.00000  Uiso   1.00
H365   H     0.93754   0.52662   0.46315   0.00000  Uiso   1.00
H366   H     0.70435   0.43082   0.27393   0.00000  Uiso   1.00
H367   H     0.96232   0.56918   0.22607   0.00000  Uiso   1.00
H368   H     0.96228   0.43087   0.27408   0.00000  Uiso   1.00
N369   N     0.83333   0.61907   0.25000   0.00000  Uiso   1.00
N370   N     0.83333   0.38093   0.25000   0.00000  Uiso   1.00
O371   O     0.77226   0.53821   0.25000   0.00000  Uiso   1.00
O372   O     0.94566   0.48660   0.38766   0.00000  Uiso   1.00
O373   O     0.75178   0.45269   0.14505   0.00000  Uiso   1.00
O374   O     0.72100   0.51340   0.11234   0.00000  Uiso   1.00
O375   O     0.89441   0.46179   0.25001   0.00000  Uiso   1.00
O376   O     0.89441   0.53821   0.25001   0.00000  Uiso   1.00
O377   O     0.77226   0.46179   0.25000   0.00000  Uiso   1.00
O378   O     0.83333   0.53823   0.18393   0.00000  Uiso   1.00
O379   O     0.83334   0.46177   0.31608   0.00000  Uiso   1.00
O380   O     0.83334   0.53823   0.31608   0.00000  Uiso   1.00
O381   O     0.83333   0.46177   0.18393   0.00000  Uiso   1.00
O382   O     0.91489   0.54731   0.35495   0.00000  Uiso   1.00
Zn383  Zn    0.83333   0.55104   0.25000   0.00000  Uiso   1.00
Zn384  Zn    0.83333   0.44896   0.25000   0.00000  Uiso   1.00
C385   C     0.08665   0.83334   0.24999   0.00000  Uiso   1.00
C386   C     0.04250   0.83333   0.24995   0.00000  Uiso   1.00
C387   C     0.19392   0.69078   0.27624   0.00000  Uiso   1.00
C388   C     0.13941   0.97589   0.22376   0.00000  Uiso   1.00
C389   C     0.13941   0.69051   0.22375   0.00000  Uiso   1.00
C390   C     0.19392   0.97616   0.27625   0.00000  Uiso   1.00
C391   C     0.16605   0.83320   0.16360   0.00000  Uiso   1.00
C392   C     0.16728   0.83347   0.33640   0.00000  Uiso   1.00
C393   C     0.20603   0.84225   0.40687   0.00000  Uiso   1.00
C394   C     0.12730   0.82442   0.09313   0.00000  Uiso   1.00
C395   C     0.16852   0.83388   0.38401   0.00000  Uiso   1.00
C396   C     0.24669   0.83333   0.25001   0.00000  Uiso   1.00
C397   C     0.16481   0.83279   0.11599   0.00000  Uiso   1.00
C398   C     0.13146   0.82464   0.40618   0.00000  Uiso   1.00
C399   C     0.20187   0.84203   0.09382   0.00000  Uiso   1.00
C400   C     0.13052   0.82424   0.45239   0.00000  Uiso   1.00
C401   C     0.20281   0.84243   0.04761   0.00000  Uiso   1.00
C402   C     0.16735   0.83327   0.47657   0.00000  Uiso   1.00
C403   C     0.16599   0.83339   0.02343   0.00000  Uiso   1.00
C404   C     0.20543   0.84224   0.45393   0.00000  Uiso   1.00
C405   C     0.12790   0.82443   0.04607   0.00000  Uiso   1.00
C406   C     0.09318   0.81495   0.47458   0.00000  Uiso   1.00
C407   C     0.09184   0.81480   0.02100   0.00000  Uiso   1.00
C408   C     0.24015   0.85172   0.02542   0.00000  Uiso   1.00
C409   C     0.24539   0.84935   0.38143   0.00000  Uiso   1.00
C410   C     0.08794   0.81732   0.11858   0.00000  Uiso   1.00
C411   C     0.24149   0.85186   0.47900   0.00000  Uiso   1.00
C412   C     0.02134   0.79433   0.26324   0.00000  Uiso   1.00
C413   C     0.31199   0.87234   0.23676   0.00000  Uiso   1.00
C414   C     0.31197   0.79435   0.26332   0.00000  Uiso   1.00
C415   C     0.02136   0.87232   0.23668   0.00000  Uiso   1.00
C416   C     0.29083   0.83334   0.25005   0.00000  Uiso   1.00
H417   H     0.10328   0.81789   0.38715   0.00000  Uiso   1.00
H418   H     0.03772   0.90247   0.22592   0.00000  Uiso   1.00
H419   H     0.21572   0.70904   0.29723   0.00000  Uiso   1.00
H420   H     0.11761   0.95763   0.20277   0.00000  Uiso   1.00
H421   H     0.11762   0.70855   0.20276   0.00000  Uiso   1.00
H422   H     0.21571   0.95811   0.29724   0.00000  Uiso   1.00
H423   H     0.30388   0.82799   0.36829   0.00000  Uiso   1.00
H424   H     0.02945   0.83867   0.13171   0.00000  Uiso   1.00
H425   H     0.23005   0.84877   0.11285   0.00000  Uiso   1.00
H426   H     0.06494   0.80765   0.45598   0.00000  Uiso   1.00
H427   H     0.26839   0.85901   0.04402   0.00000  Uiso   1.00
H428   H     0.06246   0.80671   0.03685   0.00000  Uiso   1.00
H429   H     0.27088   0.85996   0.46315   0.00000  Uiso   1.00
H430   H     0.03768   0.76416   0.27393   0.00000  Uiso   1.00
H431   H     0.29565   0.90251   0.22607   0.00000  Uiso   1.00
H432   H     0.29561   0.76420   0.27408   0.00000  Uiso   1.00
N433   N     0.16667   0.95240   0.25000   0.00000  Uiso   1.00
N434   N     0.16667   0.71427   0.25000   0.00000  Uiso   1.00
O435   O     0.10559   0.87154   0.25000   0.00000  Uiso   1.00
O436   O     0.27900   0.81993   0.38766   0.00000  Uiso   1.00
O437   O     0.08511   0.78603   0.14505   0.00000  Uiso   1.00
O438   O     0.05434   0.84674   0.11234   0.00000  Uiso   1.00
O439   O     0.22774   0.79513   0.25001   0.00000  Uiso   1.00
O440   O     0.22774   0.87154   0.25001   0.00000  Uiso   1.00
O441   O     0.10559   0.79513   0.25000   0.00000  Uiso   1.00
O442   O     0.16666   0.87156   0.18393   0.00000  Uiso   1.00
O443   O     0.16667   0.79511   0.31608   0.00000  Uiso   1.00
O444   O     0.16667   0.87156   0.31608   0.00000  Uiso   1.00
O445   O     0.16666   0.79511   0.18393   0.00000  Uiso   1.00
O446   O     0.24822   0.88064   0.35495   0.00000  Uiso   1.00
Zn447  Zn    0.16667   0.88437   0.25000   0.00000  Uiso   1.00
Zn448  Zn    0.16667   0.78229   0.25000   0.00000  Uiso   1.00
C449   C     0.41998   0.83334   0.24999   0.00000  Uiso   1.00
C450   C     0.37584   0.83333   0.24995   0.00000  Uiso   1.00
C451   C     0.52726   0.69078   0.27624   0.00000  Uiso   1.00
C452   C     0.47274   0.97589   0.22376   0.00000  Uiso   1.00
C453   C     0.47275   0.69051   0.22375   0.00000  Uiso   1.00
C454   C     0.52725   0.97616   0.27625   0.00000  Uiso   1.00
C455   C     0.49939   0.83320   0.16360   0.00000  Uiso   1.00
C456   C     0.50061   0.83347   0.33640   0.00000  Uiso   1.00
C457   C     0.53936   0.84225   0.40687   0.00000  Uiso   1.00
C458   C     0.46064   0.82442   0.09313   0.00000  Uiso   1.00
C459   C     0.50185   0.83388   0.38401   0.00000  Uiso   1.00
C460   C     0.58002   0.83333   0.25001   0.00000  Uiso   1.00
C461   C     0.49815   0.83279   0.11599   0.00000  Uiso   1.00
C462   C     0.46480   0.82464   0.40618   0.00000  Uiso   1.00
C463   C     0.53520   0.84203   0.09382   0.00000  Uiso   1.00
C464   C     0.46385   0.82424   0.45239   0.00000  Uiso   1.00
C465   C     0.53615   0.84243   0.04761   0.00000  Uiso   1.00
C466   C     0.50068   0.83327   0.47657   0.00000  Uiso   1.00
C467   C     0.49932   0.83339   0.02343   0.00000  Uiso   1.00
C468   C     0.53877   0.84224   0.45393   0.00000  Uiso   1.00
C469   C     0.46123   0.82443   0.04607   0.00000  Uiso   1.00
C470   C     0.42651   0.81495   0.47458   0.00000  Uiso   1.00
C471   C     0.42518   0.81480   0.02100   0.00000  Uiso   1.00
C472   C     0.57349   0.85172   0.02542   0.00000  Uiso   1.00
C473   C     0.57873   0.84935   0.38143   0.00000  Uiso   1.00
C474   C     0.42127   0.81732   0.11858   0.00000  Uiso   1.00
C475   C     0.57482   0.85186   0.47900   0.00000  Uiso   1.00
C476   C     0.35467   0.79433   0.26324   0.00000  Uiso   1.00
C477   C     0.64533   0.87234   0.23676   0.00000  Uiso   1.00
C478   C     0.64531   0.79435   0.26332   0.00000  Uiso   1.00
C479   C     0.35469   0.87232   0.23668   0.00000  Uiso   1.00
C480   C     0.62416   0.83334   0.25005   0.00000  Uiso   1.00
H481   H     0.43661   0.81789   0.38715   0.00000  Uiso   1.00
H482   H     0.37105   0.90247   0.22592   0.00000  Uiso   1.00
H483   H     0.54905   0.70904   0.29723   0.00000  Uiso   1.00
H484   H     0.45095   0.95763   0.20277   0.00000  Uiso   1.00
H485   H     0.45095   0.70855   0.20276   0.00000  Uiso   1.00
H486   H     0.54905   0.95811   0.29724   0.00000  Uiso   1.00
H487   H     0.63722   0.82799   0.36829   0.00000  Uiso   1.00
H488   H     0.36278   0.83867   0.13171   0.00000  Uiso   1.00
H489   H     0.56339   0.84877   0.11285   0.00000  Uiso   1.00
H490   H     0.39828   0.80765   0.45598   0.00000  Uiso   1.00
H491   H     0.60172   0.85901   0.04402   0.00000  Uiso   1.00
H492   H     0.39579   0.80671   0.03685   0.00000  Uiso   1.00
H493   H     0.60421   0.85996   0.46315   0.00000  Uiso   1.00
H494   H     0.37101   0.76416   0.27393   0.00000  Uiso   1.00
H495   H     0.62899   0.90251   0.22607   0.00000  Uiso   1.00
H496   H     0.62895   0.76420   0.27408   0.00000  Uiso   1.00
N497   N     0.50000   0.95240   0.25000   0.00000  Uiso   1.00
N498   N     0.50000   0.71427   0.25000   0.00000  Uiso   1.00
O499   O     0.43892   0.87154   0.25000   0.00000  Uiso   1.00
O500   O     0.61233   0.81993   0.38766   0.00000  Uiso   1.00
O501   O     0.41844   0.78603   0.14505   0.00000  Uiso   1.00
O502   O     0.38767   0.84674   0.11234   0.00000  Uiso   1.00
O503   O     0.56108   0.79513   0.25001   0.00000  Uiso   1.00
O504   O     0.56108   0.87154   0.25001   0.00000  Uiso   1.00
O505   O     0.43892   0.79513   0.25000   0.00000  Uiso   1.00
O506   O     0.49999   0.87156   0.18393   0.00000  Uiso   1.00
O507   O     0.50001   0.79511   0.31608   0.00000  Uiso   1.00
O508   O     0.50001   0.87156   0.31608   0.00000  Uiso   1.00
O509   O     0.49999   0.79511   0.18393   0.00000  Uiso   1.00
O510   O     0.58156   0.88064   0.35495   0.00000  Uiso   1.00
Zn511  Zn    0.50000   0.88437   0.25000   0.00000  Uiso   1.00
Zn512  Zn    0.50000   0.78229   0.25000   0.00000  Uiso   1.00
C513   C     0.75331   0.83334   0.24999   0.00000  Uiso   1.00
C514   C     0.70917   0.83333   0.24995   0.00000  Uiso   1.00
C515   C     0.86059   0.69078   0.27624   0.00000  Uiso   1.00
C516   C     0.80608   0.97589   0.22376   0.00000  Uiso   1.00
C517   C     0.80608   0.69051   0.22375   0.00000  Uiso   1.00
C518   C     0.86059   0.97616   0.27625   0.00000  Uiso   1.00
C519   C     0.83272   0.83320   0.16360   0.00000  Uiso   1.00
C520   C     0.83395   0.83347   0.33640   0.00000  Uiso   1.00
C521   C     0.87270   0.84225   0.40687   0.00000  Uiso   1.00
C522   C     0.79397   0.82442   0.09313   0.00000  Uiso   1.00
C523   C     0.83519   0.83388   0.38401   0.00000  Uiso   1.00
C524   C     0.91335   0.83333   0.25001   0.00000  Uiso   1.00
C525   C     0.83148   0.83279   0.11599   0.00000  Uiso   1.00
C526   C     0.79813   0.82464   0.40618   0.00000  Uiso   1.00
C527   C     0.86854   0.84203   0.09382   0.00000  Uiso   1.00
C528   C     0.79719   0.82424   0.45239   0.00000  Uiso   1.00
C529   C     0.86948   0.84243   0.04761   0.00000  Uiso   1.00
C530   C     0.83401   0.83327   0.47657   0.00000  Uiso   1.00
C531   C     0.83265   0.83339   0.02343   0.00000  Uiso   1.00
C532   C     0.87210   0.84224   0.45393   0.00000  Uiso   1.00
C533   C     0.79457   0.82443   0.04607   0.00000  Uiso   1.00
C534   C     0.75985   0.81495   0.47458   0.00000  Uiso   1.00
C535   C     0.75851   0.81480   0.02100   0.00000  Uiso   1.00
C536   C     0.90682   0.85172   0.02542   0.00000  Uiso   1.00
C537   C     0.91206   0.84935   0.38143   0.00000  Uiso   1.00
C538   C     0.75461   0.81732   0.11858   0.00000  Uiso   1.00
C539   C     0.90816   0.85186   0.47900   0.00000  Uiso   1.00
C540   C     0.68800   0.79433   0.26324   0.00000  Uiso   1.00
C541   C     0.97866   0.87234   0.23676   0.00000  Uiso   1.00
C542   C     0.97864   0.79435   0.26332   0.00000  Uiso   1.00
C543   C     0.68803   0.87232   0.23668   0.00000  Uiso   1.00
C544   C     0.95750   0.83334   0.25005   0.00000  Uiso   1.00
H545   H     0.76995   0.81789   0.38715   0.00000  Uiso   1.00
H546   H     0.70439   0.90247   0.22592   0.00000  Uiso   1.00
H547   H     0.88239   0.70904   0.29723   0.00000  Uiso   1.00
H548   H     0.78428   0.95763   0.20277   0.00000  Uiso   1.00
H549   H     0.78429   0.70855   0.20276   0.00000  Uiso   1.00
H550   H     0.88238   0.95811   0.29724   0.00000  Uiso   1.00
H551   H     0.97055   0.82799   0.36829   0.00000  Uiso   1.00
H552   H     0.69612   0.83867   0.13171   0.00000  Uiso   1.00
H553   H     0.89672   0.84877   0.11285   0.00000  Uiso   1.00
H554   H     0.73161   0.80765   0.45598   0.00000  Uiso   1.00
H555   H     0.93506   0.85901   0.04402   0.00000  Uiso   1.00
H556   H     0.72912   0.80671   0.03685   0.00000  Uiso   1.00
H557   H     0.93754   0.85996   0.46315   0.00000  Uiso   1.00
H558   H     0.70435   0.76416   0.27393   0.00000  Uiso   1.00
H559   H     0.96232   0.90251   0.22607   0.00000  Uiso   1.00
H560   H     0.96228   0.76420   0.27408   0.00000  Uiso   1.00
N561   N     0.83333   0.95240   0.25000   0.00000  Uiso   1.00
N562   N     0.83333   0.71427   0.25000   0.00000  Uiso   1.00
O563   O     0.77226   0.87154   0.25000   0.00000  Uiso   1.00
O564   O     0.94566   0.81993   0.38766   0.00000  Uiso   1.00
O565   O     0.75178   0.78603   0.14505   0.00000  Uiso   1.00
O566   O     0.72100   0.84674   0.11234   0.00000  Uiso   1.00
O567   O     0.89441   0.79513   0.25001   0.00000  Uiso   1.00
O568   O     0.89441   0.87154   0.25001   0.00000  Uiso   1.00
O569   O     0.77226   0.79513   0.25000   0.00000  Uiso   1.00
O570   O     0.83333   0.87156   0.18393   0.00000  Uiso   1.00
O571   O     0.83334   0.79511   0.31608   0.00000  Uiso   1.00
O572   O     0.83334   0.87156   0.31608   0.00000  Uiso   1.00
O573   O     0.83333   0.79511   0.18393   0.00000  Uiso   1.00
O574   O     0.91489   0.88064   0.35495   0.00000  Uiso   1.00
Zn575  Zn    0.83333   0.88437   0.25000   0.00000  Uiso   1.00
Zn576  Zn    0.83333   0.78229   0.25000   0.00000  Uiso   1.00
C577   C     0.08665   0.16667   0.74999   0.00000  Uiso   1.00
C578   C     0.04250   0.16666   0.74995   0.00000  Uiso   1.00
C579   C     0.19392   0.02411   0.77624   0.00000  Uiso   1.00
C580   C     0.13941   0.30922   0.72376   0.00000  Uiso   1.00
C581   C     0.13941   0.02384   0.72375   0.00000  Uiso   1.00
C582   C     0.19392   0.30949   0.77625   0.00000  Uiso   1.00
C583   C     0.16605   0.16653   0.66360   0.00000  Uiso   1.00
C584   C     0.16728   0.16680   0.83640   0.00000  Uiso   1.00
C585   C     0.20603   0.17558   0.90687   0.00000  Uiso   1.00
C586   C     0.12730   0.15775   0.59313   0.00000  Uiso   1.00
C587   C     0.16852   0.16721   0.88401   0.00000  Uiso   1.00
C588   C     0.24669   0.16666   0.75001   0.00000  Uiso   1.00
C589   C     0.16481   0.16612   0.61599   0.00000  Uiso   1.00
C590   C     0.13146   0.15797   0.90618   0.00000  Uiso   1.00
C591   C     0.20187   0.17536   0.59382   0.00000  Uiso   1.00
C592   C     0.13052   0.15757   0.95239   0.00000  Uiso   1.00
C593   C     0.20281   0.17576   0.54761   0.00000  Uiso   1.00
C594   C     0.16735   0.16660   0.97657   0.00000  Uiso   1.00
C595   C     0.16599   0.16673   0.52343   0.00000  Uiso   1.00
C596   C     0.20543   0.17557   0.95393   0.00000  Uiso   1.00
C597   C     0.12790   0.15776   0.54607   0.00000  Uiso   1.00
C598   C     0.09318   0.14828   0.97458   0.00000  Uiso   1.00
C599   C     0.09184   0.14814   0.52100   0.00000  Uiso   1.00
C600   C     0.24015   0.18505   0.52542   0.00000  Uiso   1.00
C601   C     0.24539   0.18268   0.88143   0.00000  Uiso   1.00
C602   C     0.08794   0.15065   0.61858   0.00000  Uiso   1.00
C603   C     0.24149   0.18519   0.97900   0.00000  Uiso   1.00
C604   C     0.02134   0.12766   0.76324   0.00000  Uiso   1.00
C605   C     0.31199   0.20567   0.73676   0.00000  Uiso   1.00
C606   C     0.31197   0.12768   0.76332   0.00000  Uiso   1.00
C607   C     0.02136   0.20565   0.73668   0.00000  Uiso   1.00
C608   C     0.29083   0.16667   0.75005   0.00000  Uiso   1.00
H609   H     0.10328   0.15122   0.88715   0.00000  Uiso   1.00
H610   H     0.03772   0.23580   0.72592   0.00000  Uiso   1.00
H611   H     0.21572   0.04237   0.79723   0.00000  Uiso   1.00
H612   H     0.11761   0.29096   0.70277   0.00000  Uiso   1.00
H613   H     0.11762   0.04189   0.70276   0.00000  Uiso   1.00
H614   H     0.21571   0.29145   0.79724   0.00000  Uiso   1.00
H615   H     0.30388   0.16133   0.86829   0.00000  Uiso   1.00
H616   H     0.02945   0.17201   0.63171   0.00000  Uiso   1.00
H617   H     0.23005   0.18211   0.61285   0.00000  Uiso   1.00
H618   H     0.06494   0.14099   0.95598   0.00000  Uiso   1.00
H619   H     0.26839   0.19234   0.54402   0.00000  Uiso   1.00
H620   H     0.06246   0.14004   0.53685   0.00000  Uiso   1.00
H621   H     0.27088   0.19329   0.96315   0.00000  Uiso   1.00
H622   H     0.03768   0.09749   0.77393   0.00000  Uiso   1.00
H623   H     0.29565   0.23584   0.72607   0.00000  Uiso   1.00
H624   H     0.29561   0.09753   0.77408   0.00000  Uiso   1.00
N625   N     0.16667   0.28573   0.75000   0.00000  Uiso   1.00
N626   N     0.16667   0.04760   0.75000   0.00000  Uiso   1.00
O627   O     0.10559   0.20487   0.75000   0.00000  Uiso   1.00
O628   O     0.27900   0.15326   0.88766   0.00000  Uiso   1.00
O629   O     0.08511   0.11936   0.64505   0.00000  Uiso   1.00
O630   O     0.05434   0.18007   0.61234   0.00000  Uiso   1.00
O631   O     0.22774   0.12846   0.75001   0.00000  Uiso   1.00
O632   O     0.22774   0.20487   0.75001   0.00000  Uiso   1.00
O633   O     0.10559   0.12846   0.75000   0.00000  Uiso   1.00
O634   O     0.16666   0.20489   0.68393   0.00000  Uiso   1.00
O635   O     0.16667   0.12844   0.81608   0.00000  Uiso   1.00
O636   O     0.16667   0.20489   0.81608   0.00000  Uiso   1.00
O637   O     0.16666   0.12844   0.68393   0.00000  Uiso   1.00
O638   O     0.24822   0.21397   0.85495   0.00000  Uiso   1.00
Zn639  Zn    0.16667   0.21771   0.75000   0.00000  Uiso   1.00
Zn640  Zn    0.16667   0.11563   0.75000   0.00000  Uiso   1.00
C641   C     0.41998   0.16667   0.74999   0.00000  Uiso   1.00
C642   C     0.37584   0.16666   0.74995   0.00000  Uiso   1.00
C643   C     0.52726   0.02411   0.77624   0.00000  Uiso   1.00
C644   C     0.47274   0.30922   0.72376   0.00000  Uiso   1.00
C645   C     0.47275   0.02384   0.72375   0.00000  Uiso   1.00
C646   C     0.52725   0.30949   0.77625   0.00000  Uiso   1.00
C647   C     0.49939   0.16653   0.66360   0.00000  Uiso   1.00
C648   C     0.50061   0.16680   0.83640   0.00000  Uiso   1.00
C649   C     0.53936   0.17558   0.90687   0.00000  Uiso   1.00
C650   C     0.46064   0.15775   0.59313   0.00000  Uiso   1.00
C651   C     0.50185   0.16721   0.88401   0.00000  Uiso   1.00
C652   C     0.58002   0.16666   0.75001   0.00000  Uiso   1.00
C653   C     0.49815   0.16612   0.61599   0.00000  Uiso   1.00
C654   C     0.46480   0.15797   0.90618   0.00000  Uiso   1.00
C655   C     0.53520   0.17536   0.59382   0.00000  Uiso   1.00
C656   C     0.46385   0.15757   0.95239   0.00000  Uiso   1.00
C657   C     0.53615   0.17576   0.54761   0.00000  Uiso   1.00
C658   C     0.50068   0.16660   0.97657   0.00000  Uiso   1.00
C659   C     0.49932   0.16673   0.52343   0.00000  Uiso   1.00
C660   C     0.53877   0.17557   0.95393   0.00000  Uiso   1.00
C661   C     0.46123   0.15776   0.54607   0.00000  Uiso   1.00
C662   C     0.42651   0.14828   0.97458   0.00000  Uiso   1.00
C663   C     0.42518   0.14814   0.52100   0.00000  Uiso   1.00
C664   C     0.57349   0.18505   0.52542   0.00000  Uiso   1.00
C665   C     0.57873   0.18268   0.88143   0.00000  Uiso   1.00
C666   C     0.42127   0.15065   0.61858   0.00000  Uiso   1.00
C667   C     0.57482   0.18519   0.97900   0.00000  Uiso   1.00
C668   C     0.35467   0.12766   0.76324   0.00000  Uiso   1.00
C669   C     0.64533   0.20567   0.73676   0.00000  Uiso   1.00
C670   C     0.64531   0.12768   0.76332   0.00000  Uiso   1.00
C671   C     0.35469   0.20565   0.73668   0.00000  Uiso   1.00
C672   C     0.62416   0.16667   0.75005   0.00000  Uiso   1.00
H673   H     0.43661   0.15122   0.88715   0.00000  Uiso   1.00
H674   H     0.37105   0.23580   0.72592   0.00000  Uiso   1.00
H675   H     0.54905   0.04237   0.79723   0.00000  Uiso   1.00
H676   H     0.45095   0.29096   0.70277   0.00000  Uiso   1.00
H677   H     0.45095   0.04189   0.70276   0.00000  Uiso   1.00
H678   H     0.54905   0.29145   0.79724   0.00000  Uiso   1.00
H679   H     0.63722   0.16133   0.86829   0.00000  Uiso   1.00
H680   H     0.36278   0.17201   0.63171   0.00000  Uiso   1.00
H681   H     0.56339   0.18211   0.61285   0.00000  Uiso   1.00
H682   H     0.39828   0.14099   0.95598   0.00000  Uiso   1.00
H683   H     0.60172   0.19234   0.54402   0.00000  Uiso   1.00
H684   H     0.39579   0.14004   0.53685   0.00000  Uiso   1.00
H685   H     0.60421   0.19329   0.96315   0.00000  Uiso   1.00
H686   H     0.37101   0.09749   0.77393   0.00000  Uiso   1.00
H687   H     0.62899   0.23584   0.72607   0.00000  Uiso   1.00
H688   H     0.62895   0.09753   0.77408   0.00000  Uiso   1.00
N689   N     0.50000   0.28573   0.75000   0.00000  Uiso   1.00
N690   N     0.50000   0.04760   0.75000   0.00000  Uiso   1.00
O691   O     0.43892   0.20487   0.75000   0.00000  Uiso   1.00
O692   O     0.61233   0.15326   0.88766   0.00000  Uiso   1.00
O693   O     0.41844   0.11936   0.64505   0.00000  Uiso   1.00
O694   O     0.38767   0.18007   0.61234   0.00000  Uiso   1.00
O695   O     0.56108   0.12846   0.75001   0.00000  Uiso   1.00
O696   O     0.56108   0.20487   0.75001   0.00000  Uiso   1.00
O697   O     0.43892   0.12846   0.75000   0.00000  Uiso   1.00
O698   O     0.49999   0.20489   0.68393   0.00000  Uiso   1.00
O699   O     0.50001   0.12844   0.81608   0.00000  Uiso   1.00
O700   O     0.50001   0.20489   0.81608   0.00000  Uiso   1.00
O701   O     0.49999   0.12844   0.68393   0.00000  Uiso   1.00
O702   O     0.58156   0.21397   0.85495   0.00000  Uiso   1.00
Zn703  Zn    0.50000   0.21771   0.75000   0.00000  Uiso   1.00
Zn704  Zn    0.50000   0.11563   0.75000   0.00000  Uiso   1.00
C705   C     0.75331   0.16667   0.74999   0.00000  Uiso   1.00
C706   C     0.70917   0.16666   0.74995   0.00000  Uiso   1.00
C707   C     0.86059   0.02411   0.77624   0.00000  Uiso   1.00
C708   C     0.80608   0.30922   0.72376   0.00000  Uiso   1.00
C709   C     0.80608   0.02384   0.72375   0.00000  Uiso   1.00
C710   C     0.86059   0.30949   0.77625   0.00000  Uiso   1.00
C711   C     0.83272   0.16653   0.66360   0.00000  Uiso   1.00
C712   C     0.83395   0.16680   0.83640   0.00000  Uiso   1.00
C713   C     0.87270   0.17558   0.90687   0.00000  Uiso   1.00
C714   C     0.79397   0.15775   0.59313   0.00000  Uiso   1.00
C715   C     0.83519   0.16721   0.88401   0.00000  Uiso   1.00
C716   C     0.91335   0.16666   0.75001   0.00000  Uiso   1.00
C717   C     0.83148   0.16612   0.61599   0.00000  Uiso   1.00
C718   C     0.79813   0.15797   0.90618   0.00000  Uiso   1.00
C719   C     0.86854   0.17536   0.59382   0.00000  Uiso   1.00
C720   C     0.79719   0.15757   0.95239   0.00000  Uiso   1.00
C721   C     0.86948   0.17576   0.54761   0.00000  Uiso   1.00
C722   C     0.83401   0.16660   0.97657   0.00000  Uiso   1.00
C723   C     0.83265   0.16673   0.52343   0.00000  Uiso   1.00
C724   C     0.87210   0.17557   0.95393   0.00000  Uiso   1.00
C725   C     0.79457   0.15776   0.54607   0.00000  Uiso   1.00
C726   C     0.75985   0.14828   0.97458   0.00000  Uiso   1.00
C727   C     0.75851   0.14814   0.52100   0.00000  Uiso   1.00
C728   C     0.90682   0.18505   0.52542   0.00000  Uiso   1.00
C729   C     0.91206   0.18268   0.88143   0.00000  Uiso   1.00
C730   C     0.75461   0.15065   0.61858   0.00000  Uiso   1.00
C731   C     0.90816   0.18519   0.97900   0.00000  Uiso   1.00
C732   C     0.68800   0.12766   0.76324   0.00000  Uiso   1.00
C733   C     0.97866   0.20567   0.73676   0.00000  Uiso   1.00
C734   C     0.97864   0.12768   0.76332   0.00000  Uiso   1.00
C735   C     0.68803   0.20565   0.73668   0.00000  Uiso   1.00
C736   C     0.95750   0.16667   0.75005   0.00000  Uiso   1.00
H737   H     0.76995   0.15122   0.88715   0.00000  Uiso   1.00
H738   H     0.70439   0.23580   0.72592   0.00000  Uiso   1.00
H739   H     0.88239   0.04237   0.79723   0.00000  Uiso   1.00
H740   H     0.78428   0.29096   0.70277   0.00000  Uiso   1.00
H741   H     0.78429   0.04189   0.70276   0.00000  Uiso   1.00
H742   H     0.88238   0.29145   0.79724   0.00000  Uiso   1.00
H743   H     0.97055   0.16133   0.86829   0.00000  Uiso   1.00
H744   H     0.69612   0.17201   0.63171   0.00000  Uiso   1.00
H745   H     0.89672   0.18211   0.61285   0.00000  Uiso   1.00
H746   H     0.73161   0.14099   0.95598   0.00000  Uiso   1.00
H747   H     0.93506   0.19234   0.54402   0.00000  Uiso   1.00
H748   H     0.72912   0.14004   0.53685   0.00000  Uiso   1.00
H749   H     0.93754   0.19329   0.96315   0.00000  Uiso   1.00
H750   H     0.70435   0.09749   0.77393   0.00000  Uiso   1.00
H751   H     0.96232   0.23584   0.72607   0.00000  Uiso   1.00
H752   H     0.96228   0.09753   0.77408   0.00000  Uiso   1.00
N753   N     0.83333   0.28573   0.75000   0.00000  Uiso   1.00
N754   N     0.83333   0.04760   0.75000   0.00000  Uiso   1.00
O755   O     0.77226   0.20487   0.75000   0.00000  Uiso   1.00
O756   O     0.94566   0.15326   0.88766   0.00000  Uiso   1.00
O757   O     0.75178   0.11936   0.64505   0.00000  Uiso   1.00
O758   O     0.72100   0.18007   0.61234   0.00000  Uiso   1.00
O759   O     0.89441   0.12846   0.75001   0.00000  Uiso   1.00
O760   O     0.89441   0.20487   0.75001   0.00000  Uiso   1.00
O761   O     0.77226   0.12846   0.75000   0.00000  Uiso   1.00
O762   O     0.83333   0.20489   0.68393   0.00000  Uiso   1.00
O763   O     0.83334   0.12844   0.81608   0.00000  Uiso   1.00
O764   O     0.83334   0.20489   0.81608   0.00000  Uiso   1.00
O765   O     0.83333   0.12844   0.68393   0.00000  Uiso   1.00
O766   O     0.91489   0.21397   0.85495   0.00000  Uiso   1.00
Zn767  Zn    0.83333   0.21771   0.75000   0.00000  Uiso   1.00
Zn768  Zn    0.83333   0.11563   0.75000   0.00000  Uiso   1.00
C769   C     0.08665   0.50000   0.74999   0.00000  Uiso   1.00
C770   C     0.04250   0.49999   0.74995   0.00000  Uiso   1.00
C771   C     0.19392   0.35744   0.77624   0.00000  Uiso   1.00
C772   C     0.13941   0.64256   0.72376   0.00000  Uiso   1.00
C773   C     0.13941   0.35717   0.72375   0.00000  Uiso   1.00
C774   C     0.19392   0.64283   0.77625   0.00000  Uiso   1.00
C775   C     0.16605   0.49987   0.66360   0.00000  Uiso   1.00
C776   C     0.16728   0.50013   0.83640   0.00000  Uiso   1.00
C777   C     0.20603   0.50891   0.90687   0.00000  Uiso   1.00
C778   C     0.12730   0.49109   0.59313   0.00000  Uiso   1.00
C779   C     0.16852   0.50054   0.88401   0.00000  Uiso   1.00
C780   C     0.24669   0.50000   0.75001   0.00000  Uiso   1.00
C781   C     0.16481   0.49946   0.61599   0.00000  Uiso   1.00
C782   C     0.13146   0.49131   0.90618   0.00000  Uiso   1.00
C783   C     0.20187   0.50869   0.59382   0.00000  Uiso   1.00
C784   C     0.13052   0.49090   0.95239   0.00000  Uiso   1.00
C785   C     0.20281   0.50910   0.54761   0.00000  Uiso   1.00
C786   C     0.16735   0.49994   0.97657   0.00000  Uiso   1.00
C787   C     0.16599   0.50006   0.52343   0.00000  Uiso   1.00
C788   C     0.20543   0.50890   0.95393   0.00000  Uiso   1.00
C789   C     0.12790   0.49110   0.54607   0.00000  Uiso   1.00
C790   C     0.09318   0.48161   0.97458   0.00000  Uiso   1.00
C791   C     0.09184   0.48147   0.52100   0.00000  Uiso   1.00
C792   C     0.24015   0.51838   0.52542   0.00000  Uiso   1.00
C793   C     0.24539   0.51602   0.88143   0.00000  Uiso   1.00
C794   C     0.08794   0.48398   0.61858   0.00000  Uiso   1.00
C795   C     0.24149   0.51853   0.97900   0.00000  Uiso   1.00
C796   C     0.02134   0.46100   0.76324   0.00000  Uiso   1.00
C797   C     0.31199   0.53900   0.73676   0.00000  Uiso   1.00
C798   C     0.31197   0.46101   0.76332   0.00000  Uiso   1.00
C799   C     0.02136   0.53899   0.73668   0.00000  Uiso   1.00
C800   C     0.29083   0.50001   0.75005   0.00000  Uiso   1.00
H801   H     0.10328   0.48456   0.88715   0.00000  Uiso   1.00
H802   H     0.03772   0.56913   0.72592   0.00000  Uiso   1.00
H803   H     0.21572   0.37571   0.79723   0.00000  Uiso   1.00
H804   H     0.11761   0.62429   0.70277   0.00000  Uiso   1.00
H805   H     0.11762   0.37522   0.70276   0.00000  Uiso   1.00
H806   H     0.21571   0.62478   0.79724   0.00000  Uiso   1.00
H807   H     0.30388   0.49466   0.86829   0.00000  Uiso   1.00
H808   H     0.02945   0.50534   0.63171   0.00000  Uiso   1.00
H809   H     0.23005   0.51544   0.61285   0.00000  Uiso   1.00
H810   H     0.06494   0.47432   0.95598   0.00000  Uiso   1.00
H811   H     0.26839   0.52568   0.54402   0.00000  Uiso   1.00
H812   H     0.06246   0.47338   0.53685   0.00000  Uiso   1.00
H813   H     0.27088   0.52662   0.96315   0.00000  Uiso   1.00
H814   H     0.03768   0.43082   0.77393   0.00000  Uiso   1.00
H815   H     0.29565   0.56918   0.72607   0.00000  Uiso   1.00
H816   H     0.29561   0.43087   0.77408   0.00000  Uiso   1.00
N817   N     0.16667   0.61907   0.75000   0.00000  Uiso   1.00
N818   N     0.16667   0.38093   0.75000   0.00000  Uiso   1.00
O819   O     0.10559   0.53821   0.75000   0.00000  Uiso   1.00
O820   O     0.27900   0.48660   0.88766   0.00000  Uiso   1.00
O821   O     0.08511   0.45269   0.64505   0.00000  Uiso   1.00
O822   O     0.05434   0.51340   0.61234   0.00000  Uiso   1.00
O823   O     0.22774   0.46179   0.75001   0.00000  Uiso   1.00
O824   O     0.22774   0.53821   0.75001   0.00000  Uiso   1.00
O825   O     0.10559   0.46179   0.75000   0.00000  Uiso   1.00
O826   O     0.16666   0.53823   0.68393   0.00000  Uiso   1.00
O827   O     0.16667   0.46177   0.81608   0.00000  Uiso   1.00
O828   O     0.16667   0.53823   0.81608   0.00000  Uiso   1.00
O829   O     0.16666   0.46177   0.68393   0.00000  Uiso   1.00
O830   O     0.24822   0.54731   0.85495   0.00000  Uiso   1.00
Zn831  Zn    0.16667   0.55104   0.75000   0.00000  Uiso   1.00
Zn832  Zn    0.16667   0.44896   0.75000   0.00000  Uiso   1.00
C833   C     0.41998   0.50000   0.74999   0.00000  Uiso   1.00
C834   C     0.37584   0.49999   0.74995   0.00000  Uiso   1.00
C835   C     0.52726   0.35744   0.77624   0.00000  Uiso   1.00
C836   C     0.47274   0.64256   0.72376   0.00000  Uiso   1.00
C837   C     0.47275   0.35717   0.72375   0.00000  Uiso   1.00
C838   C     0.52725   0.64283   0.77625   0.00000  Uiso   1.00
C839   C     0.49939   0.49987   0.66360   0.00000  Uiso   1.00
C840   C     0.50061   0.50013   0.83640   0.00000  Uiso   1.00
C841   C     0.53936   0.50891   0.90687   0.00000  Uiso   1.00
C842   C     0.46064   0.49109   0.59313   0.00000  Uiso   1.00
C843   C     0.50185   0.50054   0.88401   0.00000  Uiso   1.00
C844   C     0.58002   0.50000   0.75001   0.00000  Uiso   1.00
C845   C     0.49815   0.49946   0.61599   0.00000  Uiso   1.00
C846   C     0.46480   0.49131   0.90618   0.00000  Uiso   1.00
C847   C     0.53520   0.50869   0.59382   0.00000  Uiso   1.00
C848   C     0.46385   0.49090   0.95239   0.00000  Uiso   1.00
C849   C     0.53615   0.50910   0.54761   0.00000  Uiso   1.00
C850   C     0.50068   0.49994   0.97657   0.00000  Uiso   1.00
C851   C     0.49932   0.50006   0.52343   0.00000  Uiso   1.00
C852   C     0.53877   0.50890   0.95393   0.00000  Uiso   1.00
C853   C     0.46123   0.49110   0.54607   0.00000  Uiso   1.00
C854   C     0.42651   0.48161   0.97458   0.00000  Uiso   1.00
C855   C     0.42518   0.48147   0.52100   0.00000  Uiso   1.00
C856   C     0.57349   0.51838   0.52542   0.00000  Uiso   1.00
C857   C     0.57873   0.51602   0.88143   0.00000  Uiso   1.00
C858   C     0.42127   0.48398   0.61858   0.00000  Uiso   1.00
C859   C     0.57482   0.51853   0.97900   0.00000  Uiso   1.00
C860   C     0.35467   0.46100   0.76324   0.00000  Uiso   1.00
C861   C     0.64533   0.53900   0.73676   0.00000  Uiso   1.00
C862   C     0.64531   0.46101   0.76332   0.00000  Uiso   1.00
C863   C     0.35469   0.53899   0.73668   0.00000  Uiso   1.00
C864   C     0.62416   0.50001   0.75005   0.00000  Uiso   1.00
H865   H     0.43661   0.48456   0.88715   0.00000  Uiso   1.00
H866   H     0.37105   0.56913   0.72592   0.00000  Uiso   1.00
H867   H     0.54905   0.37571   0.79723   0.00000  Uiso   1.00
H868   H     0.45095   0.62429   0.70277   0.00000  Uiso   1.00
H869   H     0.45095   0.37522   0.70276   0.00000  Uiso   1.00
H870   H     0.54905   0.62478   0.79724   0.00000  Uiso   1.00
H871   H     0.63722   0.49466   0.86829   0.00000  Uiso   1.00
H872   H     0.36278   0.50534   0.63171   0.00000  Uiso   1.00
H873   H     0.56339   0.51544   0.61285   0.00000  Uiso   1.00
H874   H     0.39828   0.47432   0.95598   0.00000  Uiso   1.00
H875   H     0.60172   0.52568   0.54402   0.00000  Uiso   1.00
H876   H     0.39579   0.47338   0.53685   0.00000  Uiso   1.00
H877   H     0.60421   0.52662   0.96315   0.00000  Uiso   1.00
H878   H     0.37101   0.43082   0.77393   0.00000  Uiso   1.00
H879   H     0.62899   0.56918   0.72607   0.00000  Uiso   1.00
H880   H     0.62895   0.43087   0.77408   0.00000  Uiso   1.00
N881   N     0.50000   0.61907   0.75000   0.00000  Uiso   1.00
N882   N     0.50000   0.38093   0.75000   0.00000  Uiso   1.00
O883   O     0.43892   0.53821   0.75000   0.00000  Uiso   1.00
O884   O     0.61233   0.48660   0.88766   0.00000  Uiso   1.00
O885   O     0.41844   0.45269   0.64505   0.00000  Uiso   1.00
O886   O     0.38767   0.51340   0.61234   0.00000  Uiso   1.00
O887   O     0.56108   0.46179   0.75001   0.00000  Uiso   1.00
O888   O     0.56108   0.53821   0.75001   0.00000  Uiso   1.00
O889   O     0.43892   0.46179   0.75000   0.00000  Uiso   1.00
O890   O     0.49999   0.53823   0.68393   0.00000  Uiso   1.00
O891   O     0.50001   0.46177   0.81608   0.00000  Uiso   1.00
O892   O     0.50001   0.53823   0.81608   0.00000  Uiso   1.00
O893   O     0.49999   0.46177   0.68393   0.00000  Uiso   1.00
O894   O     0.58156   0.54731   0.85495   0.00000  Uiso   1.00
Zn895  Zn    0.50000   0.55104   0.75000   0.00000  Uiso   1.00
Zn896  Zn    0.50000   0.44896   0.75000   0.00000  Uiso   1.00
C897   C     0.75331   0.50000   0.74999   0.00000  Uiso   1.00
C898   C     0.70917   0.49999   0.74995   0.00000  Uiso   1.00
C899   C     0.86059   0.35744   0.77624   0.00000  Uiso   1.00
C900   C     0.80608   0.64256   0.72376   0.00000  Uiso   1.00
C901   C     0.80608   0.35717   0.72375   0.00000  Uiso   1.00
C902   C     0.86059   0.64283   0.77625   0.00000  Uiso   1.00
C903   C     0.83272   0.49987   0.66360   0.00000  Uiso   1.00
C904   C     0.83395   0.50013   0.83640   0.00000  Uiso   1.00
C905   C     0.87270   0.50891   0.90687   0.00000  Uiso   1.00
C906   C     0.79397   0.49109   0.59313   0.00000  Uiso   1.00
C907   C     0.83519   0.50054   0.88401   0.00000  Uiso   1.00
C908   C     0.91335   0.50000   0.75001   0.00000  Uiso   1.00
C909   C     0.83148   0.49946   0.61599   0.00000  Uiso   1.00
C910   C     0.79813   0.49131   0.90618   0.00000  Uiso   1.00
C911   C     0.86854   0.50869   0.59382   0.00000  Uiso   1.00
C912   C     0.79719   0.49090   0.95239   0.00000  Uiso   1.00
C913   C     0.86948   0.50910   0.54761   0.00000  Uiso   1.00
C914   C     0.83401   0.49994   0.97657   0.00000  Uiso   1.00
C915   C     0.83265   0.50006   0.52343   0.00000  Uiso   1.00
C916   C     0.87210   0.50890   0.95393   0.00000  Uiso   1.00
C917   C     0.79457   0.49110   0.54607   0.00000  Uiso   1.00
C918   C     0.75985   0.48161   0.97458   0.00000  Uiso   1.00
C919   C     0.75851   0.48147   0.52100   0.00000  Uiso   1.00
C920   C     0.90682   0.51838   0.52542   0.00000  Uiso   1.00
C921   C     0.91206   0.51602   0.88143   0.00000  Uiso   1.00
C922   C     0.75461   0.48398   0.61858   0.00000  Uiso   1.00
C923   C     0.90816   0.51853   0.97900   0.00000  Uiso   1.00
C924   C     0.68800   0.46100   0.76324   0.00000  Uiso   1.00
C925   C     0.97866   0.53900   0.73676   0.00000  Uiso   1.00
C926   C     0.97864   0.46101   0.76332   0.00000  Uiso   1.00
C927   C     0.68803   0.53899   0.73668   0.00000  Uiso   1.00
C928   C     0.95750   0.50001   0.75005   0.00000  Uiso   1.00
H929   H     0.76995   0.48456   0.88715   0.00000  Uiso   1.00
H930   H     0.70439   0.56913   0.72592   0.00000  Uiso   1.00
H931   H     0.88239   0.37571   0.79723   0.00000  Uiso   1.00
H932   H     0.78428   0.62429   0.70277   0.00000  Uiso   1.00
H933   H     0.78429   0.37522   0.70276   0.00000  Uiso   1.00
H934   H     0.88238   0.62478   0.79724   0.00000  Uiso   1.00
H935   H     0.97055   0.49466   0.86829   0.00000  Uiso   1.00
H936   H     0.69612   0.50534   0.63171   0.00000  Uiso   1.00
H937   H     0.89672   0.51544   0.61285   0.00000  Uiso   1.00
H938   H     0.73161   0.47432   0.95598   0.00000  Uiso   1.00
H939   H     0.93506   0.52568   0.54402   0.00000  Uiso   1.00
H940   H     0.72912   0.47338   0.53685   0.00000  Uiso   1.00
H941   H     0.93754   0.52662   0.96315   0.00000  Uiso   1.00
H942   H     0.70435   0.43082   0.77393   0.00000  Uiso   1.00
H943   H     0.96232   0.56918   0.72607   0.00000  Uiso   1.00
H944   H     0.96228   0.43087   0.77408   0.00000  Uiso   1.00
N945   N     0.83333   0.61907   0.75000   0.00000  Uiso   1.00
N946   N     0.83333   0.38093   0.75000   0.00000  Uiso   1.00
O947   O     0.77226   0.53821   0.75000   0.00000  Uiso   1.00
O948   O     0.94566   0.48660   0.88766   0.00000  Uiso   1.00
O949   O     0.75178   0.45269   0.64505   0.00000  Uiso   1.00
O950   O     0.72100   0.51340   0.61234   0.00000  Uiso   1.00
O951   O     0.89441   0.46179   0.75001   0.00000  Uiso   1.00
O952   O     0.89441   0.53821   0.75001   0.00000  Uiso   1.00
O953   O     0.77226   0.46179   0.75000   0.00000  Uiso   1.00
O954   O     0.83333   0.53823   0.68393   0.00000  Uiso   1.00
O955   O     0.83334   0.46177   0.81608   0.00000  Uiso   1.00
O956   O     0.83334   0.53823   0.81608   0.00000  Uiso   1.00
O957   O     0.83333   0.46177   0.68393   0.00000  Uiso   1.00
O958   O     0.91489   0.54731   0.85495   0.00000  Uiso   1.00
Zn959  Zn    0.83333   0.55104   0.75000   0.00000  Uiso   1.00
Zn960  Zn    0.83333   0.44896   0.75000   0.00000  Uiso   1.00
C961   C     0.08665   0.83334   0.74999   0.00000  Uiso   1.00
C962   C     0.04250   0.83333   0.74995   0.00000  Uiso   1.00
C963   C     0.19392   0.69078   0.77624   0.00000  Uiso   1.00
C964   C     0.13941   0.97589   0.72376   0.00000  Uiso   1.00
C965   C     0.13941   0.69051   0.72375   0.00000  Uiso   1.00
C966   C     0.19392   0.97616   0.77625   0.00000  Uiso   1.00
C967   C     0.16605   0.83320   0.66360   0.00000  Uiso   1.00
C968   C     0.16728   0.83347   0.83640   0.00000  Uiso   1.00
C969   C     0.20603   0.84225   0.90687   0.00000  Uiso   1.00
C970   C     0.12730   0.82442   0.59313   0.00000  Uiso   1.00
C971   C     0.16852   0.83388   0.88401   0.00000  Uiso   1.00
C972   C     0.24669   0.83333   0.75001   0.00000  Uiso   1.00
C973   C     0.16481   0.83279   0.61599   0.00000  Uiso   1.00
C974   C     0.13146   0.82464   0.90618   0.00000  Uiso   1.00
C975   C     0.20187   0.84203   0.59382   0.00000  Uiso   1.00
C976   C     0.13052   0.82424   0.95239   0.00000  Uiso   1.00
C977   C     0.20281   0.84243   0.54761   0.00000  Uiso   1.00
C978   C     0.16735   0.83327   0.97657   0.00000  Uiso   1.00
C979   C     0.16599   0.83339   0.52343   0.00000  Uiso   1.00
C980   C     0.20543   0.84224   0.95393   0.00000  Uiso   1.00
C981   C     0.12790   0.82443   0.54607   0.00000  Uiso   1.00
C982   C     0.09318   0.81495   0.97458   0.00000  Uiso   1.00
C983   C     0.09184   0.81480   0.52100   0.00000  Uiso   1.00
C984   C     0.24015   0.85172   0.52542   0.00000  Uiso   1.00
C985   C     0.24539   0.84935   0.88143   0.00000  Uiso   1.00
C986   C     0.08794   0.81732   0.61858   0.00000  Uiso   1.00
C987   C     0.24149   0.85186   0.97900   0.00000  Uiso   1.00
C988   C     0.02134   0.79433   0.76324   0.00000  Uiso   1.00
C989   C     0.31199   0.87234   0.73676   0.00000  Uiso   1.00
C990   C     0.31197   0.79435   0.76332   0.00000  Uiso   1.00
C991   C     0.02136   0.87232   0.73668   0.00000  Uiso   1.00
C992   C     0.29083   0.83334   0.75005   0.00000  Uiso   1.00
H993   H     0.10328   0.81789   0.88715   0.00000  Uiso   1.00
H994   H     0.03772   0.90247   0.72592   0.00000  Uiso   1.00
H995   H     0.21572   0.70904   0.79723   0.00000  Uiso   1.00
H996   H     0.11761   0.95763   0.70277   0.00000  Uiso   1.00
H997   H     0.11762   0.70855   0.70276   0.00000  Uiso   1.00
H998   H     0.21571   0.95811   0.79724   0.00000  Uiso   1.00
H999   H     0.30388   0.82799   0.86829   0.00000  Uiso   1.00
H1000  H     0.02945   0.83867   0.63171   0.00000  Uiso   1.00
H1001  H     0.23005   0.84877   0.61285   0.00000  Uiso   1.00
H1002  H     0.06494   0.80765   0.95598   0.00000  Uiso   1.00
H1003  H     0.26839   0.85901   0.54402   0.00000  Uiso   1.00
H1004  H     0.06246   0.80671   0.53685   0.00000  Uiso   1.00
H1005  H     0.27088   0.85996   0.96315   0.00000  Uiso   1.00
H1006  H     0.03768   0.76416   0.77393   0.00000  Uiso   1.00
H1007  H     0.29565   0.90251   0.72607   0.00000  Uiso   1.00
H1008  H     0.29561   0.76420   0.77408   0.00000  Uiso   1.00
N1009  N     0.16667   0.95240   0.75000   0.00000  Uiso   1.00
N1010  N     0.16667   0.71427   0.75000   0.00000  Uiso   1.00
O1011  O     0.10559   0.87154   0.75000   0.00000  Uiso   1.00
O1012  O     0.27900   0.81993   0.88766   0.00000  Uiso   1.00
O1013  O     0.08511   0.78603   0.64505   0.00000  Uiso   1.00
O1014  O     0.05434   0.84674   0.61234   0.00000  Uiso   1.00
O1015  O     0.22774   0.79513   0.75001   0.00000  Uiso   1.00
O1016  O     0.22774   0.87154   0.75001   0.00000  Uiso   1.00
O1017  O     0.10559   0.79513   0.75000   0.00000  Uiso   1.00
O1018  O     0.16666   0.87156   0.68393   0.00000  Uiso   1.00
O1019  O     0.16667   0.79511   0.81608   0.00000  Uiso   1.00
O1020  O     0.16667   0.87156   0.81608   0.00000  Uiso   1.00
O1021  O     0.16666   0.79511   0.68393   0.00000  Uiso   1.00
O1022  O     0.24822   0.88064   0.85495   0.00000  Uiso   1.00
Zn1023 Zn    0.16667   0.88437   0.75000   0.00000  Uiso   1.00
Zn1024 Zn    0.16667   0.78229   0.75000   0.00000  Uiso   1.00
C1025  C     0.41998   0.83334   0.74999   0.00000  Uiso   1.00
C1026  C     0.37584   0.83333   0.74995   0.00000  Uiso   1.00
C1027  C     0.52726   0.69078   0.77624   0.00000  Uiso   1.00
C1028  C     0.47274   0.97589   0.72376   0.00000  Uiso   1.00
C1029  C     0.47275   0.69051   0.72375   0.00000  Uiso   1.00
C1030  C     0.52725   0.97616   0.77625   0.00000  Uiso   1.00
C1031  C     0.49939   0.83320   0.66360   0.00000  Uiso   1.00
C1032  C     0.50061   0.83347   0.83640   0.00000  Uiso   1.00
C1033  C     0.53936   0.84225   0.90687   0.00000  Uiso   1.00
C1034  C     0.46064   0.82442   0.59313   0.00000  Uiso   1.00
C1035  C     0.50185   0.83388   0.88401   0.00000  Uiso   1.00
C1036  C     0.58002   0.83333   0.75001   0.00000  Uiso   1.00
C1037  C     0.49815   0.83279   0.61599   0.00000  Uiso   1.00
C1038  C     0.46480   0.82464   0.90618   0.00000  Uiso   1.00
C1039  C     0.53520   0.84203   0.59382   0.00000  Uiso   1.00
C1040  C     0.46385   0.82424   0.95239   0.00000  Uiso   1.00
C1041  C     0.53615   0.84243   0.54761   0.00000  Uiso   1.00
C1042  C     0.50068   0.83327   0.97657   0.00000  Uiso   1.00
C1043  C     0.49932   0.83339   0.52343   0.00000  Uiso   1.00
C1044  C     0.53877   0.84224   0.95393   0.00000  Uiso   1.00
C1045  C     0.46123   0.82443   0.54607   0.00000  Uiso   1.00
C1046  C     0.42651   0.81495   0.97458   0.00000  Uiso   1.00
C1047  C     0.42518   0.81480   0.52100   0.00000  Uiso   1.00
C1048  C     0.57349   0.85172   0.52542   0.00000  Uiso   1.00
C1049  C     0.57873   0.84935   0.88143   0.00000  Uiso   1.00
C1050  C     0.42127   0.81732   0.61858   0.00000  Uiso   1.00
C1051  C     0.57482   0.85186   0.97900   0.00000  Uiso   1.00
C1052  C     0.35467   0.79433   0.76324   0.00000  Uiso   1.00
C1053  C     0.64533   0.87234   0.73676   0.00000  Uiso   1.00
C1054  C     0.64531   0.79435   0.76332   0.00000  Uiso   1.00
C1055  C     0.35469   0.87232   0.73668   0.00000  Uiso   1.00
C1056  C     0.62416   0.83334   0.75005   0.00000  Uiso   1.00
H1057  H     0.43661   0.81789   0.88715   0.00000  Uiso   1.00
H1058  H     0.37105   0.90247   0.72592   0.00000  Uiso   1.00
H1059  H     0.54905   0.70904   0.79723   0.00000  Uiso   1.00
H1060  H     0.45095   0.95763   0.70277   0.00000  Uiso   1.00
H1061  H     0.45095   0.70855   0.70276   0.00000  Uiso   1.00
H1062  H     0.54905   0.95811   0.79724   0.00000  Uiso   1.00
H1063  H     0.63722   0.82799   0.86829   0.00000  Uiso   1.00
H1064  H     0.36278   0.83867   0.63171   0.00000  Uiso   1.00
H1065  H     0.56339   0.84877   0.61285   0.00000  Uiso   1.00
H1066  H     0.39828   0.80765   0.95598   0.00000  Uiso   1.00
H1067  H     0.60172   0.85901   0.54402   0.00000  Uiso   1.00
H1068  H     0.39579   0.80671   0.53685   0.00000  Uiso   1.00
H1069  H     0.60421   0.85996   0.96315   0.00000  Uiso   1.00
H1070  H     0.37101   0.76416   0.77393   0.00000  Uiso   1.00
H1071  H     0.62899   0.90251   0.72607   0.00000  Uiso   1.00
H1072  H     0.62895   0.76420   0.77408   0.00000  Uiso   1.00
N1073  N     0.50000   0.95240   0.75000   0.00000  Uiso   1.00
N1074  N     0.50000   0.71427   0.75000   0.00000  Uiso   1.00
O1075  O     0.43892   0.87154   0.75000   0.00000  Uiso   1.00
O1076  O     0.61233   0.81993   0.88766   0.00000  Uiso   1.00
O1077  O     0.41844   0.78603   0.64505   0.00000  Uiso   1.00
O1078  O     0.38767   0.84674   0.61234   0.00000  Uiso   1.00
O1079  O     0.56108   0.79513   0.75001   0.00000  Uiso   1.00
O1080  O     0.56108   0.87154   0.75001   0.00000  Uiso   1.00
O1081  O     0.43892   0.79513   0.75000   0.00000  Uiso   1.00
O1082  O     0.49999   0.87156   0.68393   0.00000  Uiso   1.00
O1083  O     0.50001   0.79511   0.81608   0.00000  Uiso   1.00
O1084  O     0.50001   0.87156   0.81608   0.00000  Uiso   1.00
O1085  O     0.49999   0.79511   0.68393   0.00000  Uiso   1.00
O1086  O     0.58156   0.88064   0.85495   0.00000  Uiso   1.00
Zn1087 Zn    0.50000   0.88437   0.75000   0.00000  Uiso   1.00
Zn1088 Zn    0.50000   0.78229   0.75000   0.00000  Uiso   1.00
C1089  C     0.75331   0.83334   0.74999   0.00000  Uiso   1.00
C1090  C     0.70917   0.83333   0.74995   0.00000  Uiso   1.00
C1091  C     0.86059   0.69078   0.77624   0.00000  Uiso   1.00
C1092  C     0.80608   0.97589   0.72376   0.00000  Uiso   1.00
C1093  C     0.80608   0.69051   0.72375   0.00000  Uiso   1.00
C1094  C     0.86059   0.97616   0.77625   0.00000  Uiso   1.00
C1095  C     0.83272   0.83320   0.66360   0.00000  Uiso   1.00
C1096  C     0.83395   0.83347   0.83640   0.00000  Uiso   1.00
C1097  C     0.87270   0.84225   0.90687   0.00000  Uiso   1.00
C1098  C     0.79397   0.82442   0.59313   0.00000  Uiso   1.00
C1099  C     0.83519   0.83388   0.88401   0.00000  Uiso   1.00
C1100  C     0.91335   0.83333   0.75001   0.00000  Uiso   1.00
C1101  C     0.83148   0.83279   0.61599   0.00000  Uiso   1.00
C1102  C     0.79813   0.82464   0.90618   0.00000  Uiso   1.00
C1103  C     0.86854   0.84203   0.59382   0.00000  Uiso   1.00
C1104  C     0.79719   0.82424   0.95239   0.00000  Uiso   1.00
C1105  C     0.86948   0.84243   0.54761   0.00000  Uiso   1.00
C1106  C     0.83401   0.83327   0.97657   0.00000  Uiso   1.00
C1107  C     0.83265   0.83339   0.52343   0.00000  Uiso   1.00
C1108  C     0.87210   0.84224   0.95393   0.00000  Uiso   1.00
C1109  C     0.79457   0.82443   0.54607   0.00000  Uiso   1.00
C1110  C     0.75985   0.81495   0.97458   0.00000  Uiso   1.00
C1111  C     0.75851   0.81480   0.52100   0.00000  Uiso   1.00
C1112  C     0.90682   0.85172   0.52542   0.00000  Uiso   1.00
C1113  C     0.91206   0.84935   0.88143   0.00000  Uiso   1.00
C1114  C     0.75461   0.81732   0.61858   0.00000  Uiso   1.00
C1115  C     0.90816   0.85186   0.97900   0.00000  Uiso   1.00
C1116  C     0.68800   0.79433   0.76324   0.00000  Uiso   1.00
C1117  C     0.97866   0.87234   0.73676   0.00000  Uiso   1.00
C1118  C     0.97864   0.79435   0.76332   0.00000  Uiso   1.00
C1119  C     0.68803   0.87232   0.73668   0.00000  Uiso   1.00
C1120  C     0.95750   0.83334   0.75005   0.00000  Uiso   1.00
H1121  H     0.76995   0.81789   0.88715   0.00000  Uiso   1.00
H1122  H     0.70439   0.90247   0.72592   0.00000  Uiso   1.00
H1123  H     0.88239   0.70904   0.79723   0.00000  Uiso   1.00
H1124  H     0.78428   0.95763   0.70277   0.00000  Uiso   1.00
H1125  H     0.78429   0.70855   0.70276   0.00000  Uiso   1.00
H1126  H     0.88238   0.95811   0.79724   0.00000  Uiso   1.00
H1127  H     0.97055   0.82799   0.86829   0.00000  Uiso   1.00
H1128  H     0.69612   0.83867   0.63171   0.00000  Uiso   1.00
H1129  H     0.89672   0.84877   0.61285   0.00000  Uiso   1.00
H1130  H     0.73161   0.80765   0.95598   0.00000  Uiso   1.00
H1131  H     0.93506   0.85901   0.54402   0.00000  Uiso   1.00
H1132  H     0.72912   0.80671   0.53685   0.00000  Uiso   1.00
H1133  H     0.93754   0.85996   0.96315   0.00000  Uiso   1.00
H1134  H     0.70435   0.76416   0.77393   0.00000  Uiso   1.00
H1135  H     0.96232   0.90251   0.72607   0.00000  Uiso   1.00
H1136  H     0.96228   0.76420   0.77408   0.00000  Uiso   1.00
N1137  N     0.83333   0.95240   0.75000   0.00000  Uiso   1.00
N1138  N     0.83333   0.71427   0.75000   0.00000  Uiso   1.00
O1139  O     0.77226   0.87154   0.75000   0.00000  Uiso   1.00
O1140  O     0.94566   0.81993   0.88766   0.00000  Uiso   1.00
O1141  O     0.75178   0.78603   0.64505   0.00000  Uiso   1.00
O1142  O     0.72100   0.84674   0.61234   0.00000  Uiso   1.00
O1143  O     0.89441   0.79513   0.75001   0.00000  Uiso   1.00
O1144  O     0.89441   0.87154   0.75001   0.00000  Uiso   1.00
O1145  O     0.77226   0.79513   0.75000   0.00000  Uiso   1.00
O1146  O     0.83333   0.87156   0.68393   0.00000  Uiso   1.00
O1147  O     0.83334   0.79511   0.81608   0.00000  Uiso   1.00
O1148  O     0.83334   0.87156   0.81608   0.00000  Uiso   1.00
O1149  O     0.83333   0.79511   0.68393   0.00000  Uiso   1.00
O1150  O     0.91489   0.88064   0.85495   0.00000  Uiso   1.00
Zn1151 Zn    0.83333   0.88437   0.75000   0.00000  Uiso   1.00
Zn1152 Zn    0.83333   0.78229   0.75000   0.00000  Uiso   1.00
loop_
_geom_bond_atom_site_label_1
_geom_bond_atom_site_label_2
_geom_bond_distance
_geom_bond_site_symmetry_2
_ccdc_geom_bond_type
C1     O57     1.282   .     A
C1     O51     1.282   .     A
C1     C2      1.416   .     S
C2     C31     1.396   .     A
C2     C28     1.397   .     A
C3     H35     1.082   .     S
C3     N50     1.366   .     A
C3     C390    1.417   1_545 S
C4     H36     1.082   .     S
C4     N49     1.366   .     A
C4     C197    1.417   .     S
C5     N50     1.366   .     A
C5     H37     1.082   .     S
C5     C388    1.417   1_545 S
C6     H38     1.082   .     S
C6     N49     1.366   .     A
C6     C195    1.417   .     S
C7     O58     1.283   .     A
C7     C13     1.421   .     S
C7     O61     1.281   .     A
C8     O59     1.283   .     A
C8     C11     1.421   .     S
C8     O60     1.281   .     A
C9     C11     1.406   .     A
C9     C25     1.488   .     S
C9     C20     1.404   .     A
C10    C26     1.488   .     S
C10    C21     1.404   .     A
C10    C13     1.406   .     A
C11    C14     1.387   .     A
C12    C32     1.416   .     S
C12    O56     1.282   .     A
C12    O55     1.282   .     A
C13    C15     1.387   .     A
C14    H33     1.086   .     S
C14    C16     1.379   .     A
C15    H41     1.086   .     S
C15    C17     1.379   .     A
C16    C22     1.396   .     A
C16    C18     1.410   .     A
C17    C19     1.410   .     A
C17    C24     1.396   .     A
C18    C20     1.421   .     A
C18    C595    1.399   .     S
C19    C21     1.421   .     A
C19    C594    1.399   1_554 S
C20    C27     1.407   .     A
C21    C23     1.407   .     A
C22    H42     1.084   .     S
C22    C599    1.386   .     S
C23    H44     1.081   .     S
C23    C598    1.386   1_554 S
C24    H43     1.084   .     S
C24    C603    1.386   1_554 S
C25    O62     1.223   .     D
C25    O52     1.398   .     S
C26    O54     1.398   .     S
C26    O53     1.222   .     D
C27    H45     1.081   .     S
C27    C600    1.386   .     S
C28    H46     1.084   .     S
C28    C158    1.370   1_455 S
C29    H47     1.084   .     S
C29    C32     1.397   .     A
C29    C95     1.370   .     S
C30    C32     1.396   .     A
C30    H48     1.084   .     S
C30    C92     1.370   .     S
C31    H34     1.084   .     S
C31    C157    1.370   1_455 S
H39    O52     1.014   .     S
H40    O54     1.014   .     S
N49    Zn63    2.010   .     S
N50    Zn64    2.010   .     S
O51    Zn63    1.996   .     S
O55    Zn64    1.996   .     S
O56    Zn63    1.996   .     S
O57    Zn64    1.996   .     S
O58    Zn63    2.005   .     S
O59    Zn64    2.005   .     S
O60    Zn63    2.009   .     S
O61    Zn64    2.009   .     S
C65    O121    1.282   .     A
C65    O115    1.282   .     A
C65    C66     1.416   .     S
C66    C95     1.396   .     A
C66    C92     1.397   .     A
C67    H99     1.082   .     S
C67    N114    1.366   .     A
C67    C454    1.417   1_545 S
C68    H100    1.082   .     S
C68    N113    1.366   .     A
C68    C261    1.417   .     S
C69    N114    1.366   .     A
C69    H101    1.082   .     S
C69    C452    1.417   1_545 S
C70    H102    1.082   .     S
C70    N113    1.366   .     A
C70    C259    1.417   .     S
C71    O122    1.283   .     A
C71    C77     1.421   .     S
C71    O125    1.281   .     A
C72    O123    1.283   .     A
C72    C75     1.421   .     S
C72    O124    1.281   .     A
C73    C75     1.406   .     A
C73    C89     1.488   .     S
C73    C84     1.404   .     A
C74    C90     1.488   .     S
C74    C85     1.404   .     A
C74    C77     1.406   .     A
C75    C78     1.387   .     A
C76    C96     1.416   .     S
C76    O120    1.282   .     A
C76    O119    1.282   .     A
C77    C79     1.387   .     A
C78    H97     1.086   .     S
C78    C80     1.379   .     A
C79    H105    1.086   .     S
C79    C81     1.379   .     A
C80    C86     1.396   .     A
C80    C82     1.410   .     A
C81    C83     1.410   .     A
C81    C88     1.396   .     A
C82    C84     1.421   .     A
C82    C659    1.399   .     S
C83    C85     1.421   .     A
C83    C658    1.399   1_554 S
C84    C91     1.407   .     A
C85    C87     1.407   .     A
C86    H106    1.084   .     S
C86    C663    1.386   .     S
C87    H108    1.081   .     S
C87    C662    1.386   1_554 S
C88    H107    1.084   .     S
C88    C667    1.386   1_554 S
C89    O126    1.223   .     D
C89    O116    1.398   .     S
C90    O118    1.398   .     S
C90    O117    1.222   .     D
C91    H109    1.081   .     S
C91    C664    1.386   .     S
C92    H110    1.084   .     S
C93    H111    1.084   .     S
C93    C96     1.397   .     A
C93    C159    1.370   .     S
C94    C96     1.396   .     A
C94    H112    1.084   .     S
C94    C156    1.370   .     S
C95    H98     1.084   .     S
H103   O116    1.014   .     S
H104   O118    1.014   .     S
N113   Zn127   2.010   .     S
N114   Zn128   2.010   .     S
O115   Zn127   1.996   .     S
O119   Zn128   1.996   .     S
O120   Zn127   1.996   .     S
O121   Zn128   1.996   .     S
O122   Zn127   2.005   .     S
O123   Zn128   2.005   .     S
O124   Zn127   2.009   .     S
O125   Zn128   2.009   .     S
C129   O185    1.282   .     A
C129   O179    1.282   .     A
C129   C130    1.416   .     S
C130   C159    1.396   .     A
C130   C156    1.397   .     A
C131   H163    1.082   .     S
C131   N178    1.366   .     A
C131   C518    1.417   1_545 S
C132   H164    1.082   .     S
C132   N177    1.366   .     A
C132   C325    1.417   .     S
C133   N178    1.366   .     A
C133   H165    1.082   .     S
C133   C516    1.417   1_545 S
C134   H166    1.082   .     S
C134   N177    1.366   .     A
C134   C323    1.417   .     S
C135   O186    1.283   .     A
C135   C141    1.421   .     S
C135   O189    1.281   .     A
C136   O187    1.283   .     A
C136   C139    1.421   .     S
C136   O188    1.281   .     A
C137   C139    1.406   .     A
C137   C153    1.488   .     S
C137   C148    1.404   .     A
C138   C154    1.488   .     S
C138   C149    1.404   .     A
C138   C141    1.406   .     A
C139   C142    1.387   .     A
C140   C160    1.416   .     S
C140   O184    1.282   .     A
C140   O183    1.282   .     A
C141   C143    1.387   .     A
C142   H161    1.086   .     S
C142   C144    1.379   .     A
C143   H169    1.086   .     S
C143   C145    1.379   .     A
C144   C150    1.396   .     A
C144   C146    1.410   .     A
C145   C147    1.410   .     A
C145   C152    1.396   .     A
C146   C148    1.421   .     A
C146   C723    1.399   .     S
C147   C149    1.421   .     A
C147   C722    1.399   1_554 S
C148   C155    1.407   .     A
C149   C151    1.407   .     A
C150   H170    1.084   .     S
C150   C727    1.386   .     S
C151   H172    1.081   .     S
C151   C726    1.386   1_554 S
C152   H171    1.084   .     S
C152   C731    1.386   1_554 S
C153   O190    1.223   .     D
C153   O180    1.398   .     S
C154   O182    1.398   .     S
C154   O181    1.222   .     D
C155   H173    1.081   .     S
C155   C728    1.386   .     S
C156   H174    1.084   .     S
C157   H175    1.084   .     S
C157   C160    1.397   .     A
C157   C31     1.370   1_655 S
C158   C160    1.396   .     A
C158   H176    1.084   .     S
C158   C28     1.370   1_655 S
C159   H162    1.084   .     S
H167   O180    1.014   .     S
H168   O182    1.014   .     S
N177   Zn191   2.010   .     S
N178   Zn192   2.010   .     S
O179   Zn191   1.996   .     S
O183   Zn192   1.996   .     S
O184   Zn191   1.996   .     S
O185   Zn192   1.996   .     S
O186   Zn191   2.005   .     S
O187   Zn192   2.005   .     S
O188   Zn191   2.009   .     S
O189   Zn192   2.009   .     S
C193   O249    1.282   .     A
C193   O243    1.282   .     A
C193   C194    1.416   .     S
C194   C223    1.396   .     A
C194   C220    1.397   .     A
C195   H227    1.082   .     S
C195   N242    1.366   .     A
C196   H228    1.082   .     S
C196   N241    1.366   .     A
C196   C389    1.417   .     S
C197   N242    1.366   .     A
C197   H229    1.082   .     S
C198   H230    1.082   .     S
C198   N241    1.366   .     A
C198   C387    1.417   .     S
C199   O250    1.283   .     A
C199   C205    1.421   .     S
C199   O253    1.281   .     A
C200   O251    1.283   .     A
C200   C203    1.421   .     S
C200   O252    1.281   .     A
C201   C203    1.406   .     A
C201   C217    1.488   .     S
C201   C212    1.404   .     A
C202   C218    1.488   .     S
C202   C213    1.404   .     A
C202   C205    1.406   .     A
C203   C206    1.387   .     A
C204   C224    1.416   .     S
C204   O248    1.282   .     A
C204   O247    1.282   .     A
C205   C207    1.387   .     A
C206   H225    1.086   .     S
C206   C208    1.379   .     A
C207   H233    1.086   .     S
C207   C209    1.379   .     A
C208   C214    1.396   .     A
C208   C210    1.410   .     A
C209   C211    1.410   .     A
C209   C216    1.396   .     A
C210   C212    1.421   .     A
C210   C787    1.399   .     S
C211   C213    1.421   .     A
C211   C786    1.399   1_554 S
C212   C219    1.407   .     A
C213   C215    1.407   .     A
C214   H234    1.084   .     S
C214   C791    1.386   .     S
C215   H236    1.081   .     S
C215   C790    1.386   1_554 S
C216   H235    1.084   .     S
C216   C795    1.386   1_554 S
C217   O254    1.223   .     D
C217   O244    1.398   .     S
C218   O246    1.398   .     S
C218   O245    1.222   .     D
C219   H237    1.081   .     S
C219   C792    1.386   .     S
C220   H238    1.084   .     S
C220   C350    1.370   1_455 S
C221   H239    1.084   .     S
C221   C224    1.397   .     A
C221   C287    1.370   .     S
C222   C224    1.396   .     A
C222   H240    1.084   .     S
C222   C284    1.370   .     S
C223   H226    1.084   .     S
C223   C349    1.370   1_455 S
H231   O244    1.014   .     S
H232   O246    1.014   .     S
N241   Zn255   2.010   .     S
N242   Zn256   2.010   .     S
O243   Zn255   1.996   .     S
O247   Zn256   1.996   .     S
O248   Zn255   1.996   .     S
O249   Zn256   1.996   .     S
O250   Zn255   2.005   .     S
O251   Zn256   2.005   .     S
O252   Zn255   2.009   .     S
O253   Zn256   2.009   .     S
C257   O313    1.282   .     A
C257   O307    1.282   .     A
C257   C258    1.416   .     S
C258   C287    1.396   .     A
C258   C284    1.397   .     A
C259   H291    1.082   .     S
C259   N306    1.366   .     A
C260   H292    1.082   .     S
C260   N305    1.366   .     A
C260   C453    1.417   .     S
C261   N306    1.366   .     A
C261   H293    1.082   .     S
C262   H294    1.082   .     S
C262   N305    1.366   .     A
C262   C451    1.417   .     S
C263   O314    1.283   .     A
C263   C269    1.421   .     S
C263   O317    1.281   .     A
C264   O315    1.283   .     A
C264   C267    1.421   .     S
C264   O316    1.281   .     A
C265   C267    1.406   .     A
C265   C281    1.488   .     S
C265   C276    1.404   .     A
C266   C282    1.488   .     S
C266   C277    1.404   .     A
C266   C269    1.406   .     A
C267   C270    1.387   .     A
C268   C288    1.416   .     S
C268   O312    1.282   .     A
C268   O311    1.282   .     A
C269   C271    1.387   .     A
C270   H289    1.086   .     S
C270   C272    1.379   .     A
C271   H297    1.086   .     S
C271   C273    1.379   .     A
C272   C278    1.396   .     A
C272   C274    1.410   .     A
C273   C275    1.410   .     A
C273   C280    1.396   .     A
C274   C276    1.421   .     A
C274   C851    1.399   .     S
C275   C277    1.421   .     A
C275   C850    1.399   1_554 S
C276   C283    1.407   .     A
C277   C279    1.407   .     A
C278   H298    1.084   .     S
C278   C855    1.386   .     S
C279   H300    1.081   .     S
C279   C854    1.386   1_554 S
C280   H299    1.084   .     S
C280   C859    1.386   1_554 S
C281   O318    1.223   .     D
C281   O308    1.398   .     S
C282   O310    1.398   .     S
C282   O309    1.222   .     D
C283   H301    1.081   .     S
C283   C856    1.386   .     S
C284   H302    1.084   .     S
C285   H303    1.084   .     S
C285   C288    1.397   .     A
C285   C351    1.370   .     S
C286   C288    1.396   .     A
C286   H304    1.084   .     S
C286   C348    1.370   .     S
C287   H290    1.084   .     S
H295   O308    1.014   .     S
H296   O310    1.014   .     S
N305   Zn319   2.010   .     S
N306   Zn320   2.010   .     S
O307   Zn319   1.996   .     S
O311   Zn320   1.996   .     S
O312   Zn319   1.996   .     S
O313   Zn320   1.996   .     S
O314   Zn319   2.005   .     S
O315   Zn320   2.005   .     S
O316   Zn319   2.009   .     S
O317   Zn320   2.009   .     S
C321   O377    1.282   .     A
C321   O371    1.282   .     A
C321   C322    1.416   .     S
C322   C351    1.396   .     A
C322   C348    1.397   .     A
C323   H355    1.082   .     S
C323   N370    1.366   .     A
C324   H356    1.082   .     S
C324   N369    1.366   .     A
C324   C517    1.417   .     S
C325   N370    1.366   .     A
C325   H357    1.082   .     S
C326   H358    1.082   .     S
C326   N369    1.366   .     A
C326   C515    1.417   .     S
C327   O378    1.283   .     A
C327   C333    1.421   .     S
C327   O381    1.281   .     A
C328   O379    1.283   .     A
C328   C331    1.421   .     S
C328   O380    1.281   .     A
C329   C331    1.406   .     A
C329   C345    1.488   .     S
C329   C340    1.404   .     A
C330   C346    1.488   .     S
C330   C341    1.404   .     A
C330   C333    1.406   .     A
C331   C334    1.387   .     A
C332   C352    1.416   .     S
C332   O376    1.282   .     A
C332   O375    1.282   .     A
C333   C335    1.387   .     A
C334   H353    1.086   .     S
C334   C336    1.379   .     A
C335   H361    1.086   .     S
C335   C337    1.379   .     A
C336   C342    1.396   .     A
C336   C338    1.410   .     A
C337   C339    1.410   .     A
C337   C344    1.396   .     A
C338   C340    1.421   .     A
C338   C915    1.399   .     S
C339   C341    1.421   .     A
C339   C914    1.399   1_554 S
C340   C347    1.407   .     A
C341   C343    1.407   .     A
C342   H362    1.084   .     S
C342   C919    1.386   .     S
C343   H364    1.081   .     S
C343   C918    1.386   1_554 S
C344   H363    1.084   .     S
C344   C923    1.386   1_554 S
C345   O382    1.223   .     D
C345   O372    1.398   .     S
C346   O374    1.398   .     S
C346   O373    1.222   .     D
C347   H365    1.081   .     S
C347   C920    1.386   .     S
C348   H366    1.084   .     S
C349   H367    1.084   .     S
C349   C352    1.397   .     A
C349   C223    1.370   1_655 S
C350   C352    1.396   .     A
C350   H368    1.084   .     S
C350   C220    1.370   1_655 S
C351   H354    1.084   .     S
H359   O372    1.014   .     S
H360   O374    1.014   .     S
N369   Zn383   2.010   .     S
N370   Zn384   2.010   .     S
O371   Zn383   1.996   .     S
O375   Zn384   1.996   .     S
O376   Zn383   1.996   .     S
O377   Zn384   1.996   .     S
O378   Zn383   2.005   .     S
O379   Zn384   2.005   .     S
O380   Zn383   2.009   .     S
O381   Zn384   2.009   .     S
C385   O441    1.282   .     A
C385   O435    1.282   .     A
C385   C386    1.416   .     S
C386   C415    1.396   .     A
C386   C412    1.397   .     A
C387   H419    1.082   .     S
C387   N434    1.366   .     A
C388   H420    1.082   .     S
C388   N433    1.366   .     A
C388   C5      1.417   1_565 S
C389   N434    1.366   .     A
C389   H421    1.082   .     S
C390   H422    1.082   .     S
C390   N433    1.366   .     A
C390   C3      1.417   1_565 S
C391   O442    1.283   .     A
C391   C397    1.421   .     S
C391   O445    1.281   .     A
C392   O443    1.283   .     A
C392   C395    1.421   .     S
C392   O444    1.281   .     A
C393   C395    1.406   .     A
C393   C409    1.488   .     S
C393   C404    1.404   .     A
C394   C410    1.488   .     S
C394   C405    1.404   .     A
C394   C397    1.406   .     A
C395   C398    1.387   .     A
C396   C416    1.416   .     S
C396   O440    1.282   .     A
C396   O439    1.282   .     A
C397   C399    1.387   .     A
C398   H417    1.086   .     S
C398   C400    1.379   .     A
C399   H425    1.086   .     S
C399   C401    1.379   .     A
C400   C406    1.396   .     A
C400   C402    1.410   .     A
C401   C403    1.410   .     A
C401   C408    1.396   .     A
C402   C404    1.421   .     A
C402   C979    1.399   .     S
C403   C405    1.421   .     A
C403   C978    1.399   1_554 S
C404   C411    1.407   .     A
C405   C407    1.407   .     A
C406   H426    1.084   .     S
C406   C983    1.386   .     S
C407   H428    1.081   .     S
C407   C982    1.386   1_554 S
C408   H427    1.084   .     S
C408   C987    1.386   1_554 S
C409   O446    1.223   .     D
C409   O436    1.398   .     S
C410   O438    1.398   .     S
C410   O437    1.222   .     D
C411   H429    1.081   .     S
C411   C984    1.386   .     S
C412   H430    1.084   .     S
C412   C542    1.370   1_455 S
C413   H431    1.084   .     S
C413   C416    1.397   .     A
C413   C479    1.370   .     S
C414   C416    1.396   .     A
C414   H432    1.084   .     S
C414   C476    1.370   .     S
C415   H418    1.084   .     S
C415   C541    1.370   1_455 S
H423   O436    1.014   .     S
H424   O438    1.014   .     S
N433   Zn447   2.010   .     S
N434   Zn448   2.010   .     S
O435   Zn447   1.996   .     S
O439   Zn448   1.996   .     S
O440   Zn447   1.996   .     S
O441   Zn448   1.996   .     S
O442   Zn447   2.005   .     S
O443   Zn448   2.005   .     S
O444   Zn447   2.009   .     S
O445   Zn448   2.009   .     S
C449   O505    1.282   .     A
C449   O499    1.282   .     A
C449   C450    1.416   .     S
C450   C479    1.396   .     A
C450   C476    1.397   .     A
C451   H483    1.082   .     S
C451   N498    1.366   .     A
C452   H484    1.082   .     S
C452   N497    1.366   .     A
C452   C69     1.417   1_565 S
C453   N498    1.366   .     A
C453   H485    1.082   .     S
C454   H486    1.082   .     S
C454   N497    1.366   .     A
C454   C67     1.417   1_565 S
C455   O506    1.283   .     A
C455   C461    1.421   .     S
C455   O509    1.281   .     A
C456   O507    1.283   .     A
C456   C459    1.421   .     S
C456   O508    1.281   .     A
C457   C459    1.406   .     A
C457   C473    1.488   .     S
C457   C468    1.404   .     A
C458   C474    1.488   .     S
C458   C469    1.404   .     A
C458   C461    1.406   .     A
C459   C462    1.387   .     A
C460   C480    1.416   .     S
C460   O504    1.282   .     A
C460   O503    1.282   .     A
C461   C463    1.387   .     A
C462   H481    1.086   .     S
C462   C464    1.379   .     A
C463   H489    1.086   .     S
C463   C465    1.379   .     A
C464   C470    1.396   .     A
C464   C466    1.410   .     A
C465   C467    1.410   .     A
C465   C472    1.396   .     A
C466   C468    1.421   .     A
C466   C1043   1.399   .     S
C467   C469    1.421   .     A
C467   C1042   1.399   1_554 S
C468   C475    1.407   .     A
C469   C471    1.407   .     A
C470   H490    1.084   .     S
C470   C1047   1.386   .     S
C471   H492    1.081   .     S
C471   C1046   1.386   1_554 S
C472   H491    1.084   .     S
C472   C1051   1.386   1_554 S
C473   O510    1.223   .     D
C473   O500    1.398   .     S
C474   O502    1.398   .     S
C474   O501    1.222   .     D
C475   H493    1.081   .     S
C475   C1048   1.386   .     S
C476   H494    1.084   .     S
C477   H495    1.084   .     S
C477   C480    1.397   .     A
C477   C543    1.370   .     S
C478   C480    1.396   .     A
C478   H496    1.084   .     S
C478   C540    1.370   .     S
C479   H482    1.084   .     S
H487   O500    1.014   .     S
H488   O502    1.014   .     S
N497   Zn511   2.010   .     S
N498   Zn512   2.010   .     S
O499   Zn511   1.996   .     S
O503   Zn512   1.996   .     S
O504   Zn511   1.996   .     S
O505   Zn512   1.996   .     S
O506   Zn511   2.005   .     S
O507   Zn512   2.005   .     S
O508   Zn511   2.009   .     S
O509   Zn512   2.009   .     S
C513   O569    1.282   .     A
C513   O563    1.282   .     A
C513   C514    1.416   .     S
C514   C543    1.396   .     A
C514   C540    1.397   .     A
C515   H547    1.082   .     S
C515   N562    1.366   .     A
C516   H548    1.082   .     S
C516   N561    1.366   .     A
C516   C133    1.417   1_565 S
C517   N562    1.366   .     A
C517   H549    1.082   .     S
C518   H550    1.082   .     S
C518   N561    1.366   .     A
C518   C131    1.417   1_565 S
C519   O570    1.283   .     A
C519   C525    1.421   .     S
C519   O573    1.281   .     A
C520   O571    1.283   .     A
C520   C523    1.421   .     S
C520   O572    1.281   .     A
C521   C523    1.406   .     A
C521   C537    1.488   .     S
C521   C532    1.404   .     A
C522   C538    1.488   .     S
C522   C533    1.404   .     A
C522   C525    1.406   .     A
C523   C526    1.387   .     A
C524   C544    1.416   .     S
C524   O568    1.282   .     A
C524   O567    1.282   .     A
C525   C527    1.387   .     A
C526   H545    1.086   .     S
C526   C528    1.379   .     A
C527   H553    1.086   .     S
C527   C529    1.379   .     A
C528   C534    1.396   .     A
C528   C530    1.410   .     A
C529   C531    1.410   .     A
C529   C536    1.396   .     A
C530   C532    1.421   .     A
C530   C1107   1.399   .     S
C531   C533    1.421   .     A
C531   C1106   1.399   1_554 S
C532   C539    1.407   .     A
C533   C535    1.407   .     A
C534   H554    1.084   .     S
C534   C1111   1.386   .     S
C535   H556    1.081   .     S
C535   C1110   1.386   1_554 S
C536   H555    1.084   .     S
C536   C1115   1.386   1_554 S
C537   O574    1.223   .     D
C537   O564    1.398   .     S
C538   O566    1.398   .     S
C538   O565    1.222   .     D
C539   H557    1.081   .     S
C539   C1112   1.386   .     S
C540   H558    1.084   .     S
C541   H559    1.084   .     S
C541   C544    1.397   .     A
C541   C415    1.370   1_655 S
C542   C544    1.396   .     A
C542   H560    1.084   .     S
C542   C412    1.370   1_655 S
C543   H546    1.084   .     S
H551   O564    1.014   .     S
H552   O566    1.014   .     S
N561   Zn575   2.010   .     S
N562   Zn576   2.010   .     S
O563   Zn575   1.996   .     S
O567   Zn576   1.996   .     S
O568   Zn575   1.996   .     S
O569   Zn576   1.996   .     S
O570   Zn575   2.005   .     S
O571   Zn576   2.005   .     S
O572   Zn575   2.009   .     S
O573   Zn576   2.009   .     S
C577   O633    1.282   .     A
C577   O627    1.282   .     A
C577   C578    1.416   .     S
C578   C607    1.396   .     A
C578   C604    1.397   .     A
C579   H611    1.082   .     S
C579   N626    1.366   .     A
C579   C966    1.417   1_545 S
C580   H612    1.082   .     S
C580   N625    1.366   .     A
C580   C773    1.417   .     S
C581   N626    1.366   .     A
C581   H613    1.082   .     S
C581   C964    1.417   1_545 S
C582   H614    1.082   .     S
C582   N625    1.366   .     A
C582   C771    1.417   .     S
C583   O634    1.283   .     A
C583   C589    1.421   .     S
C583   O637    1.281   .     A
C584   O635    1.283   .     A
C584   C587    1.421   .     S
C584   O636    1.281   .     A
C585   C587    1.406   .     A
C585   C601    1.488   .     S
C585   C596    1.404   .     A
C586   C602    1.488   .     S
C586   C597    1.404   .     A
C586   C589    1.406   .     A
C587   C590    1.387   .     A
C588   C608    1.416   .     S
C588   O632    1.282   .     A
C588   O631    1.282   .     A
C589   C591    1.387   .     A
C590   H609    1.086   .     S
C590   C592    1.379   .     A
C591   H617    1.086   .     S
C591   C593    1.379   .     A
C592   C598    1.396   .     A
C592   C594    1.410   .     A
C593   C595    1.410   .     A
C593   C600    1.396   .     A
C594   C596    1.421   .     A
C594   C19     1.399   1_556 S
C595   C597    1.421   .     A
C596   C603    1.407   .     A
C597   C599    1.407   .     A
C598   H618    1.084   .     S
C598   C23     1.386   1_556 S
C599   H620    1.081   .     S
C600   H619    1.084   .     S
C601   O638    1.223   .     D
C601   O628    1.398   .     S
C602   O630    1.398   .     S
C602   O629    1.222   .     D
C603   H621    1.081   .     S
C603   C24     1.386   1_556 S
C604   H622    1.084   .     S
C604   C734    1.370   1_455 S
C605   H623    1.084   .     S
C605   C608    1.397   .     A
C605   C671    1.370   .     S
C606   C608    1.396   .     A
C606   H624    1.084   .     S
C606   C668    1.370   .     S
C607   H610    1.084   .     S
C607   C733    1.370   1_455 S
H615   O628    1.014   .     S
H616   O630    1.014   .     S
N625   Zn639   2.010   .     S
N626   Zn640   2.010   .     S
O627   Zn639   1.996   .     S
O631   Zn640   1.996   .     S
O632   Zn639   1.996   .     S
O633   Zn640   1.996   .     S
O634   Zn639   2.005   .     S
O635   Zn640   2.005   .     S
O636   Zn639   2.009   .     S
O637   Zn640   2.009   .     S
C641   O697    1.282   .     A
C641   O691    1.282   .     A
C641   C642    1.416   .     S
C642   C671    1.396   .     A
C642   C668    1.397   .     A
C643   H675    1.082   .     S
C643   N690    1.366   .     A
C643   C1030   1.417   1_545 S
C644   H676    1.082   .     S
C644   N689    1.366   .     A
C644   C837    1.417   .     S
C645   N690    1.366   .     A
C645   H677    1.082   .     S
C645   C1028   1.417   1_545 S
C646   H678    1.082   .     S
C646   N689    1.366   .     A
C646   C835    1.417   .     S
C647   O698    1.283   .     A
C647   C653    1.421   .     S
C647   O701    1.281   .     A
C648   O699    1.283   .     A
C648   C651    1.421   .     S
C648   O700    1.281   .     A
C649   C651    1.406   .     A
C649   C665    1.488   .     S
C649   C660    1.404   .     A
C650   C666    1.488   .     S
C650   C661    1.404   .     A
C650   C653    1.406   .     A
C651   C654    1.387   .     A
C652   C672    1.416   .     S
C652   O696    1.282   .     A
C652   O695    1.282   .     A
C653   C655    1.387   .     A
C654   H673    1.086   .     S
C654   C656    1.379   .     A
C655   H681    1.086   .     S
C655   C657    1.379   .     A
C656   C662    1.396   .     A
C656   C658    1.410   .     A
C657   C659    1.410   .     A
C657   C664    1.396   .     A
C658   C660    1.421   .     A
C658   C83     1.399   1_556 S
C659   C661    1.421   .     A
C660   C667    1.407   .     A
C661   C663    1.407   .     A
C662   H682    1.084   .     S
C662   C87     1.386   1_556 S
C663   H684    1.081   .     S
C664   H683    1.084   .     S
C665   O702    1.223   .     D
C665   O692    1.398   .     S
C666   O694    1.398   .     S
C666   O693    1.222   .     D
C667   H685    1.081   .     S
C667   C88     1.386   1_556 S
C668   H686    1.084   .     S
C669   H687    1.084   .     S
C669   C672    1.397   .     A
C669   C735    1.370   .     S
C670   C672    1.396   .     A
C670   H688    1.084   .     S
C670   C732    1.370   .     S
C671   H674    1.084   .     S
H679   O692    1.014   .     S
H680   O694    1.014   .     S
N689   Zn703   2.010   .     S
N690   Zn704   2.010   .     S
O691   Zn703   1.996   .     S
O695   Zn704   1.996   .     S
O696   Zn703   1.996   .     S
O697   Zn704   1.996   .     S
O698   Zn703   2.005   .     S
O699   Zn704   2.005   .     S
O700   Zn703   2.009   .     S
O701   Zn704   2.009   .     S
C705   O761    1.282   .     A
C705   O755    1.282   .     A
C705   C706    1.416   .     S
C706   C735    1.396   .     A
C706   C732    1.397   .     A
C707   H739    1.082   .     S
C707   N754    1.366   .     A
C707   C1094   1.417   1_545 S
C708   H740    1.082   .     S
C708   N753    1.366   .     A
C708   C901    1.417   .     S
C709   N754    1.366   .     A
C709   H741    1.082   .     S
C709   C1092   1.417   1_545 S
C710   H742    1.082   .     S
C710   N753    1.366   .     A
C710   C899    1.417   .     S
C711   O762    1.283   .     A
C711   C717    1.421   .     S
C711   O765    1.281   .     A
C712   O763    1.283   .     A
C712   C715    1.421   .     S
C712   O764    1.281   .     A
C713   C715    1.406   .     A
C713   C729    1.488   .     S
C713   C724    1.404   .     A
C714   C730    1.488   .     S
C714   C725    1.404   .     A
C714   C717    1.406   .     A
C715   C718    1.387   .     A
C716   C736    1.416   .     S
C716   O760    1.282   .     A
C716   O759    1.282   .     A
C717   C719    1.387   .     A
C718   H737    1.086   .     S
C718   C720    1.379   .     A
C719   H745    1.086   .     S
C719   C721    1.379   .     A
C720   C726    1.396   .     A
C720   C722    1.410   .     A
C721   C723    1.410   .     A
C721   C728    1.396   .     A
C722   C724    1.421   .     A
C722   C147    1.399   1_556 S
C723   C725    1.421   .     A
C724   C731    1.407   .     A
C725   C727    1.407   .     A
C726   H746    1.084   .     S
C726   C151    1.386   1_556 S
C727   H748    1.081   .     S
C728   H747    1.084   .     S
C729   O766    1.223   .     D
C729   O756    1.398   .     S
C730   O758    1.398   .     S
C730   O757    1.222   .     D
C731   H749    1.081   .     S
C731   C152    1.386   1_556 S
C732   H750    1.084   .     S
C733   H751    1.084   .     S
C733   C736    1.397   .     A
C733   C607    1.370   1_655 S
C734   C736    1.396   .     A
C734   H752    1.084   .     S
C734   C604    1.370   1_655 S
C735   H738    1.084   .     S
H743   O756    1.014   .     S
H744   O758    1.014   .     S
N753   Zn767   2.010   .     S
N754   Zn768   2.010   .     S
O755   Zn767   1.996   .     S
O759   Zn768   1.996   .     S
O760   Zn767   1.996   .     S
O761   Zn768   1.996   .     S
O762   Zn767   2.005   .     S
O763   Zn768   2.005   .     S
O764   Zn767   2.009   .     S
O765   Zn768   2.009   .     S
C769   O825    1.282   .     A
C769   O819    1.282   .     A
C769   C770    1.416   .     S
C770   C799    1.396   .     A
C770   C796    1.397   .     A
C771   H803    1.082   .     S
C771   N818    1.366   .     A
C772   H804    1.082   .     S
C772   N817    1.366   .     A
C772   C965    1.417   .     S
C773   N818    1.366   .     A
C773   H805    1.082   .     S
C774   H806    1.082   .     S
C774   N817    1.366   .     A
C774   C963    1.417   .     S
C775   O826    1.283   .     A
C775   C781    1.421   .     S
C775   O829    1.281   .     A
C776   O827    1.283   .     A
C776   C779    1.421   .     S
C776   O828    1.281   .     A
C777   C779    1.406   .     A
C777   C793    1.488   .     S
C777   C788    1.404   .     A
C778   C794    1.488   .     S
C778   C789    1.404   .     A
C778   C781    1.406   .     A
C779   C782    1.387   .     A
C780   C800    1.416   .     S
C780   O824    1.282   .     A
C780   O823    1.282   .     A
C781   C783    1.387   .     A
C782   H801    1.086   .     S
C782   C784    1.379   .     A
C783   H809    1.086   .     S
C783   C785    1.379   .     A
C784   C790    1.396   .     A
C784   C786    1.410   .     A
C785   C787    1.410   .     A
C785   C792    1.396   .     A
C786   C788    1.421   .     A
C786   C211    1.399   1_556 S
C787   C789    1.421   .     A
C788   C795    1.407   .     A
C789   C791    1.407   .     A
C790   H810    1.084   .     S
C790   C215    1.386   1_556 S
C791   H812    1.081   .     S
C792   H811    1.084   .     S
C793   O830    1.223   .     D
C793   O820    1.398   .     S
C794   O822    1.398   .     S
C794   O821    1.222   .     D
C795   H813    1.081   .     S
C795   C216    1.386   1_556 S
C796   H814    1.084   .     S
C796   C926    1.370   1_455 S
C797   H815    1.084   .     S
C797   C800    1.397   .     A
C797   C863    1.370   .     S
C798   C800    1.396   .     A
C798   H816    1.084   .     S
C798   C860    1.370   .     S
C799   H802    1.084   .     S
C799   C925    1.370   1_455 S
H807   O820    1.014   .     S
H808   O822    1.014   .     S
N817   Zn831   2.010   .     S
N818   Zn832   2.010   .     S
O819   Zn831   1.996   .     S
O823   Zn832   1.996   .     S
O824   Zn831   1.996   .     S
O825   Zn832   1.996   .     S
O826   Zn831   2.005   .     S
O827   Zn832   2.005   .     S
O828   Zn831   2.009   .     S
O829   Zn832   2.009   .     S
C833   O889    1.282   .     A
C833   O883    1.282   .     A
C833   C834    1.416   .     S
C834   C863    1.396   .     A
C834   C860    1.397   .     A
C835   H867    1.082   .     S
C835   N882    1.366   .     A
C836   H868    1.082   .     S
C836   N881    1.366   .     A
C836   C1029   1.417   .     S
C837   N882    1.366   .     A
C837   H869    1.082   .     S
C838   H870    1.082   .     S
C838   N881    1.366   .     A
C838   C1027   1.417   .     S
C839   O890    1.283   .     A
C839   C845    1.421   .     S
C839   O893    1.281   .     A
C840   O891    1.283   .     A
C840   C843    1.421   .     S
C840   O892    1.281   .     A
C841   C843    1.406   .     A
C841   C857    1.488   .     S
C841   C852    1.404   .     A
C842   C858    1.488   .     S
C842   C853    1.404   .     A
C842   C845    1.406   .     A
C843   C846    1.387   .     A
C844   C864    1.416   .     S
C844   O888    1.282   .     A
C844   O887    1.282   .     A
C845   C847    1.387   .     A
C846   H865    1.086   .     S
C846   C848    1.379   .     A
C847   H873    1.086   .     S
C847   C849    1.379   .     A
C848   C854    1.396   .     A
C848   C850    1.410   .     A
C849   C851    1.410   .     A
C849   C856    1.396   .     A
C850   C852    1.421   .     A
C850   C275    1.399   1_556 S
C851   C853    1.421   .     A
C852   C859    1.407   .     A
C853   C855    1.407   .     A
C854   H874    1.084   .     S
C854   C279    1.386   1_556 S
C855   H876    1.081   .     S
C856   H875    1.084   .     S
C857   O894    1.223   .     D
C857   O884    1.398   .     S
C858   O886    1.398   .     S
C858   O885    1.222   .     D
C859   H877    1.081   .     S
C859   C280    1.386   1_556 S
C860   H878    1.084   .     S
C861   H879    1.084   .     S
C861   C864    1.397   .     A
C861   C927    1.370   .     S
C862   C864    1.396   .     A
C862   H880    1.084   .     S
C862   C924    1.370   .     S
C863   H866    1.084   .     S
H871   O884    1.014   .     S
H872   O886    1.014   .     S
N881   Zn895   2.010   .     S
N882   Zn896   2.010   .     S
O883   Zn895   1.996   .     S
O887   Zn896   1.996   .     S
O888   Zn895   1.996   .     S
O889   Zn896   1.996   .     S
O890   Zn895   2.005   .     S
O891   Zn896   2.005   .     S
O892   Zn895   2.009   .     S
O893   Zn896   2.009   .     S
C897   O953    1.282   .     A
C897   O947    1.282   .     A
C897   C898    1.416   .     S
C898   C927    1.396   .     A
C898   C924    1.397   .     A
C899   H931    1.082   .     S
C899   N946    1.366   .     A
C900   H932    1.082   .     S
C900   N945    1.366   .     A
C900   C1093   1.417   .     S
C901   N946    1.366   .     A
C901   H933    1.082   .     S
C902   H934    1.082   .     S
C902   N945    1.366   .     A
C902   C1091   1.417   .     S
C903   O954    1.283   .     A
C903   C909    1.421   .     S
C903   O957    1.281   .     A
C904   O955    1.283   .     A
C904   C907    1.421   .     S
C904   O956    1.281   .     A
C905   C907    1.406   .     A
C905   C921    1.488   .     S
C905   C916    1.404   .     A
C906   C922    1.488   .     S
C906   C917    1.404   .     A
C906   C909    1.406   .     A
C907   C910    1.387   .     A
C908   C928    1.416   .     S
C908   O952    1.282   .     A
C908   O951    1.282   .     A
C909   C911    1.387   .     A
C910   H929    1.086   .     S
C910   C912    1.379   .     A
C911   H937    1.086   .     S
C911   C913    1.379   .     A
C912   C918    1.396   .     A
C912   C914    1.410   .     A
C913   C915    1.410   .     A
C913   C920    1.396   .     A
C914   C916    1.421   .     A
C914   C339    1.399   1_556 S
C915   C917    1.421   .     A
C916   C923    1.407   .     A
C917   C919    1.407   .     A
C918   H938    1.084   .     S
C918   C343    1.386   1_556 S
C919   H940    1.081   .     S
C920   H939    1.084   .     S
C921   O958    1.223   .     D
C921   O948    1.398   .     S
C922   O950    1.398   .     S
C922   O949    1.222   .     D
C923   H941    1.081   .     S
C923   C344    1.386   1_556 S
C924   H942    1.084   .     S
C925   H943    1.084   .     S
C925   C928    1.397   .     A
C925   C799    1.370   1_655 S
C926   C928    1.396   .     A
C926   H944    1.084   .     S
C926   C796    1.370   1_655 S
C927   H930    1.084   .     S
H935   O948    1.014   .     S
H936   O950    1.014   .     S
N945   Zn959   2.010   .     S
N946   Zn960   2.010   .     S
O947   Zn959   1.996   .     S
O951   Zn960   1.996   .     S
O952   Zn959   1.996   .     S
O953   Zn960   1.996   .     S
O954   Zn959   2.005   .     S
O955   Zn960   2.005   .     S
O956   Zn959   2.009   .     S
O957   Zn960   2.009   .     S
C961   O1017   1.282   .     A
C961   O1011   1.282   .     A
C961   C962    1.416   .     S
C962   C991    1.396   .     A
C962   C988    1.397   .     A
C963   H995    1.082   .     S
C963   N1010   1.366   .     A
C964   H996    1.082   .     S
C964   N1009   1.366   .     A
C964   C581    1.417   1_565 S
C965   N1010   1.366   .     A
C965   H997    1.082   .     S
C966   H998    1.082   .     S
C966   N1009   1.366   .     A
C966   C579    1.417   1_565 S
C967   O1018   1.283   .     A
C967   C973    1.421   .     S
C967   O1021   1.281   .     A
C968   O1019   1.283   .     A
C968   C971    1.421   .     S
C968   O1020   1.281   .     A
C969   C971    1.406   .     A
C969   C985    1.488   .     S
C969   C980    1.404   .     A
C970   C986    1.488   .     S
C970   C981    1.404   .     A
C970   C973    1.406   .     A
C971   C974    1.387   .     A
C972   C992    1.416   .     S
C972   O1016   1.282   .     A
C972   O1015   1.282   .     A
C973   C975    1.387   .     A
C974   H993    1.086   .     S
C974   C976    1.379   .     A
C975   H1001   1.086   .     S
C975   C977    1.379   .     A
C976   C982    1.396   .     A
C976   C978    1.410   .     A
C977   C979    1.410   .     A
C977   C984    1.396   .     A
C978   C980    1.421   .     A
C978   C403    1.399   1_556 S
C979   C981    1.421   .     A
C980   C987    1.407   .     A
C981   C983    1.407   .     A
C982   H1002   1.084   .     S
C982   C407    1.386   1_556 S
C983   H1004   1.081   .     S
C984   H1003   1.084   .     S
C985   O1022   1.223   .     D
C985   O1012   1.398   .     S
C986   O1014   1.398   .     S
C986   O1013   1.222   .     D
C987   H1005   1.081   .     S
C987   C408    1.386   1_556 S
C988   H1006   1.084   .     S
C988   C1118   1.370   1_455 S
C989   H1007   1.084   .     S
C989   C992    1.397   .     A
C989   C1055   1.370   .     S
C990   C992    1.396   .     A
C990   H1008   1.084   .     S
C990   C1052   1.370   .     S
C991   H994    1.084   .     S
C991   C1117   1.370   1_455 S
H999   O1012   1.014   .     S
H1000  O1014   1.014   .     S
N1009  Zn1023  2.010   .     S
N1010  Zn1024  2.010   .     S
O1011  Zn1023  1.996   .     S
O1015  Zn1024  1.996   .     S
O1016  Zn1023  1.996   .     S
O1017  Zn1024  1.996   .     S
O1018  Zn1023  2.005   .     S
O1019  Zn1024  2.005   .     S
O1020  Zn1023  2.009   .     S
O1021  Zn1024  2.009   .     S
C1025  O1081   1.282   .     A
C1025  O1075   1.282   .     A
C1025  C1026   1.416   .     S
C1026  C1055   1.396   .     A
C1026  C1052   1.397   .     A
C1027  H1059   1.082   .     S
C1027  N1074   1.366   .     A
C1028  H1060   1.082   .     S
C1028  N1073   1.366   .     A
C1028  C645    1.417   1_565 S
C1029  N1074   1.366   .     A
C1029  H1061   1.082   .     S
C1030  H1062   1.082   .     S
C1030  N1073   1.366   .     A
C1030  C643    1.417   1_565 S
C1031  O1082   1.283   .     A
C1031  C1037   1.421   .     S
C1031  O1085   1.281   .     A
C1032  O1083   1.283   .     A
C1032  C1035   1.421   .     S
C1032  O1084   1.281   .     A
C1033  C1035   1.406   .     A
C1033  C1049   1.488   .     S
C1033  C1044   1.404   .     A
C1034  C1050   1.488   .     S
C1034  C1045   1.404   .     A
C1034  C1037   1.406   .     A
C1035  C1038   1.387   .     A
C1036  C1056   1.416   .     S
C1036  O1080   1.282   .     A
C1036  O1079   1.282   .     A
C1037  C1039   1.387   .     A
C1038  H1057   1.086   .     S
C1038  C1040   1.379   .     A
C1039  H1065   1.086   .     S
C1039  C1041   1.379   .     A
C1040  C1046   1.396   .     A
C1040  C1042   1.410   .     A
C1041  C1043   1.410   .     A
C1041  C1048   1.396   .     A
C1042  C1044   1.421   .     A
C1042  C467    1.399   1_556 S
C1043  C1045   1.421   .     A
C1044  C1051   1.407   .     A
C1045  C1047   1.407   .     A
C1046  H1066   1.084   .     S
C1046  C471    1.386   1_556 S
C1047  H1068   1.081   .     S
C1048  H1067   1.084   .     S
C1049  O1086   1.223   .     D
C1049  O1076   1.398   .     S
C1050  O1078   1.398   .     S
C1050  O1077   1.222   .     D
C1051  H1069   1.081   .     S
C1051  C472    1.386   1_556 S
C1052  H1070   1.084   .     S
C1053  H1071   1.084   .     S
C1053  C1056   1.397   .     A
C1053  C1119   1.370   .     S
C1054  C1056   1.396   .     A
C1054  H1072   1.084   .     S
C1054  C1116   1.370   .     S
C1055  H1058   1.084   .     S
H1063  O1076   1.014   .     S
H1064  O1078   1.014   .     S
N1073  Zn1087  2.010   .     S
N1074  Zn1088  2.010   .     S
O1075  Zn1087  1.996   .     S
O1079  Zn1088  1.996   .     S
O1080  Zn1087  1.996   .     S
O1081  Zn1088  1.996   .     S
O1082  Zn1087  2.005   .     S
O1083  Zn1088  2.005   .     S
O1084  Zn1087  2.009   .     S
O1085  Zn1088  2.009   .     S
C1089  O1145   1.282   .     A
C1089  O1139   1.282   .     A
C1089  C1090   1.416   .     S
C1090  C1119   1.396   .     A
C1090  C1116   1.397   .     A
C1091  H1123   1.082   .     S
C1091  N1138   1.366   .     A
C1092  H1124   1.082   .     S
C1092  N1137   1.366   .     A
C1092  C709    1.417   1_565 S
C1093  N1138   1.366   .     A
C1093  H1125   1.082   .     S
C1094  H1126   1.082   .     S
C1094  N1137   1.366   .     A
C1094  C707    1.417   1_565 S
C1095  O1146   1.283   .     A
C1095  C1101   1.421   .     S
C1095  O1149   1.281   .     A
C1096  O1147   1.283   .     A
C1096  C1099   1.421   .     S
C1096  O1148   1.281   .     A
C1097  C1099   1.406   .     A
C1097  C1113   1.488   .     S
C1097  C1108   1.404   .     A
C1098  C1114   1.488   .     S
C1098  C1109   1.404   .     A
C1098  C1101   1.406   .     A
C1099  C1102   1.387   .     A
C1100  C1120   1.416   .     S
C1100  O1144   1.282   .     A
C1100  O1143   1.282   .     A
C1101  C1103   1.387   .     A
C1102  H1121   1.086   .     S
C1102  C1104   1.379   .     A
C1103  H1129   1.086   .     S
C1103  C1105   1.379   .     A
C1104  C1110   1.396   .     A
C1104  C1106   1.410   .     A
C1105  C1107   1.410   .     A
C1105  C1112   1.396   .     A
C1106  C1108   1.421   .     A
C1106  C531    1.399   1_556 S
C1107  C1109   1.421   .     A
C1108  C1115   1.407   .     A
C1109  C1111   1.407   .     A
C1110  H1130   1.084   .     S
C1110  C535    1.386   1_556 S
C1111  H1132   1.081   .     S
C1112  H1131   1.084   .     S
C1113  O1150   1.223   .     D
C1113  O1140   1.398   .     S
C1114  O1142   1.398   .     S
C1114  O1141   1.222   .     D
C1115  H1133   1.081   .     S
C1115  C536    1.386   1_556 S
C1116  H1134   1.084   .     S
C1117  H1135   1.084   .     S
C1117  C1120   1.397   .     A
C1117  C991    1.370   1_655 S
C1118  C1120   1.396   .     A
C1118  H1136   1.084   .     S
C1118  C988    1.370   1_655 S
C1119  H1122   1.084   .     S
H1127  O1140   1.014   .     S
H1128  O1142   1.014   .     S
N1137  Zn1151  2.010   .     S
N1138  Zn1152  2.010   .     S
O1139  Zn1151  1.996   .     S
O1143  Zn1152  1.996   .     S
O1144  Zn1151  1.996   .     S
O1145  Zn1152  1.996   .     S
O1146  Zn1151  2.005   .     S
O1147  Zn1152  2.005   .     S
O1148  Zn1151  2.009   .     S
O1149  Zn1152  2.009   .     S
